MODEL        1
REMARK 921   NORMALIZED FREE ENERGY PREDICTED BY IDOCK:   -8.82 KCAL/MOL
REMARK 922        TOTAL FREE ENERGY PREDICTED BY IDOCK:  -15.09 KCAL/MOL
REMARK 923 INTER-LIGAND FREE ENERGY PREDICTED BY IDOCK:  -12.95 KCAL/MOL
REMARK 924 INTRA-LIGAND FREE ENERGY PREDICTED BY IDOCK:   -2.14 KCAL/MOL
REMARK 927      BINDING AFFINITY PREDICTED BY RF-SCORE:    0.00 PKD
ROOT
HETATM    1  C   UNL     1     -10.612  19.708  66.992  1.00  0.00    -0.602 C  
HETATM    2  C   UNL     1      -9.428  18.731  67.134  1.00  0.00    -0.305 C  
HETATM    3  C   UNL     1      -9.848  17.139  66.834  1.00  0.00    -0.285 C  
HETATM    4  N   UNL     1      -8.929  18.842  68.535  1.00  0.00    -0.335 NA 
HETATM    5  C   UNL     1      -8.315  19.317  66.221  1.00  0.00    -0.327 C  
HETATM    6  H2  UNL     1      -9.658  18.688  69.232  1.00  0.00     0.000 HD 
HETATM    7  N   UNL     1     -10.319  16.381  67.913  1.00  0.00    -0.276 N  
HETATM    8  H1  UNL     1      -8.145  18.195  68.628  1.00  0.00     0.000 HD 
HETATM    9  O   UNL     1      -9.786  16.661  65.702  1.00  0.00    -0.530 OA 
HETATM   10  H   UNL     1     -10.186  16.849  68.809  1.00  0.00     0.000 HD 
ENDROOT
BRANCH   7  11
HETATM   11  C   UNL     1     -11.006  14.978  68.060  1.00  0.00    -0.284 C  
BRANCH  11  12
HETATM   12  C   UNL     1     -12.160  14.424  67.102  1.00  0.00    -0.367 C  
BRANCH  12  13
HETATM   13  C   UNL     1     -11.800  13.846  65.650  1.00  0.00    -0.383 A  
HETATM   14  C   UNL     1     -12.223  14.293  64.412  1.00  0.00    -0.447 A  
HETATM   15  C   UNL     1      -9.437  10.733  65.465  1.00  0.00    -0.253 A  
HETATM   16  C   UNL     1      -9.701  10.400  64.140  1.00  0.00    -0.387 A  
HETATM   17  C   UNL     1     -10.511  11.228  63.365  1.00  0.00    -0.424 A  
HETATM   18  N   UNL     1     -11.813  13.401  63.422  1.00  0.00    -0.755 NA 
HETATM   19  C   UNL     1     -10.043  11.858  66.064  1.00  0.00    -0.261 A  
HETATM   20  C   UNL     1     -10.929  12.689  65.328  1.00  0.00    -0.320 A  
HETATM   21  C   UNL     1     -11.079  12.379  63.975  1.00  0.00    -0.396 A  
HETATM   22  H   UNL     1     -12.027  13.493  62.430  1.00  0.00     0.000 HD 
ENDBRANCH  12  13
ENDBRANCH  11  12
BRANCH  11  23
HETATM   23  C   UNL     1     -11.273  14.762  69.574  1.00  0.00    -0.278 C  
HETATM   24  N   UNL     1     -12.250  13.849  69.921  1.00  0.00    -0.336 N  
HETATM   25  H   UNL     1     -12.663  13.252  69.205  1.00  0.00     0.000 HD 
HETATM   26  O   UNL     1     -10.688  15.452  70.413  1.00  0.00    -0.306 OA 
BRANCH  24  27
HETATM   27  C   UNL     1     -12.690  13.735  71.292  1.00  0.00    -0.371 C  
BRANCH  27  28
HETATM   28  N   UNL     1     -13.467  14.902  71.625  1.00  0.00    -0.365 N  
HETATM   29  O   UNL     1     -12.558  15.184  73.731  1.00  0.00    -0.531 OA 
HETATM   30  C   UNL     1     -13.320  15.530  72.841  1.00  0.00    -0.547 C  
HETATM   31  H   UNL     1     -14.137  15.268  70.949  1.00  0.00     0.000 HD 
ENDBRANCH  27  28
BRANCH  27  32
HETATM   32  C   UNL     1     -13.299  12.394  71.754  1.00  0.00    -0.368 C  
BRANCH  32  33
HETATM   33  C   UNL     1     -12.786  10.983  71.518  1.00  0.00    -0.555 A  
HETATM   34  C   UNL     1     -11.855   8.939  71.003  1.00  0.00    -0.276 A  
HETATM   35  H   UNL     1     -13.114   7.871  72.328  1.00  0.00     0.000 HD 
HETATM   36  C   UNL     1     -11.035   7.957  70.425  1.00  0.00    -0.251 A  
HETATM   37  C   UNL     1     -13.396   9.965  72.247  1.00  0.00    -0.334 A  
HETATM   38  C   UNL     1     -10.116   8.367  69.467  1.00  0.00    -0.200 A  
HETATM   39  N   UNL     1     -12.837   8.768  71.930  1.00  0.00    -0.351 NA 
HETATM   40  C   UNL     1     -10.034   9.711  69.105  1.00  0.00    -0.189 A  
HETATM   41  C   UNL     1     -10.858  10.687  69.706  1.00  0.00    -0.317 A  
HETATM   42  C   UNL     1     -11.798  10.312  70.690  1.00  0.00    -0.439 A  
ENDBRANCH  32  33
ENDBRANCH  27  32
ENDBRANCH  24  27
ENDBRANCH  11  23
ENDBRANCH   7  11
TORSDOF 8
ENDMDL
MODEL        2
REMARK 921   NORMALIZED FREE ENERGY PREDICTED BY IDOCK:   -8.60 KCAL/MOL
REMARK 922        TOTAL FREE ENERGY PREDICTED BY IDOCK:  -14.76 KCAL/MOL
REMARK 923 INTER-LIGAND FREE ENERGY PREDICTED BY IDOCK:  -13.24 KCAL/MOL
REMARK 924 INTRA-LIGAND FREE ENERGY PREDICTED BY IDOCK:   -1.52 KCAL/MOL
REMARK 927      BINDING AFFINITY PREDICTED BY RF-SCORE:    0.00 PKD
ROOT
HETATM    1  C   UNL     1     -11.739  15.354  72.531  1.00  0.00    -0.564 C  
HETATM    2  C   UNL     1     -12.968  14.890  71.724  1.00  0.00    -0.336 C  
HETATM    3  C   UNL     1     -13.001  13.236  71.468  1.00  0.00    -0.337 C  
HETATM    4  N   UNL     1     -12.917  15.580  70.403  1.00  0.00    -0.654 NA 
HETATM    5  C   UNL     1     -14.190  15.478  72.482  1.00  0.00    -0.502 C  
HETATM    6  H2  UNL     1     -12.036  15.433  69.909  1.00  0.00     0.000 HD 
HETATM    7  N   UNL     1     -12.344  12.745  70.334  1.00  0.00    -0.292 N  
HETATM    8  H1  UNL     1     -13.730  15.273  69.869  1.00  0.00     0.000 HD 
HETATM    9  O   UNL     1     -13.546  12.474  72.265  1.00  0.00    -0.530 OA 
HETATM   10  H   UNL     1     -12.062  13.485  69.692  1.00  0.00     0.000 HD 
ENDROOT
BRANCH   7  11
HETATM   11  C   UNL     1     -11.940  11.317  69.823  1.00  0.00    -0.360 C  
BRANCH  11  12
HETATM   12  C   UNL     1     -11.058  10.270  70.650  1.00  0.00    -0.358 C  
BRANCH  12  13
HETATM   13  C   UNL     1     -11.701   8.890  71.155  1.00  0.00    -0.356 A  
HETATM   14  C   UNL     1     -13.022   8.606  71.443  1.00  0.00    -0.254 A  
HETATM   15  C   UNL     1      -9.292   5.857  71.710  1.00  0.00    -0.161 A  
HETATM   16  C   UNL     1     -10.176   5.071  72.444  1.00  0.00    -0.254 A  
HETATM   17  C   UNL     1     -11.493   5.493  72.624  1.00  0.00    -0.331 A  
HETATM   18  N   UNL     1     -13.119   7.337  72.015  1.00  0.00    -0.527 NA 
HETATM   19  C   UNL     1      -9.686   7.116  71.209  1.00  0.00    -0.170 A  
HETATM   20  C   UNL     1     -10.998   7.612  71.429  1.00  0.00    -0.257 A  
HETATM   21  C   UNL     1     -11.881   6.745  72.075  1.00  0.00    -0.314 A  
HETATM   22  H   UNL     1     -13.985   6.911  72.342  1.00  0.00     0.000 HD 
ENDBRANCH  12  13
ENDBRANCH  11  12
BRANCH  11  23
HETATM   23  C   UNL     1     -11.522  11.470  68.336  1.00  0.00    -0.298 C  
HETATM   24  N   UNL     1     -11.194  12.738  67.898  1.00  0.00    -0.257 N  
HETATM   25  H   UNL     1     -11.100  13.498  68.571  1.00  0.00     0.000 HD 
HETATM   26  O   UNL     1     -11.571  10.501  67.573  1.00  0.00    -0.421 OA 
BRANCH  24  27
HETATM   27  C   UNL     1     -10.984  12.993  66.491  1.00  0.00    -0.285 C  
BRANCH  27  28
HETATM   28  N   UNL     1     -12.267  13.056  65.838  1.00  0.00    -0.449 N  
HETATM   29  O   UNL     1     -11.615  11.892  63.951  1.00  0.00    -0.395 OA 
HETATM   30  C   UNL     1     -12.463  12.483  64.602  1.00  0.00    -0.463 C  
HETATM   31  H   UNL     1     -13.041  13.534  66.299  1.00  0.00     0.000 HD 
ENDBRANCH  27  28
BRANCH  27  32
HETATM   32  C   UNL     1      -9.995  14.109  66.092  1.00  0.00    -0.328 C  
BRANCH  32  33
HETATM   33  C   UNL     1     -10.247  15.601  65.947  1.00  0.00    -0.372 A  
HETATM   34  C   UNL     1     -10.526  17.888  65.942  1.00  0.00    -0.253 A  
HETATM   35  H   UNL     1     -11.475  17.912  64.049  1.00  0.00     0.000 HD 
HETATM   36  C   UNL     1     -10.485  19.235  66.333  1.00  0.00    -0.563 A  
HETATM   37  C   UNL     1     -10.878  16.019  64.778  1.00  0.00    -0.294 A  
HETATM   38  C   UNL     1      -9.940  19.528  67.578  1.00  0.00    -0.495 A  
HETATM   39  N   UNL     1     -11.037  17.367  64.792  1.00  0.00    -0.883 NA 
HETATM   40  C   UNL     1      -9.464  18.502  68.393  1.00  0.00    -0.368 A  
HETATM   41  C   UNL     1      -9.502  17.154  67.977  1.00  0.00    -0.262 A  
HETATM   42  C   UNL     1     -10.039  16.816  66.716  1.00  0.00    -0.295 A  
ENDBRANCH  32  33
ENDBRANCH  27  32
ENDBRANCH  24  27
ENDBRANCH  11  23
ENDBRANCH   7  11
TORSDOF 8
ENDMDL
MODEL        3
REMARK 921   NORMALIZED FREE ENERGY PREDICTED BY IDOCK:   -8.47 KCAL/MOL
REMARK 922        TOTAL FREE ENERGY PREDICTED BY IDOCK:  -14.57 KCAL/MOL
REMARK 923 INTER-LIGAND FREE ENERGY PREDICTED BY IDOCK:  -12.50 KCAL/MOL
REMARK 924 INTRA-LIGAND FREE ENERGY PREDICTED BY IDOCK:   -2.07 KCAL/MOL
REMARK 927      BINDING AFFINITY PREDICTED BY RF-SCORE:    0.00 PKD
ROOT
HETATM    1  C   UNL     1     -12.980   7.122  71.466  1.00  0.00    -0.431 C  
HETATM    2  C   UNL     1     -11.561   7.161  70.867  1.00  0.00    -0.311 C  
HETATM    3  C   UNL     1     -10.917   8.705  70.796  1.00  0.00    -0.245 C  
HETATM    4  N   UNL     1     -11.649   6.613  69.482  1.00  0.00    -0.640 NA 
HETATM    5  C   UNL     1     -10.747   6.131  71.698  1.00  0.00    -0.294 C  
HETATM    6  H2  UNL     1     -12.339   7.095  68.906  1.00  0.00     0.000 HD 
HETATM    7  N   UNL     1     -11.186   9.465  69.651  1.00  0.00    -0.416 N  
HETATM    8  H1  UNL     1     -10.709   6.639  69.086  1.00  0.00     0.000 HD 
HETATM    9  O   UNL     1     -10.268   9.173  71.730  1.00  0.00    -0.338 OA 
HETATM   10  H   UNL     1     -11.607   8.913  68.904  1.00  0.00     0.000 HD 
ENDROOT
BRANCH   7  11
HETATM   11  C   UNL     1     -10.988  10.970  69.253  1.00  0.00    -0.252 C  
BRANCH  11  12
HETATM   12  C   UNL     1     -12.134  12.084  69.306  1.00  0.00    -0.249 C  
BRANCH  12  13
HETATM   13  C   UNL     1     -11.788  13.579  69.772  1.00  0.00    -0.395 A  
HETATM   14  C   UNL     1     -10.953  14.502  69.170  1.00  0.00    -0.268 A  
HETATM   15  C   UNL     1     -13.451  14.889  73.063  1.00  0.00    -0.496 A  
HETATM   16  C   UNL     1     -12.626  15.995  73.240  1.00  0.00    -0.649 A  
HETATM   17  C   UNL     1     -11.680  16.317  72.268  1.00  0.00    -0.530 A  
HETATM   18  N   UNL     1     -10.803  15.615  69.998  1.00  0.00    -0.304 NA 
HETATM   19  C   UNL     1     -13.293  14.038  71.948  1.00  0.00    -0.489 A  
HETATM   20  C   UNL     1     -12.295  14.293  70.970  1.00  0.00    -0.431 A  
HETATM   21  C   UNL     1     -11.564  15.471  71.133  1.00  0.00    -0.397 A  
HETATM   22  H   UNL     1     -10.213  16.419  69.790  1.00  0.00     0.000 HD 
ENDBRANCH  12  13
ENDBRANCH  11  12
BRANCH  11  23
HETATM   23  C   UNL     1     -10.142  10.985  67.951  1.00  0.00    -0.178 C  
HETATM   24  N   UNL     1     -10.485  10.084  66.962  1.00  0.00    -0.245 N  
HETATM   25  H   UNL     1     -11.345   9.543  67.046  1.00  0.00     0.000 HD 
HETATM   26  O   UNL     1      -9.154  11.720  67.860  1.00  0.00    -0.167 OA 
BRANCH  24  27
HETATM   27  C   UNL     1      -9.632   9.904  65.810  1.00  0.00    -0.250 C  
BRANCH  27  28
HETATM   28  N   UNL     1      -9.417   8.494  65.611  1.00  0.00    -0.445 N  
HETATM   29  O   UNL     1      -8.875   8.037  67.811  1.00  0.00    -0.126 OA 
HETATM   30  C   UNL     1      -9.053   7.676  66.657  1.00  0.00    -0.164 C  
HETATM   31  H   UNL     1      -9.537   8.095  64.680  1.00  0.00     0.000 HD 
ENDBRANCH  27  28
BRANCH  27  32
HETATM   32  C   UNL     1      -9.961  10.699  64.528  1.00  0.00    -0.410 C  
BRANCH  32  33
HETATM   33  C   UNL     1     -10.770  11.977  64.379  1.00  0.00    -0.369 A  
HETATM   34  C   UNL     1     -11.820  14.025  64.273  1.00  0.00    -0.410 A  
HETATM   35  H   UNL     1     -13.496  13.272  63.222  1.00  0.00     0.000 HD 
HETATM   36  C   UNL     1     -12.085  15.396  64.424  1.00  0.00    -0.205 A  
HETATM   37  C   UNL     1     -11.987  11.874  63.710  1.00  0.00    -0.445 A  
HETATM   38  C   UNL     1     -11.157  16.158  65.124  1.00  0.00    -0.256 A  
HETATM   39  N   UNL     1     -12.593  13.088  63.658  1.00  0.00    -0.731 NA 
HETATM   40  C   UNL     1     -10.015  15.558  65.653  1.00  0.00    -0.394 A  
HETATM   41  C   UNL     1      -9.759  14.181  65.480  1.00  0.00    -0.166 A  
HETATM   42  C   UNL     1     -10.672  13.375  64.767  1.00  0.00    -0.403 A  
ENDBRANCH  32  33
ENDBRANCH  27  32
ENDBRANCH  24  27
ENDBRANCH  11  23
ENDBRANCH   7  11
TORSDOF 8
ENDMDL
MODEL        4
REMARK 921   NORMALIZED FREE ENERGY PREDICTED BY IDOCK:   -8.23 KCAL/MOL
REMARK 922        TOTAL FREE ENERGY PREDICTED BY IDOCK:  -14.22 KCAL/MOL
REMARK 923 INTER-LIGAND FREE ENERGY PREDICTED BY IDOCK:  -12.60 KCAL/MOL
REMARK 924 INTRA-LIGAND FREE ENERGY PREDICTED BY IDOCK:   -1.62 KCAL/MOL
REMARK 927      BINDING AFFINITY PREDICTED BY RF-SCORE:    0.00 PKD
ROOT
HETATM    1  C   UNL     1     -10.344   7.907  73.014  1.00  0.00    -0.401 C  
HETATM    2  C   UNL     1     -11.589   7.771  72.115  1.00  0.00    -0.317 C  
HETATM    3  C   UNL     1     -11.406   8.504  70.621  1.00  0.00    -0.241 C  
HETATM    4  N   UNL     1     -12.725   8.418  72.832  1.00  0.00    -0.667 NA 
HETATM    5  C   UNL     1     -11.897   6.248  72.085  1.00  0.00    -0.365 C  
HETATM    6  H2  UNL     1     -12.530   9.383  73.101  1.00  0.00     0.000 HD 
HETATM    7  N   UNL     1     -11.749   9.857  70.519  1.00  0.00    -0.286 N  
HETATM    8  H1  UNL     1     -13.549   8.328  72.237  1.00  0.00     0.000 HD 
HETATM    9  O   UNL     1     -10.949   7.890  69.657  1.00  0.00    -0.214 OA 
HETATM   10  H   UNL     1     -12.242  10.200  71.343  1.00  0.00     0.000 HD 
ENDROOT
BRANCH   7  11
HETATM   11  C   UNL     1     -11.548  10.968  69.429  1.00  0.00    -0.312 C  
BRANCH  11  12
HETATM   12  C   UNL     1     -10.247  11.117  68.510  1.00  0.00    -0.209 C  
BRANCH  12  13
HETATM   13  C   UNL     1     -10.326  10.805  66.939  1.00  0.00    -0.290 A  
HETATM   14  C   UNL     1      -9.764   9.756  66.236  1.00  0.00    -0.234 A  
HETATM   15  C   UNL     1     -12.327  13.302  64.687  1.00  0.00    -0.447 A  
HETATM   16  C   UNL     1     -11.835  12.857  63.463  1.00  0.00    -0.605 A  
HETATM   17  C   UNL     1     -10.998  11.743  63.416  1.00  0.00    -0.458 A  
HETATM   18  N   UNL     1      -9.933   9.960  64.867  1.00  0.00    -0.399 NA 
HETATM   19  C   UNL     1     -11.929  12.689  65.894  1.00  0.00    -0.497 A  
HETATM   20  C   UNL     1     -11.024  11.595  65.894  1.00  0.00    -0.334 A  
HETATM   21  C   UNL     1     -10.642  11.115  64.640  1.00  0.00    -0.318 A  
HETATM   22  H   UNL     1      -9.580   9.341  64.138  1.00  0.00     0.000 HD 
ENDBRANCH  12  13
ENDBRANCH  11  12
BRANCH  11  23
HETATM   23  C   UNL     1     -12.051  12.301  70.044  1.00  0.00    -0.273 C  
HETATM   24  N   UNL     1     -11.634  13.473  69.445  1.00  0.00    -0.297 N  
HETATM   25  H   UNL     1     -11.136  13.438  68.555  1.00  0.00     0.000 HD 
HETATM   26  O   UNL     1     -12.725  12.294  71.079  1.00  0.00    -0.328 OA 
BRANCH  24  27
HETATM   27  C   UNL     1     -11.899  14.749  70.069  1.00  0.00    -0.311 C  
BRANCH  27  28
HETATM   28  N   UNL     1     -11.217  14.792  71.337  1.00  0.00    -0.532 N  
HETATM   29  O   UNL     1     -12.870  15.970  72.442  1.00  0.00    -0.448 OA 
HETATM   30  C   UNL     1     -11.783  15.411  72.428  1.00  0.00    -0.466 C  
HETATM   31  H   UNL     1     -10.299  14.356  71.428  1.00  0.00     0.000 HD 
ENDBRANCH  27  28
BRANCH  27  32
HETATM   32  C   UNL     1     -11.758  16.025  69.212  1.00  0.00    -0.302 C  
BRANCH  32  33
HETATM   33  C   UNL     1     -10.521  16.583  68.528  1.00  0.00    -0.302 A  
HETATM   34  C   UNL     1      -8.779  17.619  67.432  1.00  0.00    -0.234 A  
HETATM   35  H   UNL     1      -7.409  16.056  67.832  1.00  0.00     0.000 HD 
HETATM   36  C   UNL     1      -8.036  18.564  66.707  1.00  0.00    -0.265 A  
HETATM   37  C   UNL     1      -9.368  15.804  68.584  1.00  0.00    -0.206 A  
HETATM   38  C   UNL     1      -8.698  19.703  66.266  1.00  0.00    -0.401 A  
HETATM   39  N   UNL     1      -8.353  16.427  67.932  1.00  0.00    -0.169 NA 
HETATM   40  C   UNL     1     -10.053  19.877  66.541  1.00  0.00    -0.607 A  
HETATM   41  C   UNL     1     -10.782  18.922  67.283  1.00  0.00    -0.523 A  
HETATM   42  C   UNL     1     -10.143  17.756  67.757  1.00  0.00    -0.345 A  
ENDBRANCH  32  33
ENDBRANCH  27  32
ENDBRANCH  24  27
ENDBRANCH  11  23
ENDBRANCH   7  11
TORSDOF 8
ENDMDL
MODEL        5
REMARK 921   NORMALIZED FREE ENERGY PREDICTED BY IDOCK:   -8.21 KCAL/MOL
REMARK 922        TOTAL FREE ENERGY PREDICTED BY IDOCK:  -14.19 KCAL/MOL
REMARK 923 INTER-LIGAND FREE ENERGY PREDICTED BY IDOCK:  -12.06 KCAL/MOL
REMARK 924 INTRA-LIGAND FREE ENERGY PREDICTED BY IDOCK:   -2.13 KCAL/MOL
REMARK 927      BINDING AFFINITY PREDICTED BY RF-SCORE:    0.00 PKD
ROOT
HETATM    1  C   UNL     1     -11.662  15.482  72.321  1.00  0.00    -0.578 C  
HETATM    2  C   UNL     1     -12.812  14.710  71.645  1.00  0.00    -0.332 C  
HETATM    3  C   UNL     1     -12.316  13.817  70.319  1.00  0.00    -0.337 C  
HETATM    4  N   UNL     1     -13.818  15.717  71.199  1.00  0.00    -0.724 NA 
HETATM    5  C   UNL     1     -13.478  13.900  72.792  1.00  0.00    -0.547 C  
HETATM    6  H2  UNL     1     -13.420  16.442  70.602  1.00  0.00     0.000 HD 
HETATM    7  N   UNL     1     -12.307  14.459  69.075  1.00  0.00    -0.566 N  
HETATM    8  H1  UNL     1     -14.580  15.205  70.752  1.00  0.00     0.000 HD 
HETATM    9  O   UNL     1     -11.934  12.653  70.436  1.00  0.00    -0.338 OA 
HETATM   10  H   UNL     1     -12.778  15.363  69.097  1.00  0.00     0.000 HD 
ENDROOT
BRANCH   7  11
HETATM   11  C   UNL     1     -11.740  14.106  67.655  1.00  0.00    -0.387 C  
BRANCH  11  12
HETATM   12  C   UNL     1     -12.111  12.789  66.828  1.00  0.00    -0.290 C  
BRANCH  12  13
HETATM   13  C   UNL     1     -11.453  12.524  65.389  1.00  0.00    -0.383 A  
HETATM   14  C   UNL     1     -11.690  13.180  64.196  1.00  0.00    -0.418 A  
HETATM   15  C   UNL     1      -8.832   9.634  65.092  1.00  0.00    -0.215 A  
HETATM   16  C   UNL     1      -8.829   9.551  63.702  1.00  0.00    -0.236 A  
HETATM   17  C   UNL     1      -9.561  10.471  62.952  1.00  0.00    -0.355 A  
HETATM   18  N   UNL     1     -11.036  12.520  63.156  1.00  0.00    -0.715 NA 
HETATM   19  C   UNL     1      -9.628  10.589  65.759  1.00  0.00    -0.260 A  
HETATM   20  C   UNL     1     -10.441  11.499  65.032  1.00  0.00    -0.344 A  
HETATM   21  C   UNL     1     -10.324  11.450  63.642  1.00  0.00    -0.410 A  
HETATM   22  H   UNL     1     -11.081  12.792  62.174  1.00  0.00     0.000 HD 
ENDBRANCH  12  13
ENDBRANCH  11  12
BRANCH  11  23
HETATM   23  C   UNL     1     -10.224  14.441  67.678  1.00  0.00    -0.229 C  
HETATM   24  N   UNL     1      -9.482  13.944  68.732  1.00  0.00    -0.385 N  
HETATM   25  H   UNL     1      -9.902  13.273  69.375  1.00  0.00     0.000 HD 
HETATM   26  O   UNL     1      -9.740  15.193  66.828  1.00  0.00    -0.227 OA 
BRANCH  24  27
HETATM   27  C   UNL     1      -8.115  14.369  68.928  1.00  0.00    -0.095 C  
BRANCH  27  28
HETATM   28  N   UNL     1      -7.366  14.080  67.733  1.00  0.00    -0.150 N  
HETATM   29  O   UNL     1      -7.177  11.811  68.129  1.00  0.00    -0.076 OA 
HETATM   30  C   UNL     1      -6.962  12.797  67.440  1.00  0.00    -0.129 C  
HETATM   31  H   UNL     1      -7.132  14.838  67.092  1.00  0.00     0.000 HD 
ENDBRANCH  27  28
BRANCH  27  32
HETATM   32  C   UNL     1      -7.866  15.769  69.530  1.00  0.00    -0.151 C  
BRANCH  32  33
HETATM   33  C   UNL     1      -7.795  17.112  68.823  1.00  0.00    -0.258 A  
HETATM   34  C   UNL     1      -7.926  19.157  67.769  1.00  0.00    -0.273 A  
HETATM   35  H   UNL     1      -5.834  19.304  67.482  1.00  0.00     0.000 HD 
HETATM   36  C   UNL     1      -8.443  20.339  67.214  1.00  0.00    -0.415 A  
HETATM   37  C   UNL     1      -6.528  17.565  68.463  1.00  0.00    -0.186 A  
HETATM   38  C   UNL     1      -9.823  20.505  67.224  1.00  0.00    -0.581 A  
HETATM   39  N   UNL     1      -6.624  18.769  67.842  1.00  0.00    -0.212 NA 
HETATM   40  C   UNL     1     -10.644  19.517  67.767  1.00  0.00    -0.542 A  
HETATM   41  C   UNL     1     -10.106  18.341  68.332  1.00  0.00    -0.412 A  
HETATM   42  C   UNL     1      -8.708  18.140  68.350  1.00  0.00    -0.302 A  
ENDBRANCH  32  33
ENDBRANCH  27  32
ENDBRANCH  24  27
ENDBRANCH  11  23
ENDBRANCH   7  11
TORSDOF 8
ENDMDL
MODEL        6
REMARK 921   NORMALIZED FREE ENERGY PREDICTED BY IDOCK:   -8.17 KCAL/MOL
REMARK 922        TOTAL FREE ENERGY PREDICTED BY IDOCK:  -14.13 KCAL/MOL
REMARK 923 INTER-LIGAND FREE ENERGY PREDICTED BY IDOCK:  -11.94 KCAL/MOL
REMARK 924 INTRA-LIGAND FREE ENERGY PREDICTED BY IDOCK:   -2.18 KCAL/MOL
REMARK 927      BINDING AFFINITY PREDICTED BY RF-SCORE:    0.00 PKD
ROOT
HETATM    1  C   UNL     1      -9.337   5.102  65.462  1.00  0.00    -0.125 C  
HETATM    2  C   UNL     1      -8.666   6.071  66.455  1.00  0.00    -0.133 C  
HETATM    3  C   UNL     1      -9.582   7.438  66.763  1.00  0.00    -0.192 C  
HETATM    4  N   UNL     1      -7.366   6.489  65.855  1.00  0.00    -0.078 NA 
HETATM    5  C   UNL     1      -8.320   5.199  67.693  1.00  0.00    -0.105 C  
HETATM    6  H2  UNL     1      -7.467   6.883  64.919  1.00  0.00     0.000 HD 
HETATM    7  N   UNL     1      -9.411   8.536  65.912  1.00  0.00    -0.411 N  
HETATM    8  H1  UNL     1      -6.922   7.131  66.512  1.00  0.00     0.000 HD 
HETATM    9  O   UNL     1     -10.406   7.464  67.677  1.00  0.00    -0.195 OA 
HETATM   10  H   UNL     1      -8.606   8.433  65.295  1.00  0.00     0.000 HD 
ENDROOT
BRANCH   7  11
HETATM   11  C   UNL     1     -10.174   9.889  65.689  1.00  0.00    -0.159 C  
BRANCH  11  12
HETATM   12  C   UNL     1      -9.920  10.886  64.464  1.00  0.00    -0.376 C  
BRANCH  12  13
HETATM   13  C   UNL     1     -10.852  12.175  64.263  1.00  0.00    -0.388 A  
HETATM   14  C   UNL     1     -12.006  12.300  63.513  1.00  0.00    -0.533 A  
HETATM   15  C   UNL     1      -9.797  15.482  66.070  1.00  0.00    -0.364 A  
HETATM   16  C   UNL     1     -10.627  16.338  65.352  1.00  0.00    -0.371 A  
HETATM   17  C   UNL     1     -11.534  15.815  64.432  1.00  0.00    -0.268 A  
HETATM   18  N   UNL     1     -12.403  13.636  63.474  1.00  0.00    -0.962 NA 
HETATM   19  C   UNL     1      -9.803  14.093  65.823  1.00  0.00    -0.297 A  
HETATM   20  C   UNL     1     -10.663  13.527  64.845  1.00  0.00    -0.391 A  
HETATM   21  C   UNL     1     -11.553  14.408  64.229  1.00  0.00    -0.262 A  
HETATM   22  H   UNL     1     -13.209  13.990  62.960  1.00  0.00     0.000 HD 
ENDBRANCH  12  13
ENDBRANCH  11  12
BRANCH  11  23
HETATM   23  C   UNL     1     -10.267  10.588  67.072  1.00  0.00    -0.226 C  
HETATM   24  N   UNL     1     -11.496  10.582  67.703  1.00  0.00    -0.330 N  
HETATM   25  H   UNL     1     -12.256  10.016  67.326  1.00  0.00     0.000 HD 
HETATM   26  O   UNL     1      -9.294  11.193  67.531  1.00  0.00    -0.165 OA 
BRANCH  24  27
HETATM   27  C   UNL     1     -11.711  11.373  68.893  1.00  0.00    -0.343 C  
BRANCH  27  28
HETATM   28  N   UNL     1     -10.696  11.038  69.858  1.00  0.00    -0.463 N  
HETATM   29  O   UNL     1     -11.713   9.098  70.593  1.00  0.00    -0.271 OA 
HETATM   30  C   UNL     1     -10.796   9.904  70.632  1.00  0.00    -0.330 C  
HETATM   31  H   UNL     1      -9.889  11.652  69.970  1.00  0.00     0.000 HD 
ENDBRANCH  27  28
BRANCH  27  32
HETATM   32  C   UNL     1     -11.978  12.884  68.726  1.00  0.00    -0.290 C  
BRANCH  32  33
HETATM   33  C   UNL     1     -11.750  14.008  69.723  1.00  0.00    -0.375 A  
HETATM   34  C   UNL     1     -11.575  15.612  71.368  1.00  0.00    -0.433 A  
HETATM   35  H   UNL     1     -10.044  16.677  70.367  1.00  0.00     0.000 HD 
HETATM   36  C   UNL     1     -11.788  16.331  72.555  1.00  0.00    -0.608 A  
HETATM   37  C   UNL     1     -10.773  14.946  69.398  1.00  0.00    -0.256 A  
HETATM   38  C   UNL     1     -12.785  15.879  73.412  1.00  0.00    -0.676 A  
HETATM   39  N   UNL     1     -10.684  15.884  70.376  1.00  0.00    -0.298 NA 
HETATM   40  C   UNL     1     -13.535  14.752  73.081  1.00  0.00    -0.350 A  
HETATM   41  C   UNL     1     -13.298  14.034  71.889  1.00  0.00    -0.489 A  
HETATM   42  C   UNL     1     -12.289  14.456  70.997  1.00  0.00    -0.427 A  
ENDBRANCH  32  33
ENDBRANCH  27  32
ENDBRANCH  24  27
ENDBRANCH  11  23
ENDBRANCH   7  11
TORSDOF 8
ENDMDL
MODEL        7
REMARK 921   NORMALIZED FREE ENERGY PREDICTED BY IDOCK:   -8.15 KCAL/MOL
REMARK 922        TOTAL FREE ENERGY PREDICTED BY IDOCK:  -14.10 KCAL/MOL
REMARK 923 INTER-LIGAND FREE ENERGY PREDICTED BY IDOCK:  -11.53 KCAL/MOL
REMARK 924 INTRA-LIGAND FREE ENERGY PREDICTED BY IDOCK:   -2.56 KCAL/MOL
REMARK 927      BINDING AFFINITY PREDICTED BY RF-SCORE:    0.00 PKD
ROOT
HETATM    1  C   UNL     1      -8.276  18.355  66.406  1.00  0.00    -0.280 C  
HETATM    2  C   UNL     1      -9.740  18.709  66.728  1.00  0.00    -0.329 C  
HETATM    3  C   UNL     1     -10.398  17.756  67.937  1.00  0.00    -0.386 C  
HETATM    4  N   UNL     1     -10.529  18.511  65.477  1.00  0.00    -0.554 NA 
HETATM    5  C   UNL     1      -9.731  20.238  67.006  1.00  0.00    -0.598 C  
HETATM    6  H2  UNL     1     -10.422  17.577  65.081  1.00  0.00     0.000 HD 
HETATM    7  N   UNL     1     -11.002  16.553  67.554  1.00  0.00    -0.229 N  
HETATM    8  H1  UNL     1     -11.498  18.746  65.691  1.00  0.00     0.000 HD 
HETATM    9  O   UNL     1     -10.319  18.078  69.122  1.00  0.00    -0.322 OA 
HETATM   10  H   UNL     1     -11.124  16.478  66.545  1.00  0.00     0.000 HD 
ENDROOT
BRANCH   7  11
HETATM   11  C   UNL     1     -11.534  15.291  68.322  1.00  0.00    -0.347 C  
BRANCH  11  12
HETATM   12  C   UNL     1     -11.177  14.931  69.839  1.00  0.00    -0.307 C  
BRANCH  12  13
HETATM   13  C   UNL     1     -12.174  14.027  70.712  1.00  0.00    -0.438 A  
HETATM   14  C   UNL     1     -13.118  14.429  71.638  1.00  0.00    -0.350 A  
HETATM   15  C   UNL     1     -11.971  10.145  70.267  1.00  0.00    -0.315 A  
HETATM   16  C   UNL     1     -12.695   9.807  71.406  1.00  0.00    -0.483 A  
HETATM   17  C   UNL     1     -13.286  10.809  72.175  1.00  0.00    -0.360 A  
HETATM   18  N   UNL     1     -13.643  13.314  72.291  1.00  0.00    -0.581 NA 
HETATM   19  C   UNL     1     -11.758  11.496  69.918  1.00  0.00    -0.420 A  
HETATM   20  C   UNL     1     -12.286  12.548  70.713  1.00  0.00    -0.376 A  
HETATM   21  C   UNL     1     -13.094  12.161  71.783  1.00  0.00    -0.352 A  
HETATM   22  H   UNL     1     -14.336  13.349  73.038  1.00  0.00     0.000 HD 
ENDBRANCH  12  13
ENDBRANCH  11  12
BRANCH  11  23
HETATM   23  C   UNL     1     -11.437  14.092  67.341  1.00  0.00    -0.348 C  
HETATM   24  N   UNL     1     -10.219  13.447  67.246  1.00  0.00    -0.240 N  
HETATM   25  H   UNL     1      -9.473  13.675  67.904  1.00  0.00     0.000 HD 
HETATM   26  O   UNL     1     -12.396  13.798  66.621  1.00  0.00    -0.418 OA 
BRANCH  24  27
HETATM   27  C   UNL     1      -9.995  12.454  66.222  1.00  0.00    -0.246 C  
BRANCH  27  28
HETATM   28  N   UNL     1      -9.853  13.123  64.954  1.00  0.00    -0.560 N  
HETATM   29  O   UNL     1     -11.239  11.689  63.786  1.00  0.00    -0.388 OA 
HETATM   30  C   UNL     1     -10.507  12.666  63.832  1.00  0.00    -0.411 C  
HETATM   31  H   UNL     1      -9.258  13.948  64.886  1.00  0.00     0.000 HD 
ENDBRANCH  27  28
BRANCH  27  32
HETATM   32  C   UNL     1      -8.954  11.346  66.494  1.00  0.00    -0.192 C  
BRANCH  32  33
HETATM   33  C   UNL     1      -8.931  10.312  67.607  1.00  0.00    -0.137 A  
HETATM   34  C   UNL     1      -9.050   8.617  69.163  1.00  0.00    -0.142 A  
HETATM   35  H   UNL     1      -7.703   9.555  70.500  1.00  0.00     0.000 HD 
HETATM   36  C   UNL     1      -9.398   7.414  69.798  1.00  0.00    -0.146 A  
HETATM   37  C   UNL     1      -8.119  10.590  68.704  1.00  0.00    -0.127 A  
HETATM   38  C   UNL     1     -10.318   6.591  69.159  1.00  0.00    -0.226 A  
HETATM   39  N   UNL     1      -8.203   9.583  69.611  1.00  0.00    -0.125 NA 
HETATM   40  C   UNL     1     -10.866   6.971  67.935  1.00  0.00    -0.252 A  
HETATM   41  C   UNL     1     -10.494   8.178  67.305  1.00  0.00    -0.379 A  
HETATM   42  C   UNL     1      -9.556   9.037  67.917  1.00  0.00    -0.170 A  
ENDBRANCH  32  33
ENDBRANCH  27  32
ENDBRANCH  24  27
ENDBRANCH  11  23
ENDBRANCH   7  11
TORSDOF 8
ENDMDL
MODEL        8
REMARK 921   NORMALIZED FREE ENERGY PREDICTED BY IDOCK:   -8.12 KCAL/MOL
REMARK 922        TOTAL FREE ENERGY PREDICTED BY IDOCK:  -14.06 KCAL/MOL
REMARK 923 INTER-LIGAND FREE ENERGY PREDICTED BY IDOCK:  -12.22 KCAL/MOL
REMARK 924 INTRA-LIGAND FREE ENERGY PREDICTED BY IDOCK:   -1.84 KCAL/MOL
REMARK 927      BINDING AFFINITY PREDICTED BY RF-SCORE:    0.00 PKD
ROOT
HETATM    1  C   UNL     1     -10.162  12.281  64.876  1.00  0.00    -0.307 C  
HETATM    2  C   UNL     1     -11.425  13.153  65.010  1.00  0.00    -0.308 C  
HETATM    3  C   UNL     1     -11.110  14.679  65.621  1.00  0.00    -0.338 C  
HETATM    4  N   UNL     1     -12.355  12.446  65.937  1.00  0.00    -0.577 NA 
HETATM    5  C   UNL     1     -12.089  13.114  63.605  1.00  0.00    -0.583 C  
HETATM    6  H2  UNL     1     -11.928  12.222  66.837  1.00  0.00     0.000 HD 
HETATM    7  N   UNL     1     -11.122  14.833  67.012  1.00  0.00    -0.325 N  
HETATM    8  H1  UNL     1     -13.191  13.024  66.026  1.00  0.00     0.000 HD 
HETATM    9  O   UNL     1     -10.838  15.623  64.880  1.00  0.00    -0.426 OA 
HETATM   10  H   UNL     1     -11.498  14.017  67.494  1.00  0.00     0.000 HD 
ENDROOT
BRANCH   7  11
HETATM   11  C   UNL     1     -10.688  15.973  68.001  1.00  0.00    -0.309 C  
BRANCH  11  12
HETATM   12  C   UNL     1      -9.234  16.636  68.044  1.00  0.00    -0.223 C  
BRANCH  12  13
HETATM   13  C   UNL     1      -9.009  18.131  67.508  1.00  0.00    -0.257 A  
HETATM   14  C   UNL     1      -9.730  18.825  66.554  1.00  0.00    -0.354 A  
HETATM   15  C   UNL     1      -6.027  20.172  69.007  1.00  0.00    -0.336 A  
HETATM   16  C   UNL     1      -6.010  21.177  68.045  1.00  0.00    -0.393 A  
HETATM   17  C   UNL     1      -6.994  21.208  67.057  1.00  0.00    -0.317 A  
HETATM   18  N   UNL     1      -9.092  20.031  66.265  1.00  0.00    -0.509 NA 
HETATM   19  C   UNL     1      -6.982  19.135  68.955  1.00  0.00    -0.371 A  
HETATM   20  C   UNL     1      -7.959  19.092  67.925  1.00  0.00    -0.318 A  
HETATM   21  C   UNL     1      -7.971  20.177  67.046  1.00  0.00    -0.323 A  
HETATM   22  H   UNL     1      -9.411  20.707  65.572  1.00  0.00     0.000 HD 
ENDBRANCH  12  13
ENDBRANCH  11  12
BRANCH  11  23
HETATM   23  C   UNL     1     -11.265  15.605  69.394  1.00  0.00    -0.313 C  
HETATM   24  N   UNL     1     -12.050  14.471  69.476  1.00  0.00    -0.393 N  
HETATM   25  H   UNL     1     -12.116  13.843  68.676  1.00  0.00     0.000 HD 
HETATM   26  O   UNL     1     -11.088  16.355  70.358  1.00  0.00    -0.356 OA 
BRANCH  24  27
HETATM   27  C   UNL     1     -12.777  14.172  70.688  1.00  0.00    -0.321 C  
BRANCH  27  28
HETATM   28  N   UNL     1     -13.860  15.111  70.820  1.00  0.00    -0.712 N  
HETATM   29  O   UNL     1     -13.564  15.480  73.083  1.00  0.00    -0.506 OA 
HETATM   30  C   UNL     1     -14.155  15.691  72.034  1.00  0.00    -0.419 C  
HETATM   31  H   UNL     1     -14.419  15.351  70.001  1.00  0.00     0.000 HD 
ENDBRANCH  27  28
BRANCH  27  32
HETATM   32  C   UNL     1     -13.152  12.701  70.969  1.00  0.00    -0.041 C  
BRANCH  32  33
HETATM   33  C   UNL     1     -12.327  11.445  70.741  1.00  0.00    -0.483 A  
HETATM   34  C   UNL     1     -10.963   9.662  70.220  1.00  0.00    -0.285 A  
HETATM   35  H   UNL     1     -11.799   8.405  71.703  1.00  0.00     0.000 HD 
HETATM   36  C   UNL     1      -9.976   8.876  69.604  1.00  0.00    -0.193 A  
HETATM   37  C   UNL     1     -12.599  10.357  71.566  1.00  0.00    -0.439 A  
HETATM   38  C   UNL     1      -9.273   9.437  68.545  1.00  0.00    -0.131 A  
HETATM   39  N   UNL     1     -11.789   9.316  71.244  1.00  0.00    -0.319 NA 
HETATM   40  C   UNL     1      -9.559  10.735  68.123  1.00  0.00    -0.167 A  
HETATM   41  C   UNL     1     -10.546  11.516  68.762  1.00  0.00    -0.241 A  
HETATM   42  C   UNL     1     -11.276  10.985  69.848  1.00  0.00    -0.327 A  
ENDBRANCH  32  33
ENDBRANCH  27  32
ENDBRANCH  24  27
ENDBRANCH  11  23
ENDBRANCH   7  11
TORSDOF 8
ENDMDL
MODEL        9
REMARK 921   NORMALIZED FREE ENERGY PREDICTED BY IDOCK:   -8.07 KCAL/MOL
REMARK 922        TOTAL FREE ENERGY PREDICTED BY IDOCK:  -13.99 KCAL/MOL
REMARK 923 INTER-LIGAND FREE ENERGY PREDICTED BY IDOCK:  -12.61 KCAL/MOL
REMARK 924 INTRA-LIGAND FREE ENERGY PREDICTED BY IDOCK:   -1.39 KCAL/MOL
REMARK 927      BINDING AFFINITY PREDICTED BY RF-SCORE:    0.00 PKD
ROOT
HETATM    1  C   UNL     1     -12.911  13.205  65.318  1.00  0.00    -0.332 C  
HETATM    2  C   UNL     1     -11.749  13.723  64.448  1.00  0.00    -0.408 C  
HETATM    3  C   UNL     1     -10.476  14.337  65.345  1.00  0.00    -0.365 C  
HETATM    4  N   UNL     1     -12.294  14.808  63.582  1.00  0.00    -1.067 NA 
HETATM    5  C   UNL     1     -11.398  12.540  63.504  1.00  0.00    -0.556 C  
HETATM    6  H2  UNL     1     -12.756  15.548  64.112  1.00  0.00     0.000 HD 
HETATM    7  N   UNL     1     -10.528  15.691  65.697  1.00  0.00    -0.357 N  
HETATM    8  H1  UNL     1     -11.525  15.150  63.006  1.00  0.00     0.000 HD 
HETATM    9  O   UNL     1      -9.550  13.619  65.719  1.00  0.00    -0.191 OA 
HETATM   10  H   UNL     1     -11.267  16.195  65.208  1.00  0.00     0.000 HD 
ENDROOT
BRANCH   7  11
HETATM   11  C   UNL     1      -9.710  16.611  66.671  1.00  0.00    -0.266 C  
BRANCH  11  12
HETATM   12  C   UNL     1      -8.197  17.069  66.434  1.00  0.00    -0.326 C  
BRANCH  12  13
HETATM   13  C   UNL     1      -7.764  18.594  66.682  1.00  0.00    -0.265 A  
HETATM   14  C   UNL     1      -7.983  19.696  65.878  1.00  0.00    -0.258 A  
HETATM   15  C   UNL     1      -5.789  19.414  69.958  1.00  0.00    -0.292 A  
HETATM   16  C   UNL     1      -5.346  20.677  69.576  1.00  0.00    -0.378 A  
HETATM   17  C   UNL     1      -5.781  21.229  68.372  1.00  0.00    -0.291 A  
HETATM   18  N   UNL     1      -7.291  20.796  66.385  1.00  0.00    -0.514 NA 
HETATM   19  C   UNL     1      -6.611  18.647  69.106  1.00  0.00    -0.289 A  
HETATM   20  C   UNL     1      -7.021  19.145  67.841  1.00  0.00    -0.254 A  
HETATM   21  C   UNL     1      -6.643  20.457  67.548  1.00  0.00    -0.252 A  
HETATM   22  H   UNL     1      -7.269  21.720  65.954  1.00  0.00     0.000 HD 
ENDBRANCH  12  13
ENDBRANCH  11  12
BRANCH  11  23
HETATM   23  C   UNL     1     -10.011  16.122  68.113  1.00  0.00    -0.230 C  
HETATM   24  N   UNL     1     -10.963  15.132  68.261  1.00  0.00    -0.265 N  
HETATM   25  H   UNL     1     -11.333  14.659  67.438  1.00  0.00     0.000 HD 
HETATM   26  O   UNL     1      -9.474  16.670  69.080  1.00  0.00    -0.252 OA 
BRANCH  24  27
HETATM   27  C   UNL     1     -11.436  14.763  69.576  1.00  0.00    -0.298 C  
BRANCH  27  28
HETATM   28  N   UNL     1     -11.963  15.937  70.222  1.00  0.00    -0.358 N  
HETATM   29  O   UNL     1     -11.442  15.265  72.371  1.00  0.00    -0.454 OA 
HETATM   30  C   UNL     1     -11.911  16.079  71.590  1.00  0.00    -0.499 C  
HETATM   31  H   UNL     1     -12.382  16.676  69.657  1.00  0.00     0.000 HD 
ENDBRANCH  27  28
BRANCH  27  32
HETATM   32  C   UNL     1     -12.311  13.499  69.708  1.00  0.00    -0.249 C  
BRANCH  32  33
HETATM   33  C   UNL     1     -11.879  12.057  69.922  1.00  0.00    -0.405 A  
HETATM   34  C   UNL     1     -11.402   9.856  70.407  1.00  0.00    -0.307 A  
HETATM   35  H   UNL     1      -9.776   9.761  69.055  1.00  0.00     0.000 HD 
HETATM   36  C   UNL     1     -11.466   8.573  70.973  1.00  0.00    -0.313 A  
HETATM   37  C   UNL     1     -10.795  11.610  69.172  1.00  0.00    -0.184 A  
HETATM   38  C   UNL     1     -12.434   8.345  71.945  1.00  0.00    -0.390 A  
HETATM   39  N   UNL     1     -10.526  10.313  69.471  1.00  0.00    -0.229 NA 
HETATM   40  C   UNL     1     -13.294   9.372  72.331  1.00  0.00    -0.503 A  
HETATM   41  C   UNL     1     -13.222  10.653  71.742  1.00  0.00    -0.526 A  
HETATM   42  C   UNL     1     -12.260  10.921  70.745  1.00  0.00    -0.483 A  
ENDBRANCH  32  33
ENDBRANCH  27  32
ENDBRANCH  24  27
ENDBRANCH  11  23
ENDBRANCH   7  11
TORSDOF 8
ENDMDL
MODEL       10
REMARK 921   NORMALIZED FREE ENERGY PREDICTED BY IDOCK:   -8.07 KCAL/MOL
REMARK 922        TOTAL FREE ENERGY PREDICTED BY IDOCK:  -13.99 KCAL/MOL
REMARK 923 INTER-LIGAND FREE ENERGY PREDICTED BY IDOCK:  -11.82 KCAL/MOL
REMARK 924 INTRA-LIGAND FREE ENERGY PREDICTED BY IDOCK:   -2.17 KCAL/MOL
REMARK 927      BINDING AFFINITY PREDICTED BY RF-SCORE:    0.00 PKD
ROOT
HETATM    1  C   UNL     1      -9.283   5.891  72.552  1.00  0.00    -0.140 C  
HETATM    2  C   UNL     1     -10.719   6.400  72.784  1.00  0.00    -0.239 C  
HETATM    3  C   UNL     1     -11.252   7.440  71.586  1.00  0.00    -0.247 C  
HETATM    4  N   UNL     1     -10.726   7.124  74.088  1.00  0.00    -0.541 NA 
HETATM    5  C   UNL     1     -11.570   5.116  72.989  1.00  0.00    -0.301 C  
HETATM    6  H2  UNL     1     -10.027   7.866  74.136  1.00  0.00     0.000 HD 
HETATM    7  N   UNL     1     -10.976   8.803  71.744  1.00  0.00    -0.320 N  
HETATM    8  H1  UNL     1     -11.677   7.461  74.242  1.00  0.00     0.000 HD 
HETATM    9  O   UNL     1     -11.827   7.021  70.582  1.00  0.00    -0.339 OA 
HETATM   10  H   UNL     1     -10.626   9.027  72.675  1.00  0.00     0.000 HD 
ENDROOT
BRANCH   7  11
HETATM   11  C   UNL     1     -11.081  10.066  70.818  1.00  0.00    -0.334 C  
BRANCH  11  12
HETATM   12  C   UNL     1     -12.412  10.926  70.599  1.00  0.00    -0.460 C  
BRANCH  12  13
HETATM   13  C   UNL     1     -12.319  12.496  70.286  1.00  0.00    -0.265 A  
HETATM   14  C   UNL     1     -12.108  13.125  69.073  1.00  0.00    -0.198 A  
HETATM   15  C   UNL     1     -12.696  14.976  73.289  1.00  0.00    -0.635 A  
HETATM   16  C   UNL     1     -12.208  16.105  72.638  1.00  0.00    -0.625 A  
HETATM   17  C   UNL     1     -11.897  16.042  71.280  1.00  0.00    -0.502 A  
HETATM   18  N   UNL     1     -11.925  14.493  69.276  1.00  0.00    -0.382 NA 
HETATM   19  C   UNL     1     -12.807  13.741  72.614  1.00  0.00    -0.311 A  
HETATM   20  C   UNL     1     -12.436  13.619  71.249  1.00  0.00    -0.412 A  
HETATM   21  C   UNL     1     -12.055  14.799  70.609  1.00  0.00    -0.310 A  
HETATM   22  H   UNL     1     -11.723  15.168  68.540  1.00  0.00     0.000 HD 
ENDBRANCH  12  13
ENDBRANCH  11  12
BRANCH  11  23
HETATM   23  C   UNL     1     -10.314   9.733  69.511  1.00  0.00    -0.230 C  
HETATM   24  N   UNL     1     -11.063   9.345  68.417  1.00  0.00    -0.478 N  
HETATM   25  H   UNL     1     -12.080   9.420  68.448  1.00  0.00     0.000 HD 
HETATM   26  O   UNL     1      -9.079   9.737  69.496  1.00  0.00    -0.185 OA 
BRANCH  24  27
HETATM   27  C   UNL     1     -10.416   8.835  67.231  1.00  0.00    -0.283 C  
BRANCH  27  28
HETATM   28  N   UNL     1     -10.963   7.538  66.928  1.00  0.00    -0.537 N  
HETATM   29  O   UNL     1      -9.702   6.392  68.490  1.00  0.00    -0.131 OA 
HETATM   30  C   UNL     1     -10.545   6.415  67.605  1.00  0.00    -0.274 C  
HETATM   31  H   UNL     1     -11.672   7.450  66.200  1.00  0.00     0.000 HD 
ENDBRANCH  27  28
BRANCH  27  32
HETATM   32  C   UNL     1     -10.268   9.778  66.017  1.00  0.00    -0.263 C  
BRANCH  32  33
HETATM   33  C   UNL     1     -10.140  11.293  65.997  1.00  0.00    -0.283 A  
HETATM   34  C   UNL     1     -10.151  13.592  65.839  1.00  0.00    -0.303 A  
HETATM   35  H   UNL     1      -8.356  13.818  66.938  1.00  0.00     0.000 HD 
HETATM   36  C   UNL     1     -10.538  14.903  65.520  1.00  0.00    -0.373 A  
HETATM   37  C   UNL     1      -9.038  11.838  66.650  1.00  0.00    -0.194 A  
HETATM   38  C   UNL     1     -11.685  15.067  64.753  1.00  0.00    -0.370 A  
HETATM   39  N   UNL     1      -9.058  13.192  66.545  1.00  0.00    -0.179 NA 
HETATM   40  C   UNL     1     -12.405  13.954  64.322  1.00  0.00    -0.390 A  
HETATM   41  C   UNL     1     -12.008  12.643  64.662  1.00  0.00    -0.463 A  
HETATM   42  C   UNL     1     -10.853  12.435  65.448  1.00  0.00    -0.320 A  
ENDBRANCH  32  33
ENDBRANCH  27  32
ENDBRANCH  24  27
ENDBRANCH  11  23
ENDBRANCH   7  11
TORSDOF 8
ENDMDL
MODEL       11
REMARK 921   NORMALIZED FREE ENERGY PREDICTED BY IDOCK:   -8.01 KCAL/MOL
REMARK 922        TOTAL FREE ENERGY PREDICTED BY IDOCK:  -13.89 KCAL/MOL
REMARK 923 INTER-LIGAND FREE ENERGY PREDICTED BY IDOCK:  -11.72 KCAL/MOL
REMARK 924 INTRA-LIGAND FREE ENERGY PREDICTED BY IDOCK:   -2.17 KCAL/MOL
REMARK 927      BINDING AFFINITY PREDICTED BY RF-SCORE:    0.00 PKD
ROOT
HETATM    1  C   UNL     1     -12.050  14.222  63.988  1.00  0.00    -0.350 C  
HETATM    2  C   UNL     1     -11.634  12.740  64.059  1.00  0.00    -0.424 C  
HETATM    3  C   UNL     1     -11.124  12.272  65.584  1.00  0.00    -0.317 C  
HETATM    4  N   UNL     1     -10.510  12.550  63.097  1.00  0.00    -0.560 NA 
HETATM    5  C   UNL     1     -12.845  11.956  63.484  1.00  0.00    -0.435 C  
HETATM    6  H2  UNL     1      -9.733  13.191  63.259  1.00  0.00     0.000 HD 
HETATM    7  N   UNL     1      -9.770  12.442  65.893  1.00  0.00    -0.303 N  
HETATM    8  H1  UNL     1     -10.235  11.568  63.145  1.00  0.00     0.000 HD 
HETATM    9  O   UNL     1     -11.916  11.833  66.418  1.00  0.00    -0.515 OA 
HETATM   10  H   UNL     1      -9.207  12.677  65.075  1.00  0.00     0.000 HD 
ENDROOT
BRANCH   7  11
HETATM   11  C   UNL     1      -8.918  12.354  67.208  1.00  0.00    -0.190 C  
BRANCH  11  12
HETATM   12  C   UNL     1      -8.774  11.044  68.114  1.00  0.00    -0.141 C  
BRANCH  12  13
HETATM   13  C   UNL     1      -9.303   9.628  67.579  1.00  0.00    -0.149 A  
HETATM   14  C   UNL     1      -9.462   9.201  66.273  1.00  0.00    -0.237 A  
HETATM   15  C   UNL     1     -10.341   6.951  70.237  1.00  0.00    -0.218 A  
HETATM   16  C   UNL     1     -11.027   6.107  69.368  1.00  0.00    -0.454 A  
HETATM   17  C   UNL     1     -11.028   6.374  67.999  1.00  0.00    -0.400 A  
HETATM   18  N   UNL     1     -10.110   7.966  66.256  1.00  0.00    -0.478 NA 
HETATM   19  C   UNL     1      -9.709   8.120  69.763  1.00  0.00    -0.173 A  
HETATM   20  C   UNL     1      -9.745   8.464  68.386  1.00  0.00    -0.168 A  
HETATM   21  C   UNL     1     -10.350   7.535  67.538  1.00  0.00    -0.252 A  
HETATM   22  H   UNL     1     -10.369   7.456  65.411  1.00  0.00     0.000 HD 
ENDBRANCH  12  13
ENDBRANCH  11  12
BRANCH  11  23
HETATM   23  C   UNL     1      -9.185  13.658  68.007  1.00  0.00    -0.197 C  
HETATM   24  N   UNL     1     -10.492  13.923  68.368  1.00  0.00    -0.242 N  
HETATM   25  H   UNL     1     -11.210  13.211  68.230  1.00  0.00     0.000 HD 
HETATM   26  O   UNL     1      -8.267  14.453  68.225  1.00  0.00    -0.134 OA 
BRANCH  24  27
HETATM   27  C   UNL     1     -10.848  15.201  68.940  1.00  0.00    -0.241 C  
BRANCH  27  28
HETATM   28  N   UNL     1     -11.066  16.140  67.869  1.00  0.00    -0.325 N  
HETATM   29  O   UNL     1      -9.884  17.871  68.844  1.00  0.00    -0.338 OA 
HETATM   30  C   UNL     1     -10.548  17.414  67.925  1.00  0.00    -0.383 C  
HETATM   31  H   UNL     1     -11.612  15.856  67.057  1.00  0.00     0.000 HD 
ENDBRANCH  27  28
BRANCH  27  32
HETATM   32  C   UNL     1     -11.912  15.230  70.057  1.00  0.00    -0.375 C  
BRANCH  32  33
HETATM   33  C   UNL     1     -12.503  14.070  70.842  1.00  0.00    -0.439 A  
HETATM   34  C   UNL     1     -13.283  12.166  71.879  1.00  0.00    -0.369 A  
HETATM   35  H   UNL     1     -14.391  13.237  73.330  1.00  0.00     0.000 HD 
HETATM   36  C   UNL     1     -13.504  10.815  72.191  1.00  0.00    -0.227 A  
HETATM   37  C   UNL     1     -13.321  14.394  71.921  1.00  0.00    -0.374 A  
HETATM   38  C   UNL     1     -12.921   9.859  71.368  1.00  0.00    -0.504 A  
HETATM   39  N   UNL     1     -13.773  13.262  72.519  1.00  0.00    -0.695 NA 
HETATM   40  C   UNL     1     -12.152  10.253  70.273  1.00  0.00    -0.330 A  
HETATM   41  C   UNL     1     -11.929  11.616  69.982  1.00  0.00    -0.429 A  
HETATM   42  C   UNL     1     -12.497  12.617  70.800  1.00  0.00    -0.357 A  
ENDBRANCH  32  33
ENDBRANCH  27  32
ENDBRANCH  24  27
ENDBRANCH  11  23
ENDBRANCH   7  11
TORSDOF 8
ENDMDL
MODEL       12
REMARK 921   NORMALIZED FREE ENERGY PREDICTED BY IDOCK:   -8.00 KCAL/MOL
REMARK 922        TOTAL FREE ENERGY PREDICTED BY IDOCK:  -13.88 KCAL/MOL
REMARK 923 INTER-LIGAND FREE ENERGY PREDICTED BY IDOCK:  -11.62 KCAL/MOL
REMARK 924 INTRA-LIGAND FREE ENERGY PREDICTED BY IDOCK:   -2.26 KCAL/MOL
REMARK 927      BINDING AFFINITY PREDICTED BY RF-SCORE:    0.00 PKD
ROOT
HETATM    1  C   UNL     1     -10.623  16.159  67.551  1.00  0.00    -0.314 C  
HETATM    2  C   UNL     1     -10.512  15.129  66.410  1.00  0.00    -0.297 C  
HETATM    3  C   UNL     1     -11.418  13.747  66.680  1.00  0.00    -0.345 C  
HETATM    4  N   UNL     1      -9.075  14.747  66.296  1.00  0.00    -0.468 NA 
HETATM    5  C   UNL     1     -10.862  15.921  65.120  1.00  0.00    -0.438 C  
HETATM    6  H2  UNL     1      -8.680  14.412  67.175  1.00  0.00     0.000 HD 
HETATM    7  N   UNL     1     -10.810  12.704  67.387  1.00  0.00    -0.238 N  
HETATM    8  H1  UNL     1      -9.002  14.065  65.540  1.00  0.00     0.000 HD 
HETATM    9  O   UNL     1     -12.588  13.664  66.308  1.00  0.00    -0.391 OA 
HETATM   10  H   UNL     1      -9.807  12.844  67.508  1.00  0.00     0.000 HD 
ENDROOT
BRANCH   7  11
HETATM   11  C   UNL     1     -11.316  11.368  68.037  1.00  0.00    -0.303 C  
BRANCH  11  12
HETATM   12  C   UNL     1     -11.118  10.971  69.574  1.00  0.00    -0.322 C  
BRANCH  12  13
HETATM   13  C   UNL     1     -12.108  11.553  70.694  1.00  0.00    -0.450 A  
HETATM   14  C   UNL     1     -12.833  10.866  71.649  1.00  0.00    -0.449 A  
HETATM   15  C   UNL     1     -12.642  15.427  70.813  1.00  0.00    -0.497 A  
HETATM   16  C   UNL     1     -13.771  15.417  71.626  1.00  0.00    -0.606 A  
HETATM   17  C   UNL     1     -14.225  14.215  72.168  1.00  0.00    -0.638 A  
HETATM   18  N   UNL     1     -13.697  11.741  72.307  1.00  0.00    -0.373 NA 
HETATM   19  C   UNL     1     -11.991  14.226  70.462  1.00  0.00    -0.402 A  
HETATM   20  C   UNL     1     -12.462  12.973  70.938  1.00  0.00    -0.396 A  
HETATM   21  C   UNL     1     -13.530  13.021  71.835  1.00  0.00    -0.408 A  
HETATM   22  H   UNL     1     -14.358  11.470  73.034  1.00  0.00     0.000 HD 
ENDBRANCH  12  13
ENDBRANCH  11  12
BRANCH  11  23
HETATM   23  C   UNL     1     -10.990  10.227  67.036  1.00  0.00    -0.119 C  
HETATM   24  N   UNL     1     -10.921   8.942  67.540  1.00  0.00    -0.449 N  
HETATM   25  H   UNL     1     -11.215   8.758  68.499  1.00  0.00     0.000 HD 
HETATM   26  O   UNL     1     -10.722  10.489  65.860  1.00  0.00    -0.122 OA 
BRANCH  24  27
HETATM   27  C   UNL     1     -10.436   7.859  66.716  1.00  0.00    -0.247 C  
BRANCH  27  28
HETATM   28  N   UNL     1      -9.097   8.170  66.287  1.00  0.00    -0.176 N  
HETATM   29  O   UNL     1      -8.234   8.430  68.416  1.00  0.00    -0.121 OA 
HETATM   30  C   UNL     1      -8.100   8.430  67.201  1.00  0.00    -0.104 C  
HETATM   31  H   UNL     1      -8.883   8.199  65.291  1.00  0.00     0.000 HD 
ENDBRANCH  27  28
BRANCH  27  32
HETATM   32  C   UNL     1     -10.640   6.414  67.218  1.00  0.00    -0.382 C  
BRANCH  32  33
HETATM   33  C   UNL     1     -10.444   5.853  68.617  1.00  0.00    -0.302 A  
HETATM   34  C   UNL     1     -10.307   5.167  70.812  1.00  0.00    -0.224 A  
HETATM   35  H   UNL     1      -8.884   3.654  70.400  1.00  0.00     0.000 HD 
HETATM   36  C   UNL     1     -10.530   5.074  72.195  1.00  0.00    -0.274 A  
HETATM   37  C   UNL     1      -9.546   4.797  68.749  1.00  0.00    -0.163 A  
HETATM   38  C   UNL     1     -11.408   5.987  72.768  1.00  0.00    -0.282 A  
HETATM   39  N   UNL     1      -9.475   4.407  70.048  1.00  0.00    -0.161 NA 
HETATM   40  C   UNL     1     -12.027   6.955  71.978  1.00  0.00    -0.342 A  
HETATM   41  C   UNL     1     -11.800   7.025  70.586  1.00  0.00    -0.377 A  
HETATM   42  C   UNL     1     -10.923   6.109  69.965  1.00  0.00    -0.441 A  
ENDBRANCH  32  33
ENDBRANCH  27  32
ENDBRANCH  24  27
ENDBRANCH  11  23
ENDBRANCH   7  11
TORSDOF 8
ENDMDL
MODEL       13
REMARK 921   NORMALIZED FREE ENERGY PREDICTED BY IDOCK:   -8.00 KCAL/MOL
REMARK 922        TOTAL FREE ENERGY PREDICTED BY IDOCK:  -13.88 KCAL/MOL
REMARK 923 INTER-LIGAND FREE ENERGY PREDICTED BY IDOCK:  -11.92 KCAL/MOL
REMARK 924 INTRA-LIGAND FREE ENERGY PREDICTED BY IDOCK:   -1.96 KCAL/MOL
REMARK 927      BINDING AFFINITY PREDICTED BY RF-SCORE:    0.00 PKD
ROOT
HETATM    1  C   UNL     1      -7.100   8.582  65.900  1.00  0.00    -0.076 C  
HETATM    2  C   UNL     1      -7.947   7.935  67.013  1.00  0.00    -0.112 C  
HETATM    3  C   UNL     1      -9.345   8.787  67.358  1.00  0.00    -0.137 C  
HETATM    4  N   UNL     1      -7.100   7.883  68.240  1.00  0.00    -0.085 NA 
HETATM    5  C   UNL     1      -8.150   6.463  66.556  1.00  0.00    -0.111 C  
HETATM    6  H2  UNL     1      -6.724   8.795  68.504  1.00  0.00     0.000 HD 
HETATM    7  N   UNL     1      -9.262   9.806  68.314  1.00  0.00    -0.129 N  
HETATM    8  H1  UNL     1      -7.661   7.455  68.977  1.00  0.00     0.000 HD 
HETATM    9  O   UNL     1     -10.399   8.558  66.765  1.00  0.00    -0.295 OA 
HETATM   10  H   UNL     1      -8.379   9.794  68.825  1.00  0.00     0.000 HD 
ENDROOT
BRANCH   7  11
HETATM   11  C   UNL     1     -10.215  10.962  68.783  1.00  0.00    -0.196 C  
BRANCH  11  12
HETATM   12  C   UNL     1     -11.774  10.787  69.091  1.00  0.00    -0.368 C  
BRANCH  12  13
HETATM   13  C   UNL     1     -12.409  11.404  70.428  1.00  0.00    -0.404 A  
HETATM   14  C   UNL     1     -12.918  10.741  71.529  1.00  0.00    -0.456 A  
HETATM   15  C   UNL     1     -12.628  15.301  70.708  1.00  0.00    -0.474 A  
HETATM   16  C   UNL     1     -13.516  15.343  71.779  1.00  0.00    -0.581 A  
HETATM   17  C   UNL     1     -13.901  14.160  72.408  1.00  0.00    -0.638 A  
HETATM   18  N   UNL     1     -13.527  11.654  72.390  1.00  0.00    -0.475 NA 
HETATM   19  C   UNL     1     -12.170  14.069  70.195  1.00  0.00    -0.425 A  
HETATM   20  C   UNL     1     -12.593  12.838  70.764  1.00  0.00    -0.308 A  
HETATM   21  C   UNL     1     -13.396  12.932  71.902  1.00  0.00    -0.435 A  
HETATM   22  H   UNL     1     -14.003  11.408  73.258  1.00  0.00     0.000 HD 
ENDBRANCH  12  13
ENDBRANCH  11  12
BRANCH  11  23
HETATM   23  C   UNL     1      -9.868  12.208  67.925  1.00  0.00    -0.199 C  
HETATM   24  N   UNL     1     -10.825  12.647  67.031  1.00  0.00    -0.249 N  
HETATM   25  H   UNL     1     -11.761  12.244  67.052  1.00  0.00     0.000 HD 
HETATM   26  O   UNL     1      -8.746  12.717  67.993  1.00  0.00    -0.178 OA 
BRANCH  24  27
HETATM   27  C   UNL     1     -10.506  13.674  66.066  1.00  0.00    -0.300 C  
BRANCH  27  28
HETATM   28  N   UNL     1     -10.726  13.148  64.743  1.00  0.00    -0.343 N  
HETATM   29  O   UNL     1     -12.989  12.772  65.022  1.00  0.00    -0.811 OA 
HETATM   30  C   UNL     1     -11.977  12.741  64.339  1.00  0.00    -0.399 C  
HETATM   31  H   UNL     1      -9.941  13.076  64.095  1.00  0.00     0.000 HD 
ENDBRANCH  27  28
BRANCH  27  32
HETATM   32  C   UNL     1     -11.063  15.095  66.301  1.00  0.00    -0.309 C  
BRANCH  32  33
HETATM   33  C   UNL     1     -10.437  16.249  67.067  1.00  0.00    -0.306 A  
HETATM   34  C   UNL     1      -9.567  18.143  68.051  1.00  0.00    -0.300 A  
HETATM   35  H   UNL     1      -8.775  17.091  69.708  1.00  0.00     0.000 HD 
HETATM   36  C   UNL     1      -9.227  19.484  68.288  1.00  0.00    -0.412 A  
HETATM   37  C   UNL     1      -9.798  15.935  68.263  1.00  0.00    -0.217 A  
HETATM   38  C   UNL     1      -9.591  20.420  67.327  1.00  0.00    -0.592 A  
HETATM   39  N   UNL     1      -9.290  17.060  68.829  1.00  0.00    -0.266 NA 
HETATM   40  C   UNL     1     -10.264  20.017  66.176  1.00  0.00    -0.589 A  
HETATM   41  C   UNL     1     -10.610  18.665  65.960  1.00  0.00    -0.410 A  
HETATM   42  C   UNL     1     -10.267  17.685  66.917  1.00  0.00    -0.334 A  
ENDBRANCH  32  33
ENDBRANCH  27  32
ENDBRANCH  24  27
ENDBRANCH  11  23
ENDBRANCH   7  11
TORSDOF 8
ENDMDL
MODEL       14
REMARK 921   NORMALIZED FREE ENERGY PREDICTED BY IDOCK:   -7.98 KCAL/MOL
REMARK 922        TOTAL FREE ENERGY PREDICTED BY IDOCK:  -13.85 KCAL/MOL
REMARK 923 INTER-LIGAND FREE ENERGY PREDICTED BY IDOCK:  -11.76 KCAL/MOL
REMARK 924 INTRA-LIGAND FREE ENERGY PREDICTED BY IDOCK:   -2.09 KCAL/MOL
REMARK 927      BINDING AFFINITY PREDICTED BY RF-SCORE:    0.00 PKD
ROOT
HETATM    1  C   UNL     1      -6.178  10.247  68.170  1.00  0.00    -0.052 C  
HETATM    2  C   UNL     1      -6.491  11.501  67.330  1.00  0.00    -0.094 C  
HETATM    3  C   UNL     1      -7.760  12.404  67.943  1.00  0.00    -0.135 C  
HETATM    4  N   UNL     1      -6.850  11.037  65.959  1.00  0.00    -0.326 NA 
HETATM    5  C   UNL     1      -5.134  12.246  67.203  1.00  0.00    -0.041 C  
HETATM    6  H2  UNL     1      -7.608  10.353  65.954  1.00  0.00     0.000 HD 
HETATM    7  N   UNL     1      -9.053  12.069  67.525  1.00  0.00    -0.171 N  
HETATM    8  H1  UNL     1      -7.057  11.867  65.403  1.00  0.00     0.000 HD 
HETATM    9  O   UNL     1      -7.571  13.303  68.762  1.00  0.00    -0.115 OA 
HETATM   10  H   UNL     1      -9.055  11.410  66.747  1.00  0.00     0.000 HD 
ENDROOT
BRANCH   7  11
HETATM   11  C   UNL     1     -10.500  12.473  67.979  1.00  0.00    -0.219 C  
BRANCH  11  12
HETATM   12  C   UNL     1     -11.548  11.481  68.669  1.00  0.00    -0.375 C  
BRANCH  12  13
HETATM   13  C   UNL     1     -12.158  11.825  70.112  1.00  0.00    -0.398 A  
HETATM   14  C   UNL     1     -12.561  10.957  71.110  1.00  0.00    -0.428 A  
HETATM   15  C   UNL     1     -12.648  15.597  71.028  1.00  0.00    -0.515 A  
HETATM   16  C   UNL     1     -13.482  15.398  72.125  1.00  0.00    -0.570 A  
HETATM   17  C   UNL     1     -13.746  14.103  72.568  1.00  0.00    -0.626 A  
HETATM   18  N   UNL     1     -13.191  11.670  72.130  1.00  0.00    -0.545 NA 
HETATM   19  C   UNL     1     -12.127  14.503  70.305  1.00  0.00    -0.386 A  
HETATM   20  C   UNL     1     -12.429  13.168  70.683  1.00  0.00    -0.363 A  
HETATM   21  C   UNL     1     -13.178  13.015  71.851  1.00  0.00    -0.430 A  
HETATM   22  H   UNL     1     -13.602  11.252  72.964  1.00  0.00     0.000 HD 
ENDBRANCH  12  13
ENDBRANCH  11  12
BRANCH  11  23
HETATM   23  C   UNL     1     -11.100  13.349  66.847  1.00  0.00    -0.292 C  
HETATM   24  N   UNL     1     -10.258  13.717  65.816  1.00  0.00    -0.303 N  
HETATM   25  H   UNL     1      -9.328  13.303  65.750  1.00  0.00     0.000 HD 
HETATM   26  O   UNL     1     -12.261  13.761  66.928  1.00  0.00    -0.410 OA 
BRANCH  24  27
HETATM   27  C   UNL     1     -10.685  14.686  64.833  1.00  0.00    -0.427 C  
BRANCH  27  28
HETATM   28  N   UNL     1     -11.860  14.182  64.170  1.00  0.00    -0.626 N  
HETATM   29  O   UNL     1     -10.849  12.280  63.332  1.00  0.00    -0.449 OA 
HETATM   30  C   UNL     1     -11.828  12.998  63.469  1.00  0.00    -0.516 C  
HETATM   31  H   UNL     1     -12.731  14.711  64.221  1.00  0.00     0.000 HD 
ENDBRANCH  27  28
BRANCH  27  32
HETATM   32  C   UNL     1     -10.761  16.169  65.254  1.00  0.00    -0.386 C  
BRANCH  32  33
HETATM   33  C   UNL     1     -10.076  16.866  66.419  1.00  0.00    -0.331 A  
HETATM   34  C   UNL     1      -8.854  17.961  68.036  1.00  0.00    -0.268 A  
HETATM   35  H   UNL     1     -10.348  17.738  69.519  1.00  0.00     0.000 HD 
HETATM   36  C   UNL     1      -7.820  18.661  68.678  1.00  0.00    -0.349 A  
HETATM   37  C   UNL     1     -10.783  16.924  67.617  1.00  0.00    -0.290 A  
HETATM   38  C   UNL     1      -6.668  18.923  67.945  1.00  0.00    -0.230 A  
HETATM   39  N   UNL     1     -10.048  17.570  68.559  1.00  0.00    -0.341 NA 
HETATM   40  C   UNL     1      -6.564  18.490  66.624  1.00  0.00    -0.212 A  
HETATM   41  C   UNL     1      -7.619  17.798  65.991  1.00  0.00    -0.255 A  
HETATM   42  C   UNL     1      -8.809  17.521  66.698  1.00  0.00    -0.284 A  
ENDBRANCH  32  33
ENDBRANCH  27  32
ENDBRANCH  24  27
ENDBRANCH  11  23
ENDBRANCH   7  11
TORSDOF 8
ENDMDL
MODEL       15
REMARK 921   NORMALIZED FREE ENERGY PREDICTED BY IDOCK:   -7.97 KCAL/MOL
REMARK 922        TOTAL FREE ENERGY PREDICTED BY IDOCK:  -13.85 KCAL/MOL
REMARK 923 INTER-LIGAND FREE ENERGY PREDICTED BY IDOCK:  -12.08 KCAL/MOL
REMARK 924 INTRA-LIGAND FREE ENERGY PREDICTED BY IDOCK:   -1.77 KCAL/MOL
REMARK 927      BINDING AFFINITY PREDICTED BY RF-SCORE:    0.00 PKD
ROOT
HETATM    1  C   UNL     1     -13.996  15.234  71.211  1.00  0.00    -0.548 C  
HETATM    2  C   UNL     1     -12.477  15.020  71.067  1.00  0.00    -0.338 C  
HETATM    3  C   UNL     1     -12.022  14.544  69.528  1.00  0.00    -0.319 C  
HETATM    4  N   UNL     1     -12.086  13.954  72.035  1.00  0.00    -0.039 NA 
HETATM    5  C   UNL     1     -11.836  16.339  71.581  1.00  0.00    -0.482 C  
HETATM    6  H2  UNL     1     -12.623  13.094  71.920  1.00  0.00     0.000 HD 
HETATM    7  N   UNL     1     -12.021  13.172  69.250  1.00  0.00    -0.311 N  
HETATM    8  H1  UNL     1     -11.080  13.813  71.940  1.00  0.00     0.000 HD 
HETATM    9  O   UNL     1     -11.738  15.368  68.660  1.00  0.00    -0.353 OA 
HETATM   10  H   UNL     1     -12.135  12.602  70.088  1.00  0.00     0.000 HD 
ENDROOT
BRANCH   7  11
HETATM   11  C   UNL     1     -11.885  12.310  67.946  1.00  0.00    -0.293 C  
BRANCH  11  12
HETATM   12  C   UNL     1     -11.445  10.773  67.912  1.00  0.00    -0.306 C  
BRANCH  12  13
HETATM   13  C   UNL     1     -10.518  10.171  69.075  1.00  0.00    -0.239 A  
HETATM   14  C   UNL     1      -9.141  10.061  69.113  1.00  0.00    -0.184 A  
HETATM   15  C   UNL     1     -12.289   8.762  72.267  1.00  0.00    -0.448 A  
HETATM   16  C   UNL     1     -11.194   8.069  72.775  1.00  0.00    -0.448 A  
HETATM   17  C   UNL     1      -9.954   8.175  72.146  1.00  0.00    -0.315 A  
HETATM   18  N   UNL     1      -8.757   9.322  70.231  1.00  0.00    -0.199 NA 
HETATM   19  C   UNL     1     -12.183   9.512  71.076  1.00  0.00    -0.385 A  
HETATM   20  C   UNL     1     -10.954   9.589  70.368  1.00  0.00    -0.333 A  
HETATM   21  C   UNL     1      -9.859   8.968  70.972  1.00  0.00    -0.282 A  
HETATM   22  H   UNL     1      -7.795   9.078  70.466  1.00  0.00     0.000 HD 
ENDBRANCH  12  13
ENDBRANCH  11  12
BRANCH  11  23
HETATM   23  C   UNL     1     -11.180  13.200  66.887  1.00  0.00    -0.296 C  
HETATM   24  N   UNL     1     -11.985  13.910  66.019  1.00  0.00    -0.389 N  
HETATM   25  H   UNL     1     -12.992  13.946  66.176  1.00  0.00     0.000 HD 
HETATM   26  O   UNL     1      -9.949  13.190  66.787  1.00  0.00    -0.239 OA 
BRANCH  24  27
HETATM   27  C   UNL     1     -11.409  14.604  64.890  1.00  0.00    -0.403 C  
BRANCH  27  28
HETATM   28  N   UNL     1     -12.204  14.324  63.722  1.00  0.00    -1.019 N  
HETATM   29  O   UNL     1     -11.835  12.043  63.740  1.00  0.00    -0.429 OA 
HETATM   30  C   UNL     1     -12.346  13.039  63.250  1.00  0.00    -0.306 C  
HETATM   31  H   UNL     1     -12.670  15.091  63.237  1.00  0.00     0.000 HD 
ENDBRANCH  27  28
BRANCH  27  32
HETATM   32  C   UNL     1     -11.013  16.085  65.068  1.00  0.00    -0.393 C  
BRANCH  32  33
HETATM   33  C   UNL     1      -9.987  16.691  66.012  1.00  0.00    -0.346 A  
HETATM   34  C   UNL     1      -8.608  17.755  67.520  1.00  0.00    -0.228 A  
HETATM   35  H   UNL     1      -6.912  16.599  67.002  1.00  0.00     0.000 HD 
HETATM   36  C   UNL     1      -8.151  18.621  68.526  1.00  0.00    -0.370 A  
HETATM   37  C   UNL     1      -8.700  16.164  65.961  1.00  0.00    -0.246 A  
HETATM   38  C   UNL     1      -9.055  19.542  69.042  1.00  0.00    -0.268 A  
HETATM   39  N   UNL     1      -7.900  16.803  66.853  1.00  0.00    -0.193 NA 
HETATM   40  C   UNL     1     -10.362  19.588  68.558  1.00  0.00    -0.436 A  
HETATM   41  C   UNL     1     -10.807  18.700  67.555  1.00  0.00    -0.373 A  
HETATM   42  C   UNL     1      -9.922  17.744  67.012  1.00  0.00    -0.322 A  
ENDBRANCH  32  33
ENDBRANCH  27  32
ENDBRANCH  24  27
ENDBRANCH  11  23
ENDBRANCH   7  11
TORSDOF 8
ENDMDL
MODEL       16
REMARK 921   NORMALIZED FREE ENERGY PREDICTED BY IDOCK:   -7.94 KCAL/MOL
REMARK 922        TOTAL FREE ENERGY PREDICTED BY IDOCK:  -13.80 KCAL/MOL
REMARK 923 INTER-LIGAND FREE ENERGY PREDICTED BY IDOCK:  -11.90 KCAL/MOL
REMARK 924 INTRA-LIGAND FREE ENERGY PREDICTED BY IDOCK:   -1.90 KCAL/MOL
REMARK 927      BINDING AFFINITY PREDICTED BY RF-SCORE:    0.00 PKD
ROOT
HETATM    1  C   UNL     1     -14.389  15.278  72.324  1.00  0.00    -0.586 C  
HETATM    2  C   UNL     1     -13.109  14.470  72.610  1.00  0.00    -0.467 C  
HETATM    3  C   UNL     1     -11.961  14.602  71.398  1.00  0.00    -0.343 C  
HETATM    4  N   UNL     1     -13.508  13.039  72.740  1.00  0.00    -0.649 NA 
HETATM    5  C   UNL     1     -12.652  14.930  74.022  1.00  0.00    -0.440 C  
HETATM    6  H2  UNL     1     -14.026  12.694  71.931  1.00  0.00     0.000 HD 
HETATM    7  N   UNL     1     -12.036  13.693  70.336  1.00  0.00    -0.380 N  
HETATM    8  H1  UNL     1     -12.660  12.504  72.930  1.00  0.00     0.000 HD 
HETATM    9  O   UNL     1     -11.109  15.488  71.416  1.00  0.00    -0.357 OA 
HETATM   10  H   UNL     1     -12.691  12.932  70.516  1.00  0.00     0.000 HD 
ENDROOT
BRANCH   7  11
HETATM   11  C   UNL     1     -11.345  13.575  68.932  1.00  0.00    -0.289 C  
BRANCH  11  12
HETATM   12  C   UNL     1     -11.806  14.366  67.621  1.00  0.00    -0.412 C  
BRANCH  12  13
HETATM   13  C   UNL     1     -10.761  15.277  66.815  1.00  0.00    -0.313 A  
HETATM   14  C   UNL     1     -10.163  15.032  65.593  1.00  0.00    -0.360 A  
HETATM   15  C   UNL     1      -9.657  18.657  68.447  1.00  0.00    -0.396 A  
HETATM   16  C   UNL     1      -8.556  18.889  67.628  1.00  0.00    -0.304 A  
HETATM   17  C   UNL     1      -8.297  18.034  66.557  1.00  0.00    -0.293 A  
HETATM   18  N   UNL     1      -9.190  15.999  65.341  1.00  0.00    -0.196 NA 
HETATM   19  C   UNL     1     -10.474  17.522  68.260  1.00  0.00    -0.383 A  
HETATM   20  C   UNL     1     -10.203  16.590  67.223  1.00  0.00    -0.287 A  
HETATM   21  C   UNL     1      -9.156  16.920  66.361  1.00  0.00    -0.283 A  
HETATM   22  H   UNL     1      -8.590  16.020  64.517  1.00  0.00     0.000 HD 
ENDBRANCH  12  13
ENDBRANCH  11  12
BRANCH  11  23
HETATM   23  C   UNL     1     -11.049  12.069  68.699  1.00  0.00    -0.250 C  
HETATM   24  N   UNL     1      -9.739  11.653  68.834  1.00  0.00    -0.400 N  
HETATM   25  H   UNL     1      -9.040  12.293  69.209  1.00  0.00     0.000 HD 
HETATM   26  O   UNL     1     -11.947  11.310  68.325  1.00  0.00    -0.582 OA 
BRANCH  24  27
HETATM   27  C   UNL     1      -9.353  10.316  68.446  1.00  0.00    -0.143 C  
BRANCH  27  28
HETATM   28  N   UNL     1      -8.182  10.397  67.611  1.00  0.00    -0.111 N  
HETATM   29  O   UNL     1      -9.263  11.337  65.797  1.00  0.00    -0.212 OA 
HETATM   30  C   UNL     1      -8.251  10.915  66.338  1.00  0.00    -0.163 C  
HETATM   31  H   UNL     1      -7.287  10.066  67.970  1.00  0.00     0.000 HD 
ENDBRANCH  27  28
BRANCH  27  32
HETATM   32  C   UNL     1      -9.299   9.226  69.538  1.00  0.00    -0.177 C  
BRANCH  32  33
HETATM   33  C   UNL     1     -10.436   8.400  70.117  1.00  0.00    -0.230 A  
HETATM   34  C   UNL     1     -12.251   7.353  71.077  1.00  0.00    -0.282 A  
HETATM   35  H   UNL     1     -11.642   5.421  70.463  1.00  0.00     0.000 HD 
HETATM   36  C   UNL     1     -13.455   7.142  71.767  1.00  0.00    -0.348 A  
HETATM   37  C   UNL     1     -10.383   7.024  69.905  1.00  0.00    -0.210 A  
HETATM   38  C   UNL     1     -14.079   8.250  72.328  1.00  0.00    -0.354 A  
HETATM   39  N   UNL     1     -11.457   6.423  70.478  1.00  0.00    -0.373 NA 
HETATM   40  C   UNL     1     -13.506   9.515  72.202  1.00  0.00    -0.535 A  
HETATM   41  C   UNL     1     -12.301   9.710  71.494  1.00  0.00    -0.477 A  
HETATM   42  C   UNL     1     -11.642   8.611  70.901  1.00  0.00    -0.307 A  
ENDBRANCH  32  33
ENDBRANCH  27  32
ENDBRANCH  24  27
ENDBRANCH  11  23
ENDBRANCH   7  11
TORSDOF 8
ENDMDL
MODEL       17
REMARK 921   NORMALIZED FREE ENERGY PREDICTED BY IDOCK:   -7.93 KCAL/MOL
REMARK 922        TOTAL FREE ENERGY PREDICTED BY IDOCK:  -13.78 KCAL/MOL
REMARK 923 INTER-LIGAND FREE ENERGY PREDICTED BY IDOCK:  -11.12 KCAL/MOL
REMARK 924 INTRA-LIGAND FREE ENERGY PREDICTED BY IDOCK:   -2.66 KCAL/MOL
REMARK 927      BINDING AFFINITY PREDICTED BY RF-SCORE:    0.00 PKD
ROOT
HETATM    1  C   UNL     1      -7.525  17.313  68.317  1.00  0.00    -0.224 C  
HETATM    2  C   UNL     1      -7.565  16.627  66.938  1.00  0.00    -0.227 C  
HETATM    3  C   UNL     1      -9.088  16.066  66.525  1.00  0.00    -0.285 C  
HETATM    4  N   UNL     1      -6.625  15.470  66.992  1.00  0.00    -0.244 NA 
HETATM    5  C   UNL     1      -6.939  17.658  65.959  1.00  0.00    -0.318 C  
HETATM    6  H2  UNL     1      -6.823  14.830  67.762  1.00  0.00     0.000 HD 
HETATM    7  N   UNL     1      -9.433  14.773  66.936  1.00  0.00    -0.230 N  
HETATM    8  H1  UNL     1      -6.652  15.016  66.079  1.00  0.00     0.000 HD 
HETATM    9  O   UNL     1      -9.890  16.776  65.920  1.00  0.00    -0.446 OA 
HETATM   10  H   UNL     1      -8.637  14.250  67.298  1.00  0.00     0.000 HD 
ENDROOT
BRANCH   7  11
HETATM   11  C   UNL     1     -10.765  13.944  66.968  1.00  0.00    -0.283 C  
BRANCH  11  12
HETATM   12  C   UNL     1     -12.053  14.323  67.839  1.00  0.00    -0.296 C  
BRANCH  12  13
HETATM   13  C   UNL     1     -11.902  15.222  69.158  1.00  0.00    -0.345 A  
HETATM   14  C   UNL     1     -11.274  16.445  69.304  1.00  0.00    -0.272 A  
HETATM   15  C   UNL     1     -13.455  13.856  72.479  1.00  0.00    -0.676 A  
HETATM   16  C   UNL     1     -12.798  14.726  73.344  1.00  0.00    -0.597 A  
HETATM   17  C   UNL     1     -12.000  15.746  72.826  1.00  0.00    -0.598 A  
HETATM   18  N   UNL     1     -11.226  16.794  70.653  1.00  0.00    -0.362 NA 
HETATM   19  C   UNL     1     -13.265  13.940  71.083  1.00  0.00    -0.308 A  
HETATM   20  C   UNL     1     -12.407  14.921  70.520  1.00  0.00    -0.400 A  
HETATM   21  C   UNL     1     -11.855  15.839  71.416  1.00  0.00    -0.442 A  
HETATM   22  H   UNL     1     -10.787  17.637  71.022  1.00  0.00     0.000 HD 
ENDBRANCH  12  13
ENDBRANCH  11  12
BRANCH  11  23
HETATM   23  C   UNL     1     -10.364  12.446  67.040  1.00  0.00    -0.220 C  
HETATM   24  N   UNL     1      -9.503  12.069  68.052  1.00  0.00    -0.193 N  
HETATM   25  H   UNL     1      -9.269  12.732  68.791  1.00  0.00     0.000 HD 
HETATM   26  O   UNL     1     -10.740  11.659  66.167  1.00  0.00    -0.260 OA 
BRANCH  24  27
HETATM   27  C   UNL     1      -8.932  10.742  68.070  1.00  0.00    -0.139 C  
BRANCH  27  28
HETATM   28  N   UNL     1      -7.873  10.682  67.096  1.00  0.00    -0.115 N  
HETATM   29  O   UNL     1      -6.955  12.733  67.635  1.00  0.00    -0.116 OA 
HETATM   30  C   UNL     1      -6.963  11.707  66.972  1.00  0.00    -0.144 C  
HETATM   31  H   UNL     1      -7.797   9.867  66.488  1.00  0.00     0.000 HD 
ENDBRANCH  27  28
BRANCH  27  32
HETATM   32  C   UNL     1      -8.595  10.111  69.438  1.00  0.00    -0.183 C  
BRANCH  32  33
HETATM   33  C   UNL     1      -9.532   9.480  70.455  1.00  0.00    -0.317 A  
HETATM   34  C   UNL     1     -11.119   8.678  71.920  1.00  0.00    -0.346 A  
HETATM   35  H   UNL     1      -9.825   7.224  72.751  1.00  0.00     0.000 HD 
HETATM   36  C   UNL     1     -12.332   8.506  72.606  1.00  0.00    -0.289 A  
HETATM   37  C   UNL     1      -9.015   8.440  71.223  1.00  0.00    -0.178 A  
HETATM   38  C   UNL     1     -13.378   9.365  72.292  1.00  0.00    -0.539 A  
HETATM   39  N   UNL     1      -9.961   7.981  72.081  1.00  0.00    -0.205 NA 
HETATM   40  C   UNL     1     -13.203  10.360  71.330  1.00  0.00    -0.459 A  
HETATM   41  C   UNL     1     -11.980  10.511  70.641  1.00  0.00    -0.455 A  
HETATM   42  C   UNL     1     -10.896   9.651  70.925  1.00  0.00    -0.409 A  
ENDBRANCH  32  33
ENDBRANCH  27  32
ENDBRANCH  24  27
ENDBRANCH  11  23
ENDBRANCH   7  11
TORSDOF 8
ENDMDL
MODEL       18
REMARK 921   NORMALIZED FREE ENERGY PREDICTED BY IDOCK:   -7.81 KCAL/MOL
REMARK 922        TOTAL FREE ENERGY PREDICTED BY IDOCK:  -13.60 KCAL/MOL
REMARK 923 INTER-LIGAND FREE ENERGY PREDICTED BY IDOCK:  -11.85 KCAL/MOL
REMARK 924 INTRA-LIGAND FREE ENERGY PREDICTED BY IDOCK:   -1.75 KCAL/MOL
REMARK 927      BINDING AFFINITY PREDICTED BY RF-SCORE:    0.00 PKD
ROOT
HETATM    1  C   UNL     1     -11.492  15.218  71.768  1.00  0.00    -0.494 C  
HETATM    2  C   UNL     1     -12.605  14.588  70.909  1.00  0.00    -0.344 C  
HETATM    3  C   UNL     1     -12.499  12.920  70.815  1.00  0.00    -0.286 C  
HETATM    4  N   UNL     1     -12.481  15.156  69.536  1.00  0.00    -0.588 NA 
HETATM    5  C   UNL     1     -13.930  15.146  71.499  1.00  0.00    -0.614 C  
HETATM    6  H2  UNL     1     -11.550  15.033  69.136  1.00  0.00     0.000 HD 
HETATM    7  N   UNL     1     -11.707  12.380  69.795  1.00  0.00    -0.427 N  
HETATM    8  H1  UNL     1     -13.218  14.739  68.968  1.00  0.00     0.000 HD 
HETATM    9  O   UNL     1     -13.061  12.194  71.634  1.00  0.00    -0.418 OA 
HETATM   10  H   UNL     1     -11.420  13.078  69.109  1.00  0.00     0.000 HD 
ENDROOT
BRANCH   7  11
HETATM   11  C   UNL     1     -11.160  10.947  69.463  1.00  0.00    -0.268 C  
BRANCH  11  12
HETATM   12  C   UNL     1     -10.476   9.966  70.524  1.00  0.00    -0.330 C  
BRANCH  12  13
HETATM   13  C   UNL     1     -11.311   8.754  71.163  1.00  0.00    -0.345 A  
HETATM   14  C   UNL     1     -12.616   8.749  71.619  1.00  0.00    -0.345 A  
HETATM   15  C   UNL     1      -9.502   5.307  71.559  1.00  0.00    -0.191 A  
HETATM   16  C   UNL     1     -10.425   4.731  72.427  1.00  0.00    -0.258 A  
HETATM   17  C   UNL     1     -11.598   5.415  72.745  1.00  0.00    -0.293 A  
HETATM   18  N   UNL     1     -12.890   7.538  72.254  1.00  0.00    -0.511 NA 
HETATM   19  C   UNL     1      -9.698   6.610  71.053  1.00  0.00    -0.185 A  
HETATM   20  C   UNL     1     -10.848   7.366  71.406  1.00  0.00    -0.250 A  
HETATM   21  C   UNL     1     -11.796   6.708  72.192  1.00  0.00    -0.298 A  
HETATM   22  H   UNL     1     -13.775   7.302  72.701  1.00  0.00     0.000 HD 
ENDBRANCH  12  13
ENDBRANCH  11  12
BRANCH  11  23
HETATM   23  C   UNL     1     -10.403  11.054  68.112  1.00  0.00    -0.182 C  
HETATM   24  N   UNL     1     -10.878  10.297  67.058  1.00  0.00    -0.223 N  
HETATM   25  H   UNL     1     -11.769   9.810  67.146  1.00  0.00     0.000 HD 
HETATM   26  O   UNL     1      -9.371  11.726  68.029  1.00  0.00    -0.171 OA 
BRANCH  24  27
HETATM   27  C   UNL     1     -10.119  10.193  65.833  1.00  0.00    -0.254 C  
BRANCH  27  28
HETATM   28  N   UNL     1      -9.772   8.812  65.621  1.00  0.00    -0.455 N  
HETATM   29  O   UNL     1      -7.946   8.818  67.038  1.00  0.00    -0.095 OA 
HETATM   30  C   UNL     1      -8.695   8.243  66.262  1.00  0.00    -0.151 C  
HETATM   31  H   UNL     1     -10.334   8.245  64.987  1.00  0.00     0.000 HD 
ENDBRANCH  27  28
BRANCH  27  32
HETATM   32  C   UNL     1     -10.647  10.931  64.583  1.00  0.00    -0.332 C  
BRANCH  32  33
HETATM   33  C   UNL     1     -11.104  12.374  64.450  1.00  0.00    -0.381 A  
HETATM   34  C   UNL     1     -11.623  14.619  64.404  1.00  0.00    -0.305 A  
HETATM   35  H   UNL     1     -13.205  14.371  63.020  1.00  0.00     0.000 HD 
HETATM   36  C   UNL     1     -11.592  15.998  64.662  1.00  0.00    -0.169 A  
HETATM   37  C   UNL     1     -12.168  12.618  63.586  1.00  0.00    -0.536 A  
HETATM   38  C   UNL     1     -10.659  16.461  65.583  1.00  0.00    -0.337 A  
HETATM   39  N   UNL     1     -12.462  13.943  63.572  1.00  0.00    -0.812 NA 
HETATM   40  C   UNL     1      -9.800  15.566  66.219  1.00  0.00    -0.317 A  
HETATM   41  C   UNL     1      -9.836  14.183  65.937  1.00  0.00    -0.312 A  
HETATM   42  C   UNL     1     -10.763  13.676  65.001  1.00  0.00    -0.374 A  
ENDBRANCH  32  33
ENDBRANCH  27  32
ENDBRANCH  24  27
ENDBRANCH  11  23
ENDBRANCH   7  11
TORSDOF 8
ENDMDL
MODEL       19
REMARK 921   NORMALIZED FREE ENERGY PREDICTED BY IDOCK:   -7.81 KCAL/MOL
REMARK 922        TOTAL FREE ENERGY PREDICTED BY IDOCK:  -13.60 KCAL/MOL
REMARK 923 INTER-LIGAND FREE ENERGY PREDICTED BY IDOCK:  -11.99 KCAL/MOL
REMARK 924 INTRA-LIGAND FREE ENERGY PREDICTED BY IDOCK:   -1.62 KCAL/MOL
REMARK 927      BINDING AFFINITY PREDICTED BY RF-SCORE:    0.00 PKD
ROOT
HETATM    1  C   UNL     1     -11.089   6.550  68.857  1.00  0.00    -0.371 C  
HETATM    2  C   UNL     1     -10.091   7.261  67.922  1.00  0.00    -0.177 C  
HETATM    3  C   UNL     1      -9.787   8.846  68.365  1.00  0.00    -0.174 C  
HETATM    4  N   UNL     1     -10.681   7.249  66.552  1.00  0.00    -0.418 NA 
HETATM    5  C   UNL     1      -8.851   6.326  67.876  1.00  0.00    -0.112 C  
HETATM    6  H2  UNL     1     -11.617   7.653  66.518  1.00  0.00     0.000 HD 
HETATM    7  N   UNL     1     -10.636   9.834  67.851  1.00  0.00    -0.244 N  
HETATM    8  H1  UNL     1     -10.020   7.719  65.934  1.00  0.00     0.000 HD 
HETATM    9  O   UNL     1      -8.880   9.132  69.145  1.00  0.00    -0.140 OA 
HETATM   10  H   UNL     1     -11.247   9.482  67.115  1.00  0.00     0.000 HD 
ENDROOT
BRANCH   7  11
HETATM   11  C   UNL     1     -10.863  11.358  68.148  1.00  0.00    -0.213 C  
BRANCH  11  12
HETATM   12  C   UNL     1     -11.749  11.930  69.351  1.00  0.00    -0.401 C  
BRANCH  12  13
HETATM   13  C   UNL     1     -11.589  13.455  69.821  1.00  0.00    -0.305 A  
HETATM   14  C   UNL     1     -10.805  14.452  69.271  1.00  0.00    -0.239 A  
HETATM   15  C   UNL     1     -13.624  14.615  72.955  1.00  0.00    -0.463 A  
HETATM   16  C   UNL     1     -12.928  15.799  73.179  1.00  0.00    -0.651 A  
HETATM   17  C   UNL     1     -11.946  16.207  72.278  1.00  0.00    -0.637 A  
HETATM   18  N   UNL     1     -10.831  15.579  70.091  1.00  0.00    -0.309 NA 
HETATM   19  C   UNL     1     -13.297  13.777  71.868  1.00  0.00    -0.499 A  
HETATM   20  C   UNL     1     -12.256  14.123  70.966  1.00  0.00    -0.432 A  
HETATM   21  C   UNL     1     -11.660  15.369  71.167  1.00  0.00    -0.377 A  
HETATM   22  H   UNL     1     -10.309  16.438  69.918  1.00  0.00     0.000 HD 
ENDBRANCH  12  13
ENDBRANCH  11  12
BRANCH  11  23
HETATM   23  C   UNL     1     -11.116  12.052  66.783  1.00  0.00    -0.305 C  
HETATM   24  N   UNL     1     -10.015  12.532  66.101  1.00  0.00    -0.251 N  
HETATM   25  H   UNL     1      -9.077  12.303  66.430  1.00  0.00     0.000 HD 
HETATM   26  O   UNL     1     -12.270  12.234  66.382  1.00  0.00    -0.613 OA 
BRANCH  24  27
HETATM   27  C   UNL     1     -10.184  13.355  64.926  1.00  0.00    -0.319 C  
BRANCH  27  28
HETATM   28  N   UNL     1     -11.037  12.661  63.996  1.00  0.00    -0.375 N  
HETATM   29  O   UNL     1      -9.417  11.186  63.261  1.00  0.00    -0.272 OA 
HETATM   30  C   UNL     1     -10.561  11.617  63.237  1.00  0.00    -0.356 C  
HETATM   31  H   UNL     1     -12.011  12.949  63.899  1.00  0.00     0.000 HD 
ENDBRANCH  27  28
BRANCH  27  32
HETATM   32  C   UNL     1     -10.515  14.850  65.124  1.00  0.00    -0.442 C  
BRANCH  32  33
HETATM   33  C   UNL     1      -9.744  15.903  65.903  1.00  0.00    -0.386 A  
HETATM   34  C   UNL     1      -8.740  17.656  67.010  1.00  0.00    -0.242 A  
HETATM   35  H   UNL     1      -7.168  16.462  67.774  1.00  0.00     0.000 HD 
HETATM   36  C   UNL     1      -8.482  18.943  67.510  1.00  0.00    -0.296 A  
HETATM   37  C   UNL     1      -8.600  15.475  66.572  1.00  0.00    -0.285 A  
HETATM   38  C   UNL     1      -9.345  19.965  67.134  1.00  0.00    -0.479 A  
HETATM   39  N   UNL     1      -8.020  16.520  67.216  1.00  0.00    -0.154 NA 
HETATM   40  C   UNL     1     -10.419  19.699  66.286  1.00  0.00    -0.621 A  
HETATM   41  C   UNL     1     -10.671  18.397  65.803  1.00  0.00    -0.161 A  
HETATM   42  C   UNL     1      -9.822  17.329  66.169  1.00  0.00    -0.269 A  
ENDBRANCH  32  33
ENDBRANCH  27  32
ENDBRANCH  24  27
ENDBRANCH  11  23
ENDBRANCH   7  11
TORSDOF 8
ENDMDL
MODEL       20
REMARK 921   NORMALIZED FREE ENERGY PREDICTED BY IDOCK:   -7.79 KCAL/MOL
REMARK 922        TOTAL FREE ENERGY PREDICTED BY IDOCK:  -13.58 KCAL/MOL
REMARK 923 INTER-LIGAND FREE ENERGY PREDICTED BY IDOCK:  -11.49 KCAL/MOL
REMARK 924 INTRA-LIGAND FREE ENERGY PREDICTED BY IDOCK:   -2.09 KCAL/MOL
REMARK 927      BINDING AFFINITY PREDICTED BY RF-SCORE:    0.00 PKD
ROOT
HETATM    1  C   UNL     1      -7.403   7.224  66.712  1.00  0.00    -0.088 C  
HETATM    2  C   UNL     1      -8.548   6.865  67.679  1.00  0.00    -0.121 C  
HETATM    3  C   UNL     1      -9.731   8.047  67.767  1.00  0.00    -0.156 C  
HETATM    4  N   UNL     1      -7.946   6.686  69.032  1.00  0.00    -0.111 NA 
HETATM    5  C   UNL     1      -9.033   5.461  67.223  1.00  0.00    -0.111 C  
HETATM    6  H2  UNL     1      -7.404   7.495  69.337  1.00  0.00     0.000 HD 
HETATM    7  N   UNL     1      -9.552   9.071  68.704  1.00  0.00    -0.151 N  
HETATM    8  H1  UNL     1      -8.705   6.449  69.671  1.00  0.00     0.000 HD 
HETATM    9  O   UNL     1     -10.700   8.041  67.009  1.00  0.00    -0.328 OA 
HETATM   10  H   UNL     1      -8.792   8.878  69.356  1.00  0.00     0.000 HD 
ENDROOT
BRANCH   7  11
HETATM   11  C   UNL     1     -10.253  10.447  68.983  1.00  0.00    -0.217 C  
BRANCH  11  12
HETATM   12  C   UNL     1     -11.830  10.645  69.166  1.00  0.00    -0.287 C  
BRANCH  12  13
HETATM   13  C   UNL     1     -12.403  11.439  70.437  1.00  0.00    -0.404 A  
HETATM   14  C   UNL     1     -12.930  10.930  71.609  1.00  0.00    -0.464 A  
HETATM   15  C   UNL     1     -12.389  15.349  70.297  1.00  0.00    -0.425 A  
HETATM   16  C   UNL     1     -13.253  15.559  71.368  1.00  0.00    -0.587 A  
HETATM   17  C   UNL     1     -13.695  14.475  72.125  1.00  0.00    -0.547 A  
HETATM   18  N   UNL     1     -13.469  11.964  72.373  1.00  0.00    -0.510 NA 
HETATM   19  C   UNL     1     -12.013  14.044  69.915  1.00  0.00    -0.399 A  
HETATM   20  C   UNL     1     -12.496  12.908  70.618  1.00  0.00    -0.333 A  
HETATM   21  C   UNL     1     -13.272  13.172  71.748  1.00  0.00    -0.403 A  
HETATM   22  H   UNL     1     -13.942  11.842  73.268  1.00  0.00     0.000 HD 
ENDBRANCH  12  13
ENDBRANCH  11  12
BRANCH  11  23
HETATM   23  C   UNL     1      -9.582  11.493  68.052  1.00  0.00    -0.180 C  
HETATM   24  N   UNL     1      -9.287  12.728  68.596  1.00  0.00    -0.405 N  
HETATM   25  H   UNL     1      -9.382  12.875  69.600  1.00  0.00     0.000 HD 
HETATM   26  O   UNL     1      -9.409  11.240  66.856  1.00  0.00    -0.173 OA 
BRANCH  24  27
HETATM   27  C   UNL     1      -8.843  13.811  67.750  1.00  0.00    -0.188 C  
BRANCH  27  28
HETATM   28  N   UNL     1      -7.555  13.471  67.202  1.00  0.00    -0.369 N  
HETATM   29  O   UNL     1      -6.435  13.505  69.224  1.00  0.00    -0.103 OA 
HETATM   30  C   UNL     1      -6.449  13.346  68.013  1.00  0.00    -0.131 C  
HETATM   31  H   UNL     1      -7.460  13.322  66.198  1.00  0.00     0.000 HD 
ENDBRANCH  27  28
BRANCH  27  32
HETATM   32  C   UNL     1      -9.845  14.403  66.735  1.00  0.00    -0.269 C  
BRANCH  32  33
HETATM   33  C   UNL     1     -10.150  15.861  66.435  1.00  0.00    -0.306 A  
HETATM   34  C   UNL     1     -10.530  18.122  66.201  1.00  0.00    -0.364 A  
HETATM   35  H   UNL     1     -11.282  17.936  64.230  1.00  0.00     0.000 HD 
HETATM   36  C   UNL     1     -10.590  19.498  66.474  1.00  0.00    -0.579 A  
HETATM   37  C   UNL     1     -10.677  16.146  65.178  1.00  0.00    -0.371 A  
HETATM   38  C   UNL     1     -10.189  19.922  67.735  1.00  0.00    -0.567 A  
HETATM   39  N   UNL     1     -10.897  17.480  65.058  1.00  0.00    -0.754 NA 
HETATM   40  C   UNL     1      -9.751  18.995  68.680  1.00  0.00    -0.468 A  
HETATM   41  C   UNL     1      -9.686  17.616  68.383  1.00  0.00    -0.321 A  
HETATM   42  C   UNL     1     -10.076  17.147  67.110  1.00  0.00    -0.295 A  
ENDBRANCH  32  33
ENDBRANCH  27  32
ENDBRANCH  24  27
ENDBRANCH  11  23
ENDBRANCH   7  11
TORSDOF 8
ENDMDL
MODEL       21
REMARK 921   NORMALIZED FREE ENERGY PREDICTED BY IDOCK:   -7.79 KCAL/MOL
REMARK 922        TOTAL FREE ENERGY PREDICTED BY IDOCK:  -13.58 KCAL/MOL
REMARK 923 INTER-LIGAND FREE ENERGY PREDICTED BY IDOCK:  -11.42 KCAL/MOL
REMARK 924 INTRA-LIGAND FREE ENERGY PREDICTED BY IDOCK:   -2.16 KCAL/MOL
REMARK 927      BINDING AFFINITY PREDICTED BY RF-SCORE:    0.00 PKD
ROOT
HETATM    1  C   UNL     1      -9.392   3.514  66.531  1.00  0.00    -0.189 C  
HETATM    2  C   UNL     1      -9.685   4.459  65.349  1.00  0.00    -0.197 C  
HETATM    3  C   UNL     1      -9.160   6.027  65.613  1.00  0.00    -0.016 C  
HETATM    4  N   UNL     1     -11.163   4.474  65.149  1.00  0.00    -1.047 NA 
HETATM    5  C   UNL     1      -9.079   3.747  64.108  1.00  0.00    -0.128 C  
HETATM    6  H2  UNL     1     -11.677   4.721  65.994  1.00  0.00     0.000 HD 
HETATM    7  N   UNL     1     -10.044   6.904  66.251  1.00  0.00    -0.435 N  
HETATM    8  H1  UNL     1     -11.356   5.099  64.366  1.00  0.00     0.000 HD 
HETATM    9  O   UNL     1      -8.026   6.385  65.299  1.00  0.00    -0.102 OA 
HETATM   10  H   UNL     1     -10.988   6.525  66.326  1.00  0.00     0.000 HD 
ENDROOT
BRANCH   7  11
HETATM   11  C   UNL     1      -9.918   8.338  66.877  1.00  0.00    -0.273 C  
BRANCH  11  12
HETATM   12  C   UNL     1      -8.703   9.344  66.610  1.00  0.00    -0.143 C  
BRANCH  12  13
HETATM   13  C   UNL     1      -8.984  10.898  66.330  1.00  0.00    -0.188 A  
HETATM   14  C   UNL     1      -8.421  12.002  66.940  1.00  0.00    -0.172 A  
HETATM   15  C   UNL     1     -11.627  11.802  63.590  1.00  0.00    -0.521 A  
HETATM   16  C   UNL     1     -11.787  13.138  63.944  1.00  0.00    -0.533 A  
HETATM   17  C   UNL     1     -10.983  13.692  64.940  1.00  0.00    -0.372 A  
HETATM   18  N   UNL     1      -9.074  13.160  66.517  1.00  0.00    -0.422 NA 
HETATM   19  C   UNL     1     -10.716  10.973  64.279  1.00  0.00    -0.348 A  
HETATM   20  C   UNL     1      -9.928  11.482  65.346  1.00  0.00    -0.288 A  
HETATM   21  C   UNL     1     -10.043  12.851  65.593  1.00  0.00    -0.272 A  
HETATM   22  H   UNL     1      -8.863  14.101  66.847  1.00  0.00     0.000 HD 
ENDBRANCH  12  13
ENDBRANCH  11  12
BRANCH  11  23
HETATM   23  C   UNL     1     -10.333   8.219  68.368  1.00  0.00    -0.199 C  
HETATM   24  N   UNL     1     -11.043   9.270  68.914  1.00  0.00    -0.447 N  
HETATM   25  H   UNL     1     -11.391  10.014  68.309  1.00  0.00     0.000 HD 
HETATM   26  O   UNL     1      -9.958   7.256  69.042  1.00  0.00    -0.169 OA 
BRANCH  24  27
HETATM   27  C   UNL     1     -11.296   9.322  70.335  1.00  0.00    -0.242 C  
BRANCH  27  28
HETATM   28  N   UNL     1     -10.057   9.604  71.014  1.00  0.00    -0.304 N  
HETATM   29  O   UNL     1     -10.335   8.007  72.662  1.00  0.00    -0.278 OA 
HETATM   30  C   UNL     1      -9.686   8.900  72.137  1.00  0.00    -0.162 C  
HETATM   31  H   UNL     1      -9.445  10.337  70.656  1.00  0.00     0.000 HD 
ENDBRANCH  27  28
BRANCH  27  32
HETATM   32  C   UNL     1     -12.510  10.136  70.831  1.00  0.00    -0.455 C  
BRANCH  32  33
HETATM   33  C   UNL     1     -12.633  11.637  71.034  1.00  0.00    -0.431 A  
HETATM   34  C   UNL     1     -12.703  13.938  71.132  1.00  0.00    -0.367 A  
HETATM   35  H   UNL     1     -13.725  13.971  72.986  1.00  0.00     0.000 HD 
HETATM   36  C   UNL     1     -12.537  15.291  70.796  1.00  0.00    -0.474 A  
HETATM   37  C   UNL     1     -13.278  12.063  72.192  1.00  0.00    -0.295 A  
HETATM   38  C   UNL     1     -11.851  15.585  69.624  1.00  0.00    -0.384 A  
HETATM   39  N   UNL     1     -13.309  13.420  72.236  1.00  0.00    -0.524 NA 
HETATM   40  C   UNL     1     -11.350  14.554  68.829  1.00  0.00    -0.298 A  
HETATM   41  C   UNL     1     -11.538  13.199  69.176  1.00  0.00    -0.368 A  
HETATM   42  C   UNL     1     -12.238  12.860  70.354  1.00  0.00    -0.381 A  
ENDBRANCH  32  33
ENDBRANCH  27  32
ENDBRANCH  24  27
ENDBRANCH  11  23
ENDBRANCH   7  11
TORSDOF 8
ENDMDL
MODEL       22
REMARK 921   NORMALIZED FREE ENERGY PREDICTED BY IDOCK:   -7.77 KCAL/MOL
REMARK 922        TOTAL FREE ENERGY PREDICTED BY IDOCK:  -13.55 KCAL/MOL
REMARK 923 INTER-LIGAND FREE ENERGY PREDICTED BY IDOCK:  -11.58 KCAL/MOL
REMARK 924 INTRA-LIGAND FREE ENERGY PREDICTED BY IDOCK:   -1.96 KCAL/MOL
REMARK 927      BINDING AFFINITY PREDICTED BY RF-SCORE:    0.00 PKD
ROOT
HETATM    1  C   UNL     1      -8.333  19.417  66.275  1.00  0.00    -0.346 C  
HETATM    2  C   UNL     1      -9.719  19.689  66.891  1.00  0.00    -0.369 C  
HETATM    3  C   UNL     1     -10.183  18.530  68.007  1.00  0.00    -0.383 C  
HETATM    4  N   UNL     1     -10.707  19.701  65.773  1.00  0.00    -0.482 NA 
HETATM    5  C   UNL     1      -9.641  21.145  67.427  1.00  0.00    -0.103 C  
HETATM    6  H2  UNL     1     -10.680  18.852  65.208  1.00  0.00     0.000 HD 
HETATM    7  N   UNL     1     -10.859  17.403  67.525  1.00  0.00    -0.269 N  
HETATM    8  H1  UNL     1     -11.624  19.881  66.182  1.00  0.00     0.000 HD 
HETATM    9  O   UNL     1      -9.904  18.641  69.201  1.00  0.00    -0.319 OA 
HETATM   10  H   UNL     1     -11.148  17.505  66.553  1.00  0.00     0.000 HD 
ENDROOT
BRANCH   7  11
HETATM   11  C   UNL     1     -11.275  16.020  68.138  1.00  0.00    -0.325 C  
BRANCH  11  12
HETATM   12  C   UNL     1     -10.810  15.481  69.570  1.00  0.00    -0.267 C  
BRANCH  12  13
HETATM   13  C   UNL     1     -11.813  14.616  70.475  1.00  0.00    -0.367 A  
HETATM   14  C   UNL     1     -12.647  15.042  71.491  1.00  0.00    -0.340 A  
HETATM   15  C   UNL     1     -11.980  10.761  69.828  1.00  0.00    -0.397 A  
HETATM   16  C   UNL     1     -12.643  10.421  71.004  1.00  0.00    -0.491 A  
HETATM   17  C   UNL     1     -13.087  11.424  71.864  1.00  0.00    -0.505 A  
HETATM   18  N   UNL     1     -13.216  13.941  72.129  1.00  0.00    -0.408 NA 
HETATM   19  C   UNL     1     -11.678  12.106  69.529  1.00  0.00    -0.402 A  
HETATM   20  C   UNL     1     -12.052  13.153  70.413  1.00  0.00    -0.392 A  
HETATM   21  C   UNL     1     -12.809  12.776  71.524  1.00  0.00    -0.270 A  
HETATM   22  H   UNL     1     -13.845  13.992  72.929  1.00  0.00     0.000 HD 
ENDBRANCH  12  13
ENDBRANCH  11  12
BRANCH  11  23
HETATM   23  C   UNL     1     -11.174  14.972  66.997  1.00  0.00    -0.328 C  
HETATM   24  N   UNL     1     -12.298  14.214  66.731  1.00  0.00    -0.554 N  
HETATM   25  H   UNL     1     -13.184  14.448  67.178  1.00  0.00     0.000 HD 
HETATM   26  O   UNL     1     -10.098  14.780  66.423  1.00  0.00    -0.261 OA 
BRANCH  24  27
HETATM   27  C   UNL     1     -12.225  13.093  65.823  1.00  0.00    -0.456 C  
BRANCH  27  28
HETATM   28  N   UNL     1     -11.788  13.569  64.536  1.00  0.00    -0.387 N  
HETATM   29  O   UNL     1     -13.067  12.092  63.302  1.00  0.00    -0.701 OA 
HETATM   30  C   UNL     1     -12.264  13.011  63.371  1.00  0.00    -0.472 C  
HETATM   31  H   UNL     1     -11.114  14.333  64.486  1.00  0.00     0.000 HD 
ENDBRANCH  27  28
BRANCH  27  32
HETATM   32  C   UNL     1     -11.530  11.803  66.309  1.00  0.00    -0.296 C  
BRANCH  32  33
HETATM   33  C   UNL     1     -10.166  11.253  65.927  1.00  0.00    -0.298 A  
HETATM   34  C   UNL     1      -8.008  10.550  65.525  1.00  0.00    -0.145 A  
HETATM   35  H   UNL     1      -8.563   9.304  63.906  1.00  0.00     0.000 HD 
HETATM   36  C   UNL     1      -6.617  10.392  65.633  1.00  0.00    -0.129 A  
HETATM   37  C   UNL     1     -10.128  10.358  64.860  1.00  0.00    -0.312 A  
HETATM   38  C   UNL     1      -5.958  11.134  66.606  1.00  0.00    -0.130 A  
HETATM   39  N   UNL     1      -8.850   9.956  64.636  1.00  0.00    -0.187 NA 
HETATM   40  C   UNL     1      -6.673  12.002  67.429  1.00  0.00    -0.131 A  
HETATM   41  C   UNL     1      -8.074  12.139  67.315  1.00  0.00    -0.176 A  
HETATM   42  C   UNL     1      -8.781  11.396  66.345  1.00  0.00    -0.185 A  
ENDBRANCH  32  33
ENDBRANCH  27  32
ENDBRANCH  24  27
ENDBRANCH  11  23
ENDBRANCH   7  11
TORSDOF 8
ENDMDL
MODEL       23
REMARK 921   NORMALIZED FREE ENERGY PREDICTED BY IDOCK:   -7.77 KCAL/MOL
REMARK 922        TOTAL FREE ENERGY PREDICTED BY IDOCK:  -13.55 KCAL/MOL
REMARK 923 INTER-LIGAND FREE ENERGY PREDICTED BY IDOCK:  -11.54 KCAL/MOL
REMARK 924 INTRA-LIGAND FREE ENERGY PREDICTED BY IDOCK:   -2.01 KCAL/MOL
REMARK 927      BINDING AFFINITY PREDICTED BY RF-SCORE:    0.00 PKD
ROOT
HETATM    1  C   UNL     1     -10.844   6.066  67.013  1.00  0.00    -0.413 C  
HETATM    2  C   UNL     1      -9.861   6.359  68.163  1.00  0.00    -0.127 C  
HETATM    3  C   UNL     1     -10.312   7.671  69.100  1.00  0.00    -0.213 C  
HETATM    4  N   UNL     1      -8.532   6.642  67.547  1.00  0.00    -0.121 NA 
HETATM    5  C   UNL     1      -9.717   5.009  68.920  1.00  0.00    -0.234 C  
HETATM    6  H2  UNL     1      -8.565   7.388  66.851  1.00  0.00     0.000 HD 
HETATM    7  N   UNL     1      -9.873   8.936  68.693  1.00  0.00    -0.163 N  
HETATM    8  H1  UNL     1      -7.881   6.835  68.309  1.00  0.00     0.000 HD 
HETATM    9  O   UNL     1     -11.037   7.536  70.084  1.00  0.00    -0.260 OA 
HETATM   10  H   UNL     1      -9.171   8.890  67.955  1.00  0.00     0.000 HD 
ENDROOT
BRANCH   7  11
HETATM   11  C   UNL     1     -10.213  10.410  69.112  1.00  0.00    -0.222 C  
BRANCH  11  12
HETATM   12  C   UNL     1     -11.683  11.039  69.118  1.00  0.00    -0.403 C  
BRANCH  12  13
HETATM   13  C   UNL     1     -12.296  11.651  70.468  1.00  0.00    -0.410 A  
HETATM   14  C   UNL     1     -12.805  10.985  71.567  1.00  0.00    -0.450 A  
HETATM   15  C   UNL     1     -12.453  15.547  70.790  1.00  0.00    -0.491 A  
HETATM   16  C   UNL     1     -13.330  15.592  71.870  1.00  0.00    -0.537 A  
HETATM   17  C   UNL     1     -13.727  14.408  72.490  1.00  0.00    -0.589 A  
HETATM   18  N   UNL     1     -13.392  11.898  72.443  1.00  0.00    -0.518 NA 
HETATM   19  C   UNL     1     -12.018  14.314  70.260  1.00  0.00    -0.398 A  
HETATM   20  C   UNL     1     -12.454  13.084  70.820  1.00  0.00    -0.384 A  
HETATM   21  C   UNL     1     -13.245  13.178  71.966  1.00  0.00    -0.446 A  
HETATM   22  H   UNL     1     -13.863  11.650  73.312  1.00  0.00     0.000 HD 
ENDBRANCH  12  13
ENDBRANCH  11  12
BRANCH  11  23
HETATM   23  C   UNL     1      -9.130  11.322  68.474  1.00  0.00    -0.173 C  
HETATM   24  N   UNL     1      -9.325  12.687  68.553  1.00  0.00    -0.381 N  
HETATM   25  H   UNL     1     -10.078  13.058  69.131  1.00  0.00     0.000 HD 
HETATM   26  O   UNL     1      -8.187  10.825  67.852  1.00  0.00    -0.110 OA 
BRANCH  24  27
HETATM   27  C   UNL     1      -8.469  13.591  67.820  1.00  0.00    -0.184 C  
BRANCH  27  28
HETATM   28  N   UNL     1      -8.845  13.556  66.430  1.00  0.00    -0.449 N  
HETATM   29  O   UNL     1     -11.027  14.238  66.769  1.00  0.00    -0.295 OA 
HETATM   30  C   UNL     1     -10.118  13.894  66.029  1.00  0.00    -0.313 C  
HETATM   31  H   UNL     1      -8.157  13.277  65.731  1.00  0.00     0.000 HD 
ENDBRANCH  27  28
BRANCH  27  32
HETATM   32  C   UNL     1      -8.237  15.004  68.396  1.00  0.00    -0.151 C  
BRANCH  32  33
HETATM   33  C   UNL     1      -8.162  16.333  67.662  1.00  0.00    -0.166 A  
HETATM   34  C   UNL     1      -8.266  18.395  66.640  1.00  0.00    -0.266 A  
HETATM   35  H   UNL     1      -6.367  18.198  65.726  1.00  0.00     0.000 HD 
HETATM   36  C   UNL     1      -8.724  19.659  66.235  1.00  0.00    -0.401 A  
HETATM   37  C   UNL     1      -7.009  16.576  66.921  1.00  0.00    -0.223 A  
HETATM   38  C   UNL     1      -9.987  20.053  66.659  1.00  0.00    -0.598 A  
HETATM   39  N   UNL     1      -7.087  17.793  66.325  1.00  0.00    -0.266 NA 
HETATM   40  C   UNL     1     -10.756  19.204  67.454  1.00  0.00    -0.578 A  
HETATM   41  C   UNL     1     -10.274  17.942  67.863  1.00  0.00    -0.375 A  
HETATM   42  C   UNL     1      -8.992  17.509  67.460  1.00  0.00    -0.230 A  
ENDBRANCH  32  33
ENDBRANCH  27  32
ENDBRANCH  24  27
ENDBRANCH  11  23
ENDBRANCH   7  11
TORSDOF 8
ENDMDL
MODEL       24
REMARK 921   NORMALIZED FREE ENERGY PREDICTED BY IDOCK:   -7.75 KCAL/MOL
REMARK 922        TOTAL FREE ENERGY PREDICTED BY IDOCK:  -13.52 KCAL/MOL
REMARK 923 INTER-LIGAND FREE ENERGY PREDICTED BY IDOCK:  -11.97 KCAL/MOL
REMARK 924 INTRA-LIGAND FREE ENERGY PREDICTED BY IDOCK:   -1.55 KCAL/MOL
REMARK 927      BINDING AFFINITY PREDICTED BY RF-SCORE:    0.00 PKD
ROOT
HETATM    1  C   UNL     1     -10.859   7.202  72.754  1.00  0.00    -0.337 C  
HETATM    2  C   UNL     1     -10.944   6.702  71.299  1.00  0.00    -0.253 C  
HETATM    3  C   UNL     1     -10.193   7.724  70.206  1.00  0.00    -0.199 C  
HETATM    4  N   UNL     1     -12.390   6.602  70.949  1.00  0.00    -0.330 NA 
HETATM    5  C   UNL     1     -10.400   5.247  71.343  1.00  0.00    -0.290 C  
HETATM    6  H2  UNL     1     -12.899   7.474  71.102  1.00  0.00     0.000 HD 
HETATM    7  N   UNL     1     -10.958   8.763  69.664  1.00  0.00    -0.396 N  
HETATM    8  H1  UNL     1     -12.446   6.271  69.985  1.00  0.00     0.000 HD 
HETATM    9  O   UNL     1      -9.004   7.595  69.920  1.00  0.00    -0.143 OA 
HETATM   10  H   UNL     1     -11.952   8.670  69.872  1.00  0.00     0.000 HD 
ENDROOT
BRANCH   7  11
HETATM   11  C   UNL     1     -10.638  10.040  68.809  1.00  0.00    -0.217 C  
BRANCH  11  12
HETATM   12  C   UNL     1     -11.448  11.416  68.889  1.00  0.00    -0.363 C  
BRANCH  12  13
HETATM   13  C   UNL     1     -12.157  11.860  70.258  1.00  0.00    -0.409 A  
HETATM   14  C   UNL     1     -12.652  11.063  71.273  1.00  0.00    -0.412 A  
HETATM   15  C   UNL     1     -12.628  15.690  70.904  1.00  0.00    -0.503 A  
HETATM   16  C   UNL     1     -13.545  15.574  71.944  1.00  0.00    -0.580 A  
HETATM   17  C   UNL     1     -13.871  14.314  72.443  1.00  0.00    -0.619 A  
HETATM   18  N   UNL     1     -13.340  11.849  72.197  1.00  0.00    -0.538 NA 
HETATM   19  C   UNL     1     -12.079  14.544  70.290  1.00  0.00    -0.386 A  
HETATM   20  C   UNL     1     -12.439  13.240  70.724  1.00  0.00    -0.403 A  
HETATM   21  C   UNL     1     -13.276  13.174  71.839  1.00  0.00    -0.431 A  
HETATM   22  H   UNL     1     -13.822  11.491  73.021  1.00  0.00     0.000 HD 
ENDBRANCH  12  13
ENDBRANCH  11  12
BRANCH  11  23
HETATM   23  C   UNL     1     -10.346   9.554  67.364  1.00  0.00    -0.258 C  
HETATM   24  N   UNL     1      -9.417  10.268  66.631  1.00  0.00    -0.161 N  
HETATM   25  H   UNL     1      -8.858  10.989  67.087  1.00  0.00     0.000 HD 
HETATM   26  O   UNL     1     -10.991   8.620  66.879  1.00  0.00    -0.065 OA 
BRANCH  24  27
HETATM   27  C   UNL     1      -9.234   9.999  65.223  1.00  0.00    -0.218 C  
BRANCH  27  28
HETATM   28  N   UNL     1      -8.912   8.605  65.058  1.00  0.00    -0.414 N  
HETATM   29  O   UNL     1      -6.727   8.956  64.393  1.00  0.00    -0.077 OA 
HETATM   30  C   UNL     1      -7.658   8.208  64.652  1.00  0.00    -0.111 C  
HETATM   31  H   UNL     1      -9.625   7.900  65.246  1.00  0.00     0.000 HD 
ENDBRANCH  27  28
BRANCH  27  32
HETATM   32  C   UNL     1     -10.285  10.546  64.233  1.00  0.00    -0.314 C  
BRANCH  32  33
HETATM   33  C   UNL     1     -10.922  11.925  64.185  1.00  0.00    -0.430 A  
HETATM   34  C   UNL     1     -11.709  14.090  64.252  1.00  0.00    -0.367 A  
HETATM   35  H   UNL     1     -13.382  13.671  63.024  1.00  0.00     0.000 HD 
HETATM   36  C   UNL     1     -11.818  15.459  64.544  1.00  0.00    -0.257 A  
HETATM   37  C   UNL     1     -12.090  12.050  63.437  1.00  0.00    -0.493 A  
HETATM   38  C   UNL     1     -10.859  16.017  65.380  1.00  0.00    -0.340 A  
HETATM   39  N   UNL     1     -12.541  13.329  63.489  1.00  0.00    -0.724 NA 
HETATM   40  C   UNL     1      -9.839  15.225  65.904  1.00  0.00    -0.385 A  
HETATM   41  C   UNL     1      -9.738  13.852  65.589  1.00  0.00    -0.157 A  
HETATM   42  C   UNL     1     -10.686  13.250  64.735  1.00  0.00    -0.393 A  
ENDBRANCH  32  33
ENDBRANCH  27  32
ENDBRANCH  24  27
ENDBRANCH  11  23
ENDBRANCH   7  11
TORSDOF 8
ENDMDL
MODEL       25
REMARK 921   NORMALIZED FREE ENERGY PREDICTED BY IDOCK:   -7.75 KCAL/MOL
REMARK 922        TOTAL FREE ENERGY PREDICTED BY IDOCK:  -13.52 KCAL/MOL
REMARK 923 INTER-LIGAND FREE ENERGY PREDICTED BY IDOCK:  -11.39 KCAL/MOL
REMARK 924 INTRA-LIGAND FREE ENERGY PREDICTED BY IDOCK:   -2.13 KCAL/MOL
REMARK 927      BINDING AFFINITY PREDICTED BY RF-SCORE:    0.00 PKD
ROOT
HETATM    1  C   UNL     1     -10.119   4.966  70.948  1.00  0.00    -0.292 C  
HETATM    2  C   UNL     1     -10.543   6.014  71.995  1.00  0.00    -0.223 C  
HETATM    3  C   UNL     1     -11.141   7.422  71.314  1.00  0.00    -0.246 C  
HETATM    4  N   UNL     1      -9.335   6.346  72.804  1.00  0.00    -0.141 NA 
HETATM    5  C   UNL     1     -11.515   5.261  72.945  1.00  0.00    -0.339 C  
HETATM    6  H2  UNL     1      -8.544   6.649  72.234  1.00  0.00     0.000 HD 
HETATM    7  N   UNL     1     -10.220   8.428  70.999  1.00  0.00    -0.193 N  
HETATM    8  H1  UNL     1      -9.616   7.040  73.497  1.00  0.00     0.000 HD 
HETATM    9  O   UNL     1     -12.337   7.554  71.060  1.00  0.00    -0.301 OA 
HETATM   10  H   UNL     1      -9.295   8.249  71.388  1.00  0.00     0.000 HD 
ENDROOT
BRANCH   7  11
HETATM   11  C   UNL     1     -10.284   9.768  70.185  1.00  0.00    -0.275 C  
BRANCH  11  12
HETATM   12  C   UNL     1     -11.633  10.542  69.809  1.00  0.00    -0.368 C  
BRANCH  12  13
HETATM   13  C   UNL     1     -12.413  11.394  70.921  1.00  0.00    -0.478 A  
HETATM   14  C   UNL     1     -13.115  10.942  72.023  1.00  0.00    -0.356 A  
HETATM   15  C   UNL     1     -12.427  15.289  70.548  1.00  0.00    -0.454 A  
HETATM   16  C   UNL     1     -13.455  15.542  71.452  1.00  0.00    -0.583 A  
HETATM   17  C   UNL     1     -13.999  14.494  72.194  1.00  0.00    -0.597 A  
HETATM   18  N   UNL     1     -13.783  12.007  72.627  1.00  0.00    -0.355 NA 
HETATM   19  C   UNL     1     -11.978  13.973  70.311  1.00  0.00    -0.409 A  
HETATM   20  C   UNL     1     -12.553  12.869  70.996  1.00  0.00    -0.376 A  
HETATM   21  C   UNL     1     -13.503  13.181  71.970  1.00  0.00    -0.507 A  
HETATM   22  H   UNL     1     -14.392  11.926  73.441  1.00  0.00     0.000 HD 
ENDBRANCH  12  13
ENDBRANCH  11  12
BRANCH  11  23
HETATM   23  C   UNL     1      -9.278   9.632  69.010  1.00  0.00    -0.156 C  
HETATM   24  N   UNL     1      -9.797   9.354  67.761  1.00  0.00    -0.162 N  
HETATM   25  H   UNL     1     -10.805   9.383  67.613  1.00  0.00     0.000 HD 
HETATM   26  O   UNL     1      -8.063   9.687  69.223  1.00  0.00    -0.092 OA 
BRANCH  24  27
HETATM   27  C   UNL     1      -8.919   9.022  66.662  1.00  0.00    -0.135 C  
BRANCH  27  28
HETATM   28  N   UNL     1      -8.510   7.647  66.798  1.00  0.00    -0.123 N  
HETATM   29  O   UNL     1     -10.651   6.779  66.845  1.00  0.00    -0.280 OA 
HETATM   30  C   UNL     1      -9.438   6.634  66.875  1.00  0.00    -0.154 C  
HETATM   31  H   UNL     1      -7.516   7.421  66.837  1.00  0.00     0.000 HD 
ENDBRANCH  27  28
BRANCH  27  32
HETATM   32  C   UNL     1      -9.344   9.437  65.238  1.00  0.00    -0.303 C  
BRANCH  32  33
HETATM   33  C   UNL     1     -10.063  10.698  64.786  1.00  0.00    -0.412 A  
HETATM   34  C   UNL     1     -11.222  12.636  64.331  1.00  0.00    -0.346 A  
HETATM   35  H   UNL     1     -10.745  12.606  62.268  1.00  0.00     0.000 HD 
HETATM   36  C   UNL     1     -12.001  13.792  64.497  1.00  0.00    -0.458 A  
HETATM   37  C   UNL     1      -9.971  11.023  63.436  1.00  0.00    -0.380 A  
HETATM   38  C   UNL     1     -12.500  14.056  65.767  1.00  0.00    -0.523 A  
HETATM   39  N   UNL     1     -10.660  12.165  63.184  1.00  0.00    -0.303 NA 
HETATM   40  C   UNL     1     -12.228  13.186  66.821  1.00  0.00    -0.306 A  
HETATM   41  C   UNL     1     -11.432  12.035  66.638  1.00  0.00    -0.411 A  
HETATM   42  C   UNL     1     -10.898  11.737  65.366  1.00  0.00    -0.347 A  
ENDBRANCH  32  33
ENDBRANCH  27  32
ENDBRANCH  24  27
ENDBRANCH  11  23
ENDBRANCH   7  11
TORSDOF 8
ENDMDL
MODEL       26
REMARK 921   NORMALIZED FREE ENERGY PREDICTED BY IDOCK:   -7.75 KCAL/MOL
REMARK 922        TOTAL FREE ENERGY PREDICTED BY IDOCK:  -13.52 KCAL/MOL
REMARK 923 INTER-LIGAND FREE ENERGY PREDICTED BY IDOCK:  -12.08 KCAL/MOL
REMARK 924 INTRA-LIGAND FREE ENERGY PREDICTED BY IDOCK:   -1.44 KCAL/MOL
REMARK 927      BINDING AFFINITY PREDICTED BY RF-SCORE:    0.00 PKD
ROOT
HETATM    1  C   UNL     1      -9.234  13.080  67.138  1.00  0.00    -0.226 C  
HETATM    2  C   UNL     1      -9.608  11.591  67.268  1.00  0.00    -0.172 C  
HETATM    3  C   UNL     1     -11.007  11.338  68.152  1.00  0.00    -0.231 C  
HETATM    4  N   UNL     1      -8.475  10.907  67.955  1.00  0.00    -0.127 NA 
HETATM    5  C   UNL     1      -9.628  11.054  65.809  1.00  0.00    -0.260 C  
HETATM    6  H2  UNL     1      -8.232  11.337  68.848  1.00  0.00     0.000 HD 
HETATM    7  N   UNL     1     -10.878  11.202  69.539  1.00  0.00    -0.389 N  
HETATM    8  H1  UNL     1      -8.723   9.922  68.041  1.00  0.00     0.000 HD 
HETATM    9  O   UNL     1     -12.112  11.314  67.612  1.00  0.00    -0.600 OA 
HETATM   10  H   UNL     1      -9.908  11.099  69.835  1.00  0.00     0.000 HD 
ENDROOT
BRANCH   7  11
HETATM   11  C   UNL     1     -11.884  11.171  70.744  1.00  0.00    -0.219 C  
BRANCH  11  12
HETATM   12  C   UNL     1     -13.013  10.060  70.959  1.00  0.00    -0.445 C  
BRANCH  12  13
HETATM   13  C   UNL     1     -12.633   8.628  71.574  1.00  0.00    -0.360 A  
HETATM   14  C   UNL     1     -13.416   7.493  71.671  1.00  0.00    -0.365 A  
HETATM   15  C   UNL     1      -9.041   8.181  73.060  1.00  0.00    -0.344 A  
HETATM   16  C   UNL     1      -9.291   7.000  73.753  1.00  0.00    -0.244 A  
HETATM   17  C   UNL     1     -10.527   6.369  73.623  1.00  0.00    -0.311 A  
HETATM   18  N   UNL     1     -12.755   6.526  72.429  1.00  0.00    -0.524 NA 
HETATM   19  C   UNL     1     -10.050   8.795  72.287  1.00  0.00    -0.308 A  
HETATM   20  C   UNL     1     -11.344   8.219  72.184  1.00  0.00    -0.419 A  
HETATM   21  C   UNL     1     -11.515   6.981  72.806  1.00  0.00    -0.168 A  
HETATM   22  H   UNL     1     -13.138   5.612  72.668  1.00  0.00     0.000 HD 
ENDBRANCH  12  13
ENDBRANCH  11  12
BRANCH  11  23
HETATM   23  C   UNL     1     -12.372  12.628  70.962  1.00  0.00    -0.211 C  
HETATM   24  N   UNL     1     -11.647  13.637  70.357  1.00  0.00    -0.522 N  
HETATM   25  H   UNL     1     -10.915  13.402  69.687  1.00  0.00     0.000 HD 
HETATM   26  O   UNL     1     -13.319  12.860  71.720  1.00  0.00    -0.420 OA 
BRANCH  24  27
HETATM   27  C   UNL     1     -11.920  15.021  70.669  1.00  0.00    -0.318 C  
BRANCH  27  28
HETATM   28  N   UNL     1     -11.367  15.320  71.965  1.00  0.00    -0.485 N  
HETATM   29  O   UNL     1     -13.319  16.188  72.847  1.00  0.00    -0.479 OA 
HETATM   30  C   UNL     1     -12.139  15.886  72.953  1.00  0.00    -0.506 C  
HETATM   31  H   UNL     1     -10.387  15.109  72.153  1.00  0.00     0.000 HD 
ENDBRANCH  27  28
BRANCH  27  32
HETATM   32  C   UNL     1     -11.642  16.082  69.582  1.00  0.00    -0.299 C  
BRANCH  32  33
HETATM   33  C   UNL     1     -10.317  16.710  69.180  1.00  0.00    -0.326 A  
HETATM   34  C   UNL     1      -8.437  17.852  68.494  1.00  0.00    -0.298 A  
HETATM   35  H   UNL     1      -7.110  16.317  69.097  1.00  0.00     0.000 HD 
HETATM   36  C   UNL     1      -7.605  18.852  67.968  1.00  0.00    -0.292 A  
HETATM   37  C   UNL     1      -9.168  15.967  69.434  1.00  0.00    -0.235 A  
HETATM   38  C   UNL     1      -8.213  19.989  67.449  1.00  0.00    -0.373 A  
HETATM   39  N   UNL     1      -8.070  16.652  69.022  1.00  0.00    -0.229 NA 
HETATM   40  C   UNL     1      -9.602  20.106  67.456  1.00  0.00    -0.547 A  
HETATM   41  C   UNL     1     -10.423  19.095  68.000  1.00  0.00    -0.461 A  
HETATM   42  C   UNL     1      -9.843  17.929  68.546  1.00  0.00    -0.367 A  
ENDBRANCH  32  33
ENDBRANCH  27  32
ENDBRANCH  24  27
ENDBRANCH  11  23
ENDBRANCH   7  11
TORSDOF 8
ENDMDL
MODEL       27
REMARK 921   NORMALIZED FREE ENERGY PREDICTED BY IDOCK:   -7.74 KCAL/MOL
REMARK 922        TOTAL FREE ENERGY PREDICTED BY IDOCK:  -13.50 KCAL/MOL
REMARK 923 INTER-LIGAND FREE ENERGY PREDICTED BY IDOCK:  -11.64 KCAL/MOL
REMARK 924 INTRA-LIGAND FREE ENERGY PREDICTED BY IDOCK:   -1.87 KCAL/MOL
REMARK 927      BINDING AFFINITY PREDICTED BY RF-SCORE:    0.00 PKD
ROOT
HETATM    1  C   UNL     1      -8.981  12.918  67.692  1.00  0.00    -0.192 C  
HETATM    2  C   UNL     1      -9.151  11.431  68.060  1.00  0.00    -0.171 C  
HETATM    3  C   UNL     1     -10.662  11.077  68.689  1.00  0.00    -0.198 C  
HETATM    4  N   UNL     1      -8.116  11.107  69.084  1.00  0.00    -0.349 NA 
HETATM    5  C   UNL     1      -8.758  10.652  66.774  1.00  0.00    -0.133 C  
HETATM    6  H2  UNL     1      -8.149  11.725  69.895  1.00  0.00     0.000 HD 
HETATM    7  N   UNL     1     -10.834  11.214  70.071  1.00  0.00    -0.456 N  
HETATM    8  H1  UNL     1      -8.229  10.123  69.327  1.00  0.00     0.000 HD 
HETATM    9  O   UNL     1     -11.598  10.749  67.962  1.00  0.00    -0.470 OA 
HETATM   10  H   UNL     1      -9.952  11.351  70.565  1.00  0.00     0.000 HD 
ENDROOT
BRANCH   7  11
HETATM   11  C   UNL     1     -12.072  11.205  71.036  1.00  0.00    -0.275 C  
BRANCH  11  12
HETATM   12  C   UNL     1     -13.251  10.126  70.994  1.00  0.00    -0.412 C  
BRANCH  12  13
HETATM   13  C   UNL     1     -12.970   8.602  71.408  1.00  0.00    -0.285 A  
HETATM   14  C   UNL     1     -13.829   7.521  71.361  1.00  0.00    -0.338 A  
HETATM   15  C   UNL     1      -9.413   7.716  72.776  1.00  0.00    -0.243 A  
HETATM   16  C   UNL     1      -9.742   6.473  73.308  1.00  0.00    -0.181 A  
HETATM   17  C   UNL     1     -11.019   5.950  73.110  1.00  0.00    -0.286 A  
HETATM   18  N   UNL     1     -13.235   6.418  71.974  1.00  0.00    -0.312 NA 
HETATM   19  C   UNL     1     -10.379   8.496  72.105  1.00  0.00    -0.409 A  
HETATM   20  C   UNL     1     -11.710   8.028  71.942  1.00  0.00    -0.351 A  
HETATM   21  C   UNL     1     -11.965   6.733  72.395  1.00  0.00    -0.135 A  
HETATM   22  H   UNL     1     -13.679   5.508  72.094  1.00  0.00     0.000 HD 
ENDBRANCH  12  13
ENDBRANCH  11  12
BRANCH  11  23
HETATM   23  C   UNL     1     -12.555  12.675  71.165  1.00  0.00    -0.258 C  
HETATM   24  N   UNL     1     -11.671  13.667  70.788  1.00  0.00    -0.501 N  
HETATM   25  H   UNL     1     -10.801  13.419  70.317  1.00  0.00     0.000 HD 
HETATM   26  O   UNL     1     -13.654  12.927  71.666  1.00  0.00    -0.264 OA 
BRANCH  24  27
HETATM   27  C   UNL     1     -11.971  15.055  71.059  1.00  0.00    -0.322 C  
BRANCH  27  28
HETATM   28  N   UNL     1     -11.892  15.275  72.480  1.00  0.00    -0.423 N  
HETATM   29  O   UNL     1     -14.061  16.039  72.710  1.00  0.00    -0.509 OA 
HETATM   30  C   UNL     1     -12.972  15.755  73.185  1.00  0.00    -0.544 C  
HETATM   31  H   UNL     1     -11.022  15.072  72.971  1.00  0.00     0.000 HD 
ENDBRANCH  27  28
BRANCH  27  32
HETATM   32  C   UNL     1     -11.282  16.132  70.194  1.00  0.00    -0.374 C  
BRANCH  32  33
HETATM   33  C   UNL     1     -11.020  16.129  68.697  1.00  0.00    -0.336 A  
HETATM   34  C   UNL     1     -10.761  15.930  66.416  1.00  0.00    -0.256 A  
HETATM   35  H   UNL     1      -9.504  17.626  66.266  1.00  0.00     0.000 HD 
HETATM   36  C   UNL     1     -10.879  15.459  65.098  1.00  0.00    -0.447 A  
HETATM   37  C   UNL     1     -10.202  17.142  68.202  1.00  0.00    -0.332 A  
HETATM   38  C   UNL     1     -11.631  14.309  64.890  1.00  0.00    -0.384 A  
HETATM   39  N   UNL     1     -10.059  17.008  66.858  1.00  0.00    -0.289 NA 
HETATM   40  C   UNL     1     -12.231  13.660  65.968  1.00  0.00    -0.492 A  
HETATM   41  C   UNL     1     -12.113  14.154  67.284  1.00  0.00    -0.407 A  
HETATM   42  C   UNL     1     -11.366  15.326  67.536  1.00  0.00    -0.300 A  
ENDBRANCH  32  33
ENDBRANCH  27  32
ENDBRANCH  24  27
ENDBRANCH  11  23
ENDBRANCH   7  11
TORSDOF 8
ENDMDL
MODEL       28
REMARK 921   NORMALIZED FREE ENERGY PREDICTED BY IDOCK:   -7.73 KCAL/MOL
REMARK 922        TOTAL FREE ENERGY PREDICTED BY IDOCK:  -13.49 KCAL/MOL
REMARK 923 INTER-LIGAND FREE ENERGY PREDICTED BY IDOCK:  -11.04 KCAL/MOL
REMARK 924 INTRA-LIGAND FREE ENERGY PREDICTED BY IDOCK:   -2.44 KCAL/MOL
REMARK 927      BINDING AFFINITY PREDICTED BY RF-SCORE:    0.00 PKD
ROOT
HETATM    1  C   UNL     1     -13.379  15.385  70.840  1.00  0.00    -0.476 C  
HETATM    2  C   UNL     1     -11.994  14.916  70.352  1.00  0.00    -0.314 C  
HETATM    3  C   UNL     1     -12.023  13.400  69.644  1.00  0.00    -0.324 C  
HETATM    4  N   UNL     1     -11.096  14.874  71.542  1.00  0.00    -0.539 NA 
HETATM    5  C   UNL     1     -11.476  16.071  69.450  1.00  0.00    -0.336 C  
HETATM    6  H2  UNL     1     -11.466  14.301  72.301  1.00  0.00     0.000 HD 
HETATM    7  N   UNL     1     -11.860  12.292  70.483  1.00  0.00    -0.517 N  
HETATM    8  H1  UNL     1     -10.180  14.564  71.219  1.00  0.00     0.000 HD 
HETATM    9  O   UNL     1     -12.222  13.259  68.438  1.00  0.00    -0.271 OA 
HETATM   10  H   UNL     1     -11.565  12.552  71.424  1.00  0.00     0.000 HD 
ENDROOT
BRANCH   7  11
HETATM   11  C   UNL     1     -12.028  10.741  70.310  1.00  0.00    -0.351 C  
BRANCH  11  12
HETATM   12  C   UNL     1     -12.284   9.713  71.508  1.00  0.00    -0.483 C  
BRANCH  12  13
HETATM   13  C   UNL     1     -11.689   8.226  71.441  1.00  0.00    -0.327 A  
HETATM   14  C   UNL     1     -12.229   7.104  70.840  1.00  0.00    -0.312 A  
HETATM   15  C   UNL     1      -8.263   7.555  73.208  1.00  0.00    -0.163 A  
HETATM   16  C   UNL     1      -8.339   6.165  73.203  1.00  0.00    -0.118 A  
HETATM   17  C   UNL     1      -9.399   5.532  72.555  1.00  0.00    -0.153 A  
HETATM   18  N   UNL     1     -11.470   5.981  71.167  1.00  0.00    -0.243 NA 
HETATM   19  C   UNL     1      -9.286   8.339  72.634  1.00  0.00    -0.350 A  
HETATM   20  C   UNL     1     -10.417   7.734  72.024  1.00  0.00    -0.277 A  
HETATM   21  C   UNL     1     -10.398   6.340  71.947  1.00  0.00    -0.204 A  
HETATM   22  H   UNL     1     -11.682   5.029  70.870  1.00  0.00     0.000 HD 
ENDBRANCH  12  13
ENDBRANCH  11  12
BRANCH  11  23
HETATM   23  C   UNL     1     -10.948  10.281  69.294  1.00  0.00    -0.241 C  
HETATM   24  N   UNL     1     -11.379   9.912  68.035  1.00  0.00    -0.518 N  
HETATM   25  H   UNL     1     -12.347  10.078  67.762  1.00  0.00     0.000 HD 
HETATM   26  O   UNL     1      -9.769  10.173  69.645  1.00  0.00    -0.228 OA 
BRANCH  24  27
HETATM   27  C   UNL     1     -10.466   9.292  67.102  1.00  0.00    -0.249 C  
BRANCH  27  28
HETATM   28  N   UNL     1     -10.902   7.940  66.860  1.00  0.00    -0.453 N  
HETATM   29  O   UNL     1      -9.698   7.001  68.595  1.00  0.00    -0.138 OA 
HETATM   30  C   UNL     1     -10.467   6.901  67.651  1.00  0.00    -0.228 C  
HETATM   31  H   UNL     1     -11.543   7.750  66.090  1.00  0.00     0.000 HD 
ENDBRANCH  27  28
BRANCH  27  32
HETATM   32  C   UNL     1     -10.065  10.082  65.838  1.00  0.00    -0.319 C  
BRANCH  32  33
HETATM   33  C   UNL     1     -10.493  11.476  65.410  1.00  0.00    -0.333 A  
HETATM   34  C   UNL     1     -10.978  13.674  64.914  1.00  0.00    -0.367 A  
HETATM   35  H   UNL     1     -12.481  13.175  63.510  1.00  0.00     0.000 HD 
HETATM   36  C   UNL     1     -10.943  15.077  64.911  1.00  0.00    -0.427 A  
HETATM   37  C   UNL     1     -11.503  11.556  64.454  1.00  0.00    -0.159 A  
HETATM   38  C   UNL     1     -10.058  15.702  65.782  1.00  0.00    -0.394 A  
HETATM   39  N   UNL     1     -11.778  12.856  64.176  1.00  0.00    -0.376 NA 
HETATM   40  C   UNL     1      -9.249  14.940  66.624  1.00  0.00    -0.302 A  
HETATM   41  C   UNL     1      -9.289  13.529  66.605  1.00  0.00    -0.254 A  
HETATM   42  C   UNL     1     -10.167  12.857  65.727  1.00  0.00    -0.298 A  
ENDBRANCH  32  33
ENDBRANCH  27  32
ENDBRANCH  24  27
ENDBRANCH  11  23
ENDBRANCH   7  11
TORSDOF 8
ENDMDL
MODEL       29
REMARK 921   NORMALIZED FREE ENERGY PREDICTED BY IDOCK:   -7.72 KCAL/MOL
REMARK 922        TOTAL FREE ENERGY PREDICTED BY IDOCK:  -13.47 KCAL/MOL
REMARK 923 INTER-LIGAND FREE ENERGY PREDICTED BY IDOCK:  -10.86 KCAL/MOL
REMARK 924 INTRA-LIGAND FREE ENERGY PREDICTED BY IDOCK:   -2.61 KCAL/MOL
REMARK 927      BINDING AFFINITY PREDICTED BY RF-SCORE:    0.00 PKD
ROOT
HETATM    1  C   UNL     1      -9.744   7.593  73.303  1.00  0.00    -0.346 C  
HETATM    2  C   UNL     1     -10.967   7.242  72.433  1.00  0.00    -0.267 C  
HETATM    3  C   UNL     1     -10.697   7.462  70.796  1.00  0.00    -0.232 C  
HETATM    4  N   UNL     1     -12.085   8.132  72.860  1.00  0.00    -0.617 NA 
HETATM    5  C   UNL     1     -11.363   5.801  72.862  1.00  0.00    -0.298 C  
HETATM    6  H2  UNL     1     -11.841   9.123  72.825  1.00  0.00     0.000 HD 
HETATM    7  N   UNL     1     -10.956   8.731  70.264  1.00  0.00    -0.239 N  
HETATM    8  H1  UNL     1     -12.894   7.899  72.284  1.00  0.00     0.000 HD 
HETATM    9  O   UNL     1     -10.247   6.558  70.093  1.00  0.00    -0.185 OA 
HETATM   10  H   UNL     1     -11.454   9.336  70.916  1.00  0.00     0.000 HD 
ENDROOT
BRANCH   7  11
HETATM   11  C   UNL     1     -10.657   9.435  68.893  1.00  0.00    -0.208 C  
BRANCH  11  12
HETATM   12  C   UNL     1      -9.224   9.480  68.186  1.00  0.00    -0.134 C  
BRANCH  12  13
HETATM   13  C   UNL     1      -9.075   9.108  66.633  1.00  0.00    -0.182 A  
HETATM   14  C   UNL     1      -8.590   7.945  66.065  1.00  0.00    -0.150 A  
HETATM   15  C   UNL     1     -10.177  11.791  64.007  1.00  0.00    -0.387 A  
HETATM   16  C   UNL     1      -9.561  11.210  62.903  1.00  0.00    -0.373 A  
HETATM   17  C   UNL     1      -8.936   9.970  63.031  1.00  0.00    -0.272 A  
HETATM   18  N   UNL     1      -8.474   8.107  64.684  1.00  0.00    -0.366 NA 
HETATM   19  C   UNL     1     -10.113  11.181  65.278  1.00  0.00    -0.329 A  
HETATM   20  C   UNL     1      -9.428   9.951  65.464  1.00  0.00    -0.313 A  
HETATM   21  C   UNL     1      -8.919   9.352  64.310  1.00  0.00    -0.160 A  
HETATM   22  H   UNL     1      -8.111   7.402  64.044  1.00  0.00     0.000 HD 
ENDBRANCH  12  13
ENDBRANCH  11  12
BRANCH  11  23
HETATM   23  C   UNL     1     -11.402  10.797  68.914  1.00  0.00    -0.284 C  
HETATM   24  N   UNL     1     -11.262  11.579  70.044  1.00  0.00    -0.489 N  
HETATM   25  H   UNL     1     -10.583  11.319  70.759  1.00  0.00     0.000 HD 
HETATM   26  O   UNL     1     -12.152  11.110  67.985  1.00  0.00    -0.635 OA 
BRANCH  24  27
HETATM   27  C   UNL     1     -12.073  12.762  70.220  1.00  0.00    -0.297 C  
BRANCH  27  28
HETATM   28  N   UNL     1     -12.697  12.704  71.517  1.00  0.00    -0.284 N  
HETATM   29  O   UNL     1     -13.382  10.504  71.339  1.00  0.00    -0.337 OA 
HETATM   30  C   UNL     1     -13.304  11.552  71.963  1.00  0.00    -0.292 C  
HETATM   31  H   UNL     1     -12.690  13.531  72.114  1.00  0.00     0.000 HD 
ENDBRANCH  27  28
BRANCH  27  32
HETATM   32  C   UNL     1     -11.457  14.129  69.854  1.00  0.00    -0.288 C  
BRANCH  32  33
HETATM   33  C   UNL     1     -11.086  14.672  68.484  1.00  0.00    -0.273 A  
HETATM   34  C   UNL     1     -10.715  15.377  66.322  1.00  0.00    -0.312 A  
HETATM   35  H   UNL     1      -8.989  16.493  66.830  1.00  0.00     0.000 HD 
HETATM   36  C   UNL     1     -10.863  15.565  64.938  1.00  0.00    -0.447 A  
HETATM   37  C   UNL     1      -9.959  15.487  68.416  1.00  0.00    -0.214 A  
HETATM   38  C   UNL     1     -11.911  14.906  64.307  1.00  0.00    -0.355 A  
HETATM   39  N   UNL     1      -9.754  15.891  67.137  1.00  0.00    -0.222 NA 
HETATM   40  C   UNL     1     -12.769  14.088  65.042  1.00  0.00    -0.359 A  
HETATM   41  C   UNL     1     -12.612  13.921  66.435  1.00  0.00    -0.314 A  
HETATM   42  C   UNL     1     -11.565  14.581  67.115  1.00  0.00    -0.406 A  
ENDBRANCH  32  33
ENDBRANCH  27  32
ENDBRANCH  24  27
ENDBRANCH  11  23
ENDBRANCH   7  11
TORSDOF 8
ENDMDL
MODEL       30
REMARK 921   NORMALIZED FREE ENERGY PREDICTED BY IDOCK:   -7.71 KCAL/MOL
REMARK 922        TOTAL FREE ENERGY PREDICTED BY IDOCK:  -13.47 KCAL/MOL
REMARK 923 INTER-LIGAND FREE ENERGY PREDICTED BY IDOCK:  -11.80 KCAL/MOL
REMARK 924 INTRA-LIGAND FREE ENERGY PREDICTED BY IDOCK:   -1.66 KCAL/MOL
REMARK 927      BINDING AFFINITY PREDICTED BY RF-SCORE:    0.00 PKD
ROOT
HETATM    1  C   UNL     1     -11.866  15.893  71.983  1.00  0.00    -0.609 C  
HETATM    2  C   UNL     1     -12.424  14.915  70.931  1.00  0.00    -0.330 C  
HETATM    3  C   UNL     1     -11.379  14.660  69.648  1.00  0.00    -0.280 C  
HETATM    4  N   UNL     1     -13.692  15.503  70.409  1.00  0.00    -0.628 NA 
HETATM    5  C   UNL     1     -12.825  13.648  71.736  1.00  0.00    -0.407 C  
HETATM    6  H2  UNL     1     -13.574  16.451  70.050  1.00  0.00     0.000 HD 
HETATM    7  N   UNL     1     -11.465  15.537  68.561  1.00  0.00    -0.347 N  
HETATM    8  H1  UNL     1     -14.061  14.856  69.713  1.00  0.00     0.000 HD 
HETATM    9  O   UNL     1     -10.538  13.762  69.675  1.00  0.00     0.083 OA 
HETATM   10  H   UNL     1     -12.289  16.136  68.604  1.00  0.00     0.000 HD 
ENDROOT
BRANCH   7  11
HETATM   11  C   UNL     1     -10.586  15.809  67.290  1.00  0.00    -0.313 C  
BRANCH  11  12
HETATM   12  C   UNL     1     -10.783  17.045  66.294  1.00  0.00    -0.086 C  
BRANCH  12  13
HETATM   13  C   UNL     1     -10.077  18.453  66.601  1.00  0.00    -0.399 A  
HETATM   14  C   UNL     1     -10.468  19.719  66.209  1.00  0.00    -0.506 A  
HETATM   15  C   UNL     1      -6.781  18.414  68.709  1.00  0.00    -0.267 A  
HETATM   16  C   UNL     1      -6.377  19.713  68.414  1.00  0.00    -0.289 A  
HETATM   17  C   UNL     1      -7.210  20.545  67.668  1.00  0.00    -0.356 A  
HETATM   18  N   UNL     1      -9.478  20.643  66.543  1.00  0.00    -0.649 NA 
HETATM   19  C   UNL     1      -7.990  17.897  68.197  1.00  0.00    -0.265 A  
HETATM   20  C   UNL     1      -8.835  18.691  67.376  1.00  0.00    -0.284 A  
HETATM   21  C   UNL     1      -8.443  20.019  67.196  1.00  0.00    -0.334 A  
HETATM   22  H   UNL     1      -9.517  21.640  66.332  1.00  0.00     0.000 HD 
ENDBRANCH  12  13
ENDBRANCH  11  12
BRANCH  11  23
HETATM   23  C   UNL     1     -10.381  14.444  66.580  1.00  0.00    -0.275 C  
HETATM   24  N   UNL     1     -11.402  13.519  66.680  1.00  0.00    -0.313 N  
HETATM   25  H   UNL     1     -12.297  13.794  67.084  1.00  0.00     0.000 HD 
HETATM   26  O   UNL     1      -9.308  14.184  66.029  1.00  0.00    -0.203 OA 
BRANCH  24  27
HETATM   27  C   UNL     1     -11.210  12.164  66.216  1.00  0.00    -0.334 C  
BRANCH  27  28
HETATM   28  N   UNL     1     -11.201  12.167  64.776  1.00  0.00    -0.314 N  
HETATM   29  O   UNL     1     -13.497  12.285  64.537  1.00  0.00    -0.686 OA 
HETATM   30  C   UNL     1     -12.374  12.232  64.058  1.00  0.00    -0.475 C  
HETATM   31  H   UNL     1     -10.311  12.121  64.280  1.00  0.00     0.000 HD 
ENDBRANCH  27  28
BRANCH  27  32
HETATM   32  C   UNL     1     -10.096  11.319  66.872  1.00  0.00    -0.246 C  
BRANCH  32  33
HETATM   33  C   UNL     1     -10.094  10.632  68.227  1.00  0.00    -0.176 A  
HETATM   34  C   UNL     1     -10.321   9.652  70.300  1.00  0.00    -0.280 A  
HETATM   35  H   UNL     1      -8.312   8.988  70.366  1.00  0.00     0.000 HD 
HETATM   36  C   UNL     1     -10.881   9.207  71.509  1.00  0.00    -0.436 A  
HETATM   37  C   UNL     1      -8.897  10.047  68.631  1.00  0.00    -0.132 A  
HETATM   38  C   UNL     1     -12.206   9.536  71.765  1.00  0.00    -0.465 A  
HETATM   39  N   UNL     1      -9.047   9.477  69.855  1.00  0.00    -0.200 NA 
HETATM   40  C   UNL     1     -12.932  10.289  70.843  1.00  0.00    -0.456 A  
HETATM   41  C   UNL     1     -12.357  10.717  69.627  1.00  0.00    -0.262 A  
HETATM   42  C   UNL     1     -11.016  10.395  69.325  1.00  0.00    -0.287 A  
ENDBRANCH  32  33
ENDBRANCH  27  32
ENDBRANCH  24  27
ENDBRANCH  11  23
ENDBRANCH   7  11
TORSDOF 8
ENDMDL
MODEL       31
REMARK 921   NORMALIZED FREE ENERGY PREDICTED BY IDOCK:   -7.71 KCAL/MOL
REMARK 922        TOTAL FREE ENERGY PREDICTED BY IDOCK:  -13.46 KCAL/MOL
REMARK 923 INTER-LIGAND FREE ENERGY PREDICTED BY IDOCK:  -11.12 KCAL/MOL
REMARK 924 INTRA-LIGAND FREE ENERGY PREDICTED BY IDOCK:   -2.34 KCAL/MOL
REMARK 927      BINDING AFFINITY PREDICTED BY RF-SCORE:    0.00 PKD
ROOT
HETATM    1  C   UNL     1      -9.212   5.952  67.999  1.00  0.00    -0.112 C  
HETATM    2  C   UNL     1      -9.304   7.301  67.259  1.00  0.00    -0.132 C  
HETATM    3  C   UNL     1      -9.215   8.622  68.283  1.00  0.00    -0.137 C  
HETATM    4  N   UNL     1     -10.617   7.329  66.551  1.00  0.00    -0.479 NA 
HETATM    5  C   UNL     1      -8.211   7.228  66.156  1.00  0.00    -0.131 C  
HETATM    6  H2  UNL     1     -11.409   7.159  67.173  1.00  0.00     0.000 HD 
HETATM    7  N   UNL     1     -10.411   9.092  68.836  1.00  0.00    -0.222 N  
HETATM    8  H1  UNL     1     -10.678   8.221  66.061  1.00  0.00     0.000 HD 
HETATM    9  O   UNL     1      -8.135   9.137  68.573  1.00  0.00    -0.101 OA 
HETATM   10  H   UNL     1     -11.235   8.672  68.406  1.00  0.00     0.000 HD 
ENDROOT
BRANCH   7  11
HETATM   11  C   UNL     1     -10.777  10.117  69.967  1.00  0.00    -0.305 C  
BRANCH  11  12
HETATM   12  C   UNL     1     -11.309   9.717  71.421  1.00  0.00    -0.444 C  
BRANCH  12  13
HETATM   13  C   UNL     1     -11.795   8.218  71.721  1.00  0.00    -0.357 A  
HETATM   14  C   UNL     1     -13.085   7.732  71.828  1.00  0.00    -0.322 A  
HETATM   15  C   UNL     1      -9.045   5.490  72.274  1.00  0.00    -0.149 A  
HETATM   16  C   UNL     1      -9.877   4.521  72.827  1.00  0.00    -0.191 A  
HETATM   17  C   UNL     1     -11.252   4.743  72.891  1.00  0.00    -0.286 A  
HETATM   18  N   UNL     1     -13.056   6.409  72.268  1.00  0.00    -0.471 NA 
HETATM   19  C   UNL     1      -9.562   6.732  71.846  1.00  0.00    -0.150 A  
HETATM   20  C   UNL     1     -10.948   7.023  71.957  1.00  0.00    -0.264 A  
HETATM   21  C   UNL     1     -11.758   5.983  72.417  1.00  0.00    -0.271 A  
HETATM   22  H   UNL     1     -13.881   5.839  72.453  1.00  0.00     0.000 HD 
ENDBRANCH  12  13
ENDBRANCH  11  12
BRANCH  11  23
HETATM   23  C   UNL     1     -11.567  11.271  69.293  1.00  0.00    -0.322 C  
HETATM   24  N   UNL     1     -11.248  12.561  69.669  1.00  0.00    -0.482 N  
HETATM   25  H   UNL     1     -10.431  12.730  70.256  1.00  0.00     0.000 HD 
HETATM   26  O   UNL     1     -12.496  11.020  68.521  1.00  0.00    -0.440 OA 
BRANCH  24  27
HETATM   27  C   UNL     1     -12.063  13.672  69.235  1.00  0.00    -0.314 C  
BRANCH  27  28
HETATM   28  N   UNL     1     -12.218  14.588  70.336  1.00  0.00    -0.308 N  
HETATM   29  O   UNL     1     -13.296  13.090  71.727  1.00  0.00    -0.416 OA 
HETATM   30  C   UNL     1     -12.832  14.198  71.505  1.00  0.00    -0.354 C  
HETATM   31  H   UNL     1     -11.866  15.541  70.248  1.00  0.00     0.000 HD 
ENDBRANCH  27  28
BRANCH  27  32
HETATM   32  C   UNL     1     -11.735  14.333  67.879  1.00  0.00    -0.394 C  
BRANCH  32  33
HETATM   33  C   UNL     1     -11.739  13.714  66.491  1.00  0.00    -0.414 A  
HETATM   34  C   UNL     1     -11.573  12.628  64.466  1.00  0.00    -0.345 A  
HETATM   35  H   UNL     1     -13.068  13.812  63.546  1.00  0.00     0.000 HD 
HETATM   36  C   UNL     1     -11.166  11.732  63.465  1.00  0.00    -0.494 A  
HETATM   37  C   UNL     1     -12.633  14.250  65.568  1.00  0.00    -0.413 A  
HETATM   38  C   UNL     1     -10.147  10.839  63.774  1.00  0.00    -0.391 A  
HETATM   39  N   UNL     1     -12.521  13.601  64.381  1.00  0.00    -0.635 NA 
HETATM   40  C   UNL     1      -9.561  10.856  65.040  1.00  0.00    -0.299 A  
HETATM   41  C   UNL     1      -9.992  11.756  66.038  1.00  0.00    -0.258 A  
HETATM   42  C   UNL     1     -11.032  12.672  65.766  1.00  0.00    -0.313 A  
ENDBRANCH  32  33
ENDBRANCH  27  32
ENDBRANCH  24  27
ENDBRANCH  11  23
ENDBRANCH   7  11
TORSDOF 8
ENDMDL
MODEL       32
REMARK 921   NORMALIZED FREE ENERGY PREDICTED BY IDOCK:   -7.69 KCAL/MOL
REMARK 922        TOTAL FREE ENERGY PREDICTED BY IDOCK:  -13.43 KCAL/MOL
REMARK 923 INTER-LIGAND FREE ENERGY PREDICTED BY IDOCK:  -11.32 KCAL/MOL
REMARK 924 INTRA-LIGAND FREE ENERGY PREDICTED BY IDOCK:   -2.11 KCAL/MOL
REMARK 927      BINDING AFFINITY PREDICTED BY RF-SCORE:    0.00 PKD
ROOT
HETATM    1  C   UNL     1     -11.795  15.406  72.027  1.00  0.00    -0.523 C  
HETATM    2  C   UNL     1     -12.883  14.623  71.266  1.00  0.00    -0.335 C  
HETATM    3  C   UNL     1     -12.343  13.988  69.814  1.00  0.00    -0.291 C  
HETATM    4  N   UNL     1     -13.999  15.573  70.989  1.00  0.00    -0.833 NA 
HETATM    5  C   UNL     1     -13.425  13.591  72.292  1.00  0.00    -0.669 C  
HETATM    6  H2  UNL     1     -13.695  16.414  70.498  1.00  0.00     0.000 HD 
HETATM    7  N   UNL     1     -12.439  14.799  68.678  1.00  0.00    -0.520 N  
HETATM    8  H1  UNL     1     -14.719  15.055  70.486  1.00  0.00     0.000 HD 
HETATM    9  O   UNL     1     -11.842  12.866  69.752  1.00  0.00    -0.312 OA 
HETATM   10  H   UNL     1     -12.998  15.637  68.840  1.00  0.00     0.000 HD 
ENDROOT
BRANCH   7  11
HETATM   11  C   UNL     1     -11.886  14.717  67.212  1.00  0.00    -0.351 C  
BRANCH  11  12
HETATM   12  C   UNL     1     -12.300  13.600  66.144  1.00  0.00    -0.476 C  
BRANCH  12  13
HETATM   13  C   UNL     1     -11.181  12.666  65.474  1.00  0.00    -0.337 A  
HETATM   14  C   UNL     1     -10.466  12.873  64.310  1.00  0.00    -0.407 A  
HETATM   15  C   UNL     1     -10.296   9.309  67.278  1.00  0.00    -0.332 A  
HETATM   16  C   UNL     1      -9.614   8.721  66.217  1.00  0.00    -0.328 A  
HETATM   17  C   UNL     1      -9.385   9.452  65.052  1.00  0.00    -0.258 A  
HETATM   18  N   UNL     1      -9.723  11.733  64.003  1.00  0.00    -0.447 NA 
HETATM   19  C   UNL     1     -10.830  10.610  67.166  1.00  0.00    -0.328 A  
HETATM   20  C   UNL     1     -10.677  11.362  65.970  1.00  0.00    -0.318 A  
HETATM   21  C   UNL     1      -9.895  10.776  64.974  1.00  0.00    -0.288 A  
HETATM   22  H   UNL     1      -9.136  11.625  63.177  1.00  0.00     0.000 HD 
ENDBRANCH  12  13
ENDBRANCH  11  12
BRANCH  11  23
HETATM   23  C   UNL     1     -10.360  14.993  67.288  1.00  0.00    -0.249 C  
HETATM   24  N   UNL     1      -9.695  14.567  68.422  1.00  0.00    -0.218 N  
HETATM   25  H   UNL     1     -10.176  13.975  69.098  1.00  0.00     0.000 HD 
HETATM   26  O   UNL     1      -9.801  15.645  66.401  1.00  0.00    -0.244 OA 
BRANCH  24  27
HETATM   27  C   UNL     1      -8.324  14.956  68.654  1.00  0.00    -0.164 C  
BRANCH  27  28
HETATM   28  N   UNL     1      -7.520  14.493  67.551  1.00  0.00    -0.185 N  
HETATM   29  O   UNL     1      -7.730  12.246  68.048  1.00  0.00    -0.112 OA 
HETATM   30  C   UNL     1      -7.298  13.150  67.349  1.00  0.00    -0.111 C  
HETATM   31  H   UNL     1      -7.110  15.172  66.910  1.00  0.00     0.000 HD 
ENDBRANCH  27  28
BRANCH  27  32
HETATM   32  C   UNL     1      -8.042  16.407  69.100  1.00  0.00    -0.198 C  
BRANCH  32  33
HETATM   33  C   UNL     1      -7.976  17.669  68.256  1.00  0.00    -0.272 A  
HETATM   34  C   UNL     1      -7.712  19.469  66.841  1.00  0.00    -0.254 A  
HETATM   35  H   UNL     1      -9.127  20.664  67.866  1.00  0.00     0.000 HD 
HETATM   36  C   UNL     1      -7.263  20.278  65.786  1.00  0.00    -0.261 A  
HETATM   37  C   UNL     1      -8.804  18.721  68.636  1.00  0.00    -0.325 A  
HETATM   38  C   UNL     1      -6.281  19.761  64.949  1.00  0.00    -0.318 A  
HETATM   39  N   UNL     1      -8.634  19.774  67.794  1.00  0.00    -0.320 NA 
HETATM   40  C   UNL     1      -5.771  18.483  65.174  1.00  0.00    -0.250 A  
HETATM   41  C   UNL     1      -6.243  17.678  66.234  1.00  0.00    -0.272 A  
HETATM   42  C   UNL     1      -7.247  18.164  67.100  1.00  0.00    -0.216 A  
ENDBRANCH  32  33
ENDBRANCH  27  32
ENDBRANCH  24  27
ENDBRANCH  11  23
ENDBRANCH   7  11
TORSDOF 8
ENDMDL
MODEL       33
REMARK 921   NORMALIZED FREE ENERGY PREDICTED BY IDOCK:   -7.68 KCAL/MOL
REMARK 922        TOTAL FREE ENERGY PREDICTED BY IDOCK:  -13.42 KCAL/MOL
REMARK 923 INTER-LIGAND FREE ENERGY PREDICTED BY IDOCK:  -11.43 KCAL/MOL
REMARK 924 INTRA-LIGAND FREE ENERGY PREDICTED BY IDOCK:   -1.99 KCAL/MOL
REMARK 927      BINDING AFFINITY PREDICTED BY RF-SCORE:    0.00 PKD
ROOT
HETATM    1  C   UNL     1     -14.410  15.837  71.876  1.00  0.00    -0.235 C  
HETATM    2  C   UNL     1     -13.001  15.464  72.376  1.00  0.00    -0.402 C  
HETATM    3  C   UNL     1     -11.804  15.738  71.238  1.00  0.00    -0.437 C  
HETATM    4  N   UNL     1     -13.021  14.012  72.713  1.00  0.00    -0.420 NA 
HETATM    5  C   UNL     1     -12.838  16.227  73.720  1.00  0.00    -0.562 C  
HETATM    6  H2  UNL     1     -13.338  13.427  71.940  1.00  0.00     0.000 HD 
HETATM    7  N   UNL     1     -11.521  14.704  70.338  1.00  0.00    -0.379 N  
HETATM    8  H1  UNL     1     -12.088  13.765  73.045  1.00  0.00     0.000 HD 
HETATM    9  O   UNL     1     -11.223  16.820  71.166  1.00  0.00    -0.060 OA 
HETATM   10  H   UNL     1     -11.967  13.825  70.597  1.00  0.00     0.000 HD 
ENDROOT
BRANCH   7  11
HETATM   11  C   UNL     1     -10.674  14.587  69.022  1.00  0.00    -0.251 C  
BRANCH  11  12
HETATM   12  C   UNL     1     -11.069  15.254  67.623  1.00  0.00    -0.323 C  
BRANCH  12  13
HETATM   13  C   UNL     1     -10.074  16.291  66.910  1.00  0.00    -0.278 A  
HETATM   14  C   UNL     1      -9.099  16.042  65.963  1.00  0.00    -0.326 A  
HETATM   15  C   UNL     1     -10.331  20.057  67.939  1.00  0.00    -0.506 A  
HETATM   16  C   UNL     1      -9.122  20.467  67.384  1.00  0.00    -0.484 A  
HETATM   17  C   UNL     1      -8.363  19.567  66.637  1.00  0.00    -0.340 A  
HETATM   18  N   UNL     1      -8.350  17.197  65.741  1.00  0.00    -0.466 NA 
HETATM   19  C   UNL     1     -10.765  18.719  67.824  1.00  0.00    -0.406 A  
HETATM   20  C   UNL     1      -9.987  17.756  67.129  1.00  0.00    -0.322 A  
HETATM   21  C   UNL     1      -8.838  18.235  66.498  1.00  0.00    -0.271 A  
HETATM   22  H   UNL     1      -7.553  17.262  65.109  1.00  0.00     0.000 HD 
ENDBRANCH  12  13
ENDBRANCH  11  12
BRANCH  11  23
HETATM   23  C   UNL     1     -10.205  13.111  68.916  1.00  0.00    -0.005 C  
HETATM   24  N   UNL     1     -11.032  12.143  69.451  1.00  0.00    -0.447 N  
HETATM   25  H   UNL     1     -11.968  12.396  69.768  1.00  0.00     0.000 HD 
HETATM   26  O   UNL     1      -9.095  12.843  68.447  1.00  0.00    -0.190 OA 
BRANCH  24  27
HETATM   27  C   UNL     1     -10.579  10.776  69.565  1.00  0.00    -0.196 C  
BRANCH  27  28
HETATM   28  N   UNL     1     -10.952  10.274  70.863  1.00  0.00    -0.356 N  
HETATM   29  O   UNL     1     -13.227  10.543  70.564  1.00  0.00    -0.282 OA 
HETATM   30  C   UNL     1     -12.272  10.202  71.245  1.00  0.00    -0.398 C  
HETATM   31  H   UNL     1     -10.225   9.967  71.509  1.00  0.00     0.000 HD 
ENDBRANCH  27  28
BRANCH  27  32
HETATM   32  C   UNL     1     -10.859   9.814  68.391  1.00  0.00    -0.244 C  
BRANCH  32  33
HETATM   33  C   UNL     1     -10.429   9.934  66.938  1.00  0.00    -0.284 A  
HETATM   34  C   UNL     1      -9.892  10.326  64.732  1.00  0.00    -0.334 A  
HETATM   35  H   UNL     1      -8.829   8.508  64.518  1.00  0.00     0.000 HD 
HETATM   36  C   UNL     1      -9.791  10.944  63.475  1.00  0.00    -0.407 A  
HETATM   37  C   UNL     1      -9.676   8.884  66.418  1.00  0.00    -0.262 A  
HETATM   38  C   UNL     1     -10.440  12.161  63.302  1.00  0.00    -0.360 A  
HETATM   39  N   UNL     1      -9.370   9.130  65.118  1.00  0.00    -0.180 NA 
HETATM   40  C   UNL     1     -11.163  12.725  64.352  1.00  0.00    -0.390 A  
HETATM   41  C   UNL     1     -11.242  12.096  65.613  1.00  0.00    -0.381 A  
HETATM   42  C   UNL     1     -10.589  10.863  65.831  1.00  0.00    -0.244 A  
ENDBRANCH  32  33
ENDBRANCH  27  32
ENDBRANCH  24  27
ENDBRANCH  11  23
ENDBRANCH   7  11
TORSDOF 8
ENDMDL
MODEL       34
REMARK 921   NORMALIZED FREE ENERGY PREDICTED BY IDOCK:   -7.65 KCAL/MOL
REMARK 922        TOTAL FREE ENERGY PREDICTED BY IDOCK:  -13.38 KCAL/MOL
REMARK 923 INTER-LIGAND FREE ENERGY PREDICTED BY IDOCK:  -10.54 KCAL/MOL
REMARK 924 INTRA-LIGAND FREE ENERGY PREDICTED BY IDOCK:   -2.84 KCAL/MOL
REMARK 927      BINDING AFFINITY PREDICTED BY RF-SCORE:    0.00 PKD
ROOT
HETATM    1  C   UNL     1     -11.508  15.503  72.309  1.00  0.00    -0.496 C  
HETATM    2  C   UNL     1     -12.821  15.028  71.656  1.00  0.00    -0.345 C  
HETATM    3  C   UNL     1     -12.847  13.382  71.352  1.00  0.00    -0.333 C  
HETATM    4  N   UNL     1     -12.962  15.759  70.364  1.00  0.00    -0.714 NA 
HETATM    5  C   UNL     1     -13.946  15.559  72.588  1.00  0.00    -0.617 C  
HETATM    6  H2  UNL     1     -12.151  15.651  69.754  1.00  0.00     0.000 HD 
HETATM    7  N   UNL     1     -12.334  12.944  70.126  1.00  0.00    -0.232 N  
HETATM    8  H1  UNL     1     -13.831  15.444  69.932  1.00  0.00     0.000 HD 
HETATM    9  O   UNL     1     -13.263  12.582  72.189  1.00  0.00    -0.483 OA 
HETATM   10  H   UNL     1     -12.158  13.711  69.477  1.00  0.00     0.000 HD 
ENDROOT
BRANCH   7  11
HETATM   11  C   UNL     1     -11.966  11.544  69.519  1.00  0.00    -0.335 C  
BRANCH  11  12
HETATM   12  C   UNL     1     -11.025  10.463  70.230  1.00  0.00    -0.353 C  
BRANCH  12  13
HETATM   13  C   UNL     1     -11.661   9.154  70.903  1.00  0.00    -0.341 A  
HETATM   14  C   UNL     1     -12.936   8.973  71.407  1.00  0.00    -0.291 A  
HETATM   15  C   UNL     1      -9.379   5.995  71.248  1.00  0.00    -0.170 A  
HETATM   16  C   UNL     1     -10.182   5.305  72.153  1.00  0.00    -0.252 A  
HETATM   17  C   UNL     1     -11.426   5.822  72.510  1.00  0.00    -0.349 A  
HETATM   18  N   UNL     1     -13.016   7.742  72.057  1.00  0.00    -0.466 NA 
HETATM   19  C   UNL     1      -9.772   7.253  70.744  1.00  0.00    -0.171 A  
HETATM   20  C   UNL     1     -11.001   7.846  71.136  1.00  0.00    -0.262 A  
HETATM   21  C   UNL     1     -11.821   7.071  71.958  1.00  0.00    -0.298 A  
HETATM   22  H   UNL     1     -13.844   7.390  72.538  1.00  0.00     0.000 HD 
ENDBRANCH  12  13
ENDBRANCH  11  12
BRANCH  11  23
HETATM   23  C   UNL     1     -11.657  11.770  68.015  1.00  0.00    -0.316 C  
HETATM   24  N   UNL     1     -10.673  10.985  67.446  1.00  0.00    -0.240 N  
HETATM   25  H   UNL     1     -10.283  10.203  67.970  1.00  0.00     0.000 HD 
HETATM   26  O   UNL     1     -12.218  12.678  67.395  1.00  0.00    -0.406 OA 
BRANCH  24  27
HETATM   27  C   UNL     1     -10.196  11.266  66.111  1.00  0.00    -0.245 C  
BRANCH  27  28
HETATM   28  N   UNL     1      -9.263  12.362  66.176  1.00  0.00    -0.397 N  
HETATM   29  O   UNL     1      -7.914  11.413  67.796  1.00  0.00    -0.111 OA 
HETATM   30  C   UNL     1      -8.185  12.327  67.031  1.00  0.00    -0.155 C  
HETATM   31  H   UNL     1      -9.404  13.176  65.580  1.00  0.00     0.000 HD 
ENDBRANCH  27  28
BRANCH  27  32
HETATM   32  C   UNL     1      -9.745  10.079  65.233  1.00  0.00    -0.373 C  
BRANCH  32  33
HETATM   33  C   UNL     1      -9.183   8.734  65.663  1.00  0.00    -0.244 A  
HETATM   34  C   UNL     1      -8.546   6.651  66.414  1.00  0.00    -0.130 A  
HETATM   35  H   UNL     1      -6.588   6.807  65.624  1.00  0.00     0.000 HD 
HETATM   36  C   UNL     1      -8.583   5.384  67.018  1.00  0.00    -0.109 A  
HETATM   37  C   UNL     1      -7.865   8.462  65.305  1.00  0.00    -0.111 A  
HETATM   38  C   UNL     1      -9.756   5.013  67.665  1.00  0.00    -0.188 A  
HETATM   39  N   UNL     1      -7.505   7.233  65.757  1.00  0.00    -0.081 NA 
HETATM   40  C   UNL     1     -10.840   5.888  67.706  1.00  0.00    -0.326 A  
HETATM   41  C   UNL     1     -10.789   7.153  67.082  1.00  0.00    -0.403 A  
HETATM   42  C   UNL     1      -9.619   7.563  66.406  1.00  0.00    -0.194 A  
ENDBRANCH  32  33
ENDBRANCH  27  32
ENDBRANCH  24  27
ENDBRANCH  11  23
ENDBRANCH   7  11
TORSDOF 8
ENDMDL
MODEL       35
REMARK 921   NORMALIZED FREE ENERGY PREDICTED BY IDOCK:   -7.64 KCAL/MOL
REMARK 922        TOTAL FREE ENERGY PREDICTED BY IDOCK:  -13.35 KCAL/MOL
REMARK 923 INTER-LIGAND FREE ENERGY PREDICTED BY IDOCK:  -11.42 KCAL/MOL
REMARK 924 INTRA-LIGAND FREE ENERGY PREDICTED BY IDOCK:   -1.93 KCAL/MOL
REMARK 927      BINDING AFFINITY PREDICTED BY RF-SCORE:    0.00 PKD
ROOT
HETATM    1  C   UNL     1     -11.858  15.616  72.212  1.00  0.00    -0.578 C  
HETATM    2  C   UNL     1     -12.858  14.907  71.278  1.00  0.00    -0.348 C  
HETATM    3  C   UNL     1     -12.176  13.640  70.422  1.00  0.00    -0.363 C  
HETATM    4  N   UNL     1     -13.360  15.926  70.311  1.00  0.00    -0.601 NA 
HETATM    5  C   UNL     1     -14.060  14.534  72.189  1.00  0.00    -0.616 C  
HETATM    6  H2  UNL     1     -12.610  16.401  69.807  1.00  0.00     0.000 HD 
HETATM    7  N   UNL     1     -11.576  13.940  69.194  1.00  0.00    -0.291 N  
HETATM    8  H1  UNL     1     -14.022  15.456  69.694  1.00  0.00     0.000 HD 
HETATM    9  O   UNL     1     -12.164  12.495  70.872  1.00  0.00    -0.347 OA 
HETATM   10  H   UNL     1     -11.781  14.887  68.877  1.00  0.00     0.000 HD 
ENDROOT
BRANCH   7  11
HETATM   11  C   UNL     1     -10.661  13.153  68.190  1.00  0.00    -0.242 C  
BRANCH  11  12
HETATM   12  C   UNL     1     -10.290  13.649  66.716  1.00  0.00    -0.268 C  
BRANCH  12  13
HETATM   13  C   UNL     1      -9.799  15.156  66.468  1.00  0.00    -0.278 A  
HETATM   14  C   UNL     1     -10.525  16.236  66.001  1.00  0.00    -0.331 A  
HETATM   15  C   UNL     1      -6.054  15.998  67.226  1.00  0.00    -0.133 A  
HETATM   16  C   UNL     1      -6.017  17.218  66.557  1.00  0.00    -0.244 A  
HETATM   17  C   UNL     1      -7.186  17.744  66.009  1.00  0.00    -0.322 A  
HETATM   18  N   UNL     1      -9.671  17.315  65.771  1.00  0.00    -0.544 NA 
HETATM   19  C   UNL     1      -7.245  15.243  67.291  1.00  0.00    -0.213 A  
HETATM   20  C   UNL     1      -8.441  15.712  66.686  1.00  0.00    -0.323 A  
HETATM   21  C   UNL     1      -8.383  16.987  66.122  1.00  0.00    -0.241 A  
HETATM   22  H   UNL     1      -9.962  18.217  65.397  1.00  0.00     0.000 HD 
ENDBRANCH  12  13
ENDBRANCH  11  12
BRANCH  11  23
HETATM   23  C   UNL     1     -11.076  11.660  68.276  1.00  0.00    -0.234 C  
HETATM   24  N   UNL     1     -10.194  10.791  68.889  1.00  0.00    -0.195 N  
HETATM   25  H   UNL     1      -9.380  11.160  69.382  1.00  0.00     0.000 HD 
HETATM   26  O   UNL     1     -12.115  11.271  67.736  1.00  0.00    -0.631 OA 
BRANCH  24  27
HETATM   27  C   UNL     1     -10.417   9.365  68.837  1.00  0.00    -0.216 C  
BRANCH  27  28
HETATM   28  N   UNL     1     -11.475   9.030  69.755  1.00  0.00    -0.439 N  
HETATM   29  O   UNL     1     -10.216   9.333  71.670  1.00  0.00    -0.332 OA 
HETATM   30  C   UNL     1     -11.268   9.049  71.116  1.00  0.00    -0.305 C  
HETATM   31  H   UNL     1     -12.393   8.774  69.391  1.00  0.00     0.000 HD 
ENDBRANCH  27  28
BRANCH  27  32
HETATM   32  C   UNL     1     -10.521   8.693  67.451  1.00  0.00    -0.351 C  
BRANCH  32  33
HETATM   33  C   UNL     1      -9.681   8.936  66.208  1.00  0.00    -0.345 A  
HETATM   34  C   UNL     1      -8.563   9.480  64.268  1.00  0.00    -0.198 A  
HETATM   35  H   UNL     1      -7.073   8.002  64.543  1.00  0.00     0.000 HD 
HETATM   36  C   UNL     1      -8.212  10.117  63.067  1.00  0.00    -0.158 A  
HETATM   37  C   UNL     1      -8.564   8.123  66.037  1.00  0.00    -0.147 A  
HETATM   38  C   UNL     1      -9.048  11.127  62.605  1.00  0.00    -0.366 A  
HETATM   39  N   UNL     1      -7.918   8.455  64.889  1.00  0.00    -0.128 NA 
HETATM   40  C   UNL     1     -10.192  11.473  63.323  1.00  0.00    -0.432 A  
HETATM   41  C   UNL     1     -10.523  10.830  64.535  1.00  0.00    -0.351 A  
HETATM   42  C   UNL     1      -9.694   9.805  65.043  1.00  0.00    -0.303 A  
ENDBRANCH  32  33
ENDBRANCH  27  32
ENDBRANCH  24  27
ENDBRANCH  11  23
ENDBRANCH   7  11
TORSDOF 8
ENDMDL
MODEL       36
REMARK 921   NORMALIZED FREE ENERGY PREDICTED BY IDOCK:   -7.63 KCAL/MOL
REMARK 922        TOTAL FREE ENERGY PREDICTED BY IDOCK:  -13.34 KCAL/MOL
REMARK 923 INTER-LIGAND FREE ENERGY PREDICTED BY IDOCK:  -11.00 KCAL/MOL
REMARK 924 INTRA-LIGAND FREE ENERGY PREDICTED BY IDOCK:   -2.34 KCAL/MOL
REMARK 927      BINDING AFFINITY PREDICTED BY RF-SCORE:    0.00 PKD
ROOT
HETATM    1  C   UNL     1     -12.000  14.745  71.034  1.00  0.00    -0.389 C  
HETATM    2  C   UNL     1     -11.186  14.800  69.727  1.00  0.00    -0.273 C  
HETATM    3  C   UNL     1     -11.208  13.358  68.876  1.00  0.00    -0.276 C  
HETATM    4  N   UNL     1      -9.776  15.119  70.096  1.00  0.00    -0.446 NA 
HETATM    5  C   UNL     1     -11.733  16.039  68.966  1.00  0.00    -0.322 C  
HETATM    6  H2  UNL     1      -9.387  14.471  70.782  1.00  0.00     0.000 HD 
HETATM    7  N   UNL     1     -10.229  12.408  69.190  1.00  0.00    -0.411 N  
HETATM    8  H1  UNL     1      -9.237  15.155  69.231  1.00  0.00     0.000 HD 
HETATM    9  O   UNL     1     -12.075  13.123  68.036  1.00  0.00    -0.325 OA 
HETATM   10  H   UNL     1      -9.497  12.783  69.793  1.00  0.00     0.000 HD 
ENDROOT
BRANCH   7  11
HETATM   11  C   UNL     1      -9.999  10.898  68.827  1.00  0.00    -0.195 C  
BRANCH  11  12
HETATM   12  C   UNL     1      -9.433   9.795  69.838  1.00  0.00    -0.264 C  
BRANCH  12  13
HETATM   13  C   UNL     1     -10.387   8.622  70.372  1.00  0.00    -0.225 A  
HETATM   14  C   UNL     1     -10.198   7.254  70.300  1.00  0.00    -0.199 A  
HETATM   15  C   UNL     1     -13.743   9.649  72.101  1.00  0.00    -0.399 A  
HETATM   16  C   UNL     1     -14.347   8.396  72.056  1.00  0.00    -0.555 A  
HETATM   17  C   UNL     1     -13.628   7.297  71.588  1.00  0.00    -0.435 A  
HETATM   18  N   UNL     1     -11.350   6.595  70.730  1.00  0.00    -0.314 NA 
HETATM   19  C   UNL     1     -12.435   9.842  71.607  1.00  0.00    -0.500 A  
HETATM   20  C   UNL     1     -11.695   8.761  71.059  1.00  0.00    -0.329 A  
HETATM   21  C   UNL     1     -12.298   7.505  71.133  1.00  0.00    -0.291 A  
HETATM   22  H   UNL     1     -11.471   5.583  70.743  1.00  0.00     0.000 HD 
ENDBRANCH  12  13
ENDBRANCH  11  12
BRANCH  11  23
HETATM   23  C   UNL     1      -9.350  10.866  67.418  1.00  0.00    -0.155 C  
HETATM   24  N   UNL     1      -9.900  10.007  66.487  1.00  0.00    -0.198 N  
HETATM   25  H   UNL     1     -10.778   9.531  66.693  1.00  0.00     0.000 HD 
HETATM   26  O   UNL     1      -8.332  11.525  67.186  1.00  0.00    -0.146 OA 
BRANCH  24  27
HETATM   27  C   UNL     1      -9.238   9.778  65.223  1.00  0.00    -0.238 C  
BRANCH  27  28
HETATM   28  N   UNL     1      -9.161   8.358  64.994  1.00  0.00    -0.400 N  
HETATM   29  O   UNL     1      -7.786   7.913  66.797  1.00  0.00    -0.095 OA 
HETATM   30  C   UNL     1      -8.426   7.542  65.825  1.00  0.00    -0.144 C  
HETATM   31  H   UNL     1      -9.658   7.950  64.203  1.00  0.00     0.000 HD 
ENDBRANCH  27  28
BRANCH  27  32
HETATM   32  C   UNL     1      -9.686  10.610  64.003  1.00  0.00    -0.373 C  
BRANCH  32  33
HETATM   33  C   UNL     1     -10.585  11.835  63.963  1.00  0.00    -0.425 A  
HETATM   34  C   UNL     1     -11.785  13.800  64.042  1.00  0.00    -0.328 A  
HETATM   35  H   UNL     1     -13.344  13.065  62.814  1.00  0.00     0.000 HD 
HETATM   36  C   UNL     1     -12.163  15.119  64.342  1.00  0.00    -0.289 A  
HETATM   37  C   UNL     1     -11.756  11.730  63.216  1.00  0.00    -0.240 A  
HETATM   38  C   UNL     1     -11.333  15.852  65.181  1.00  0.00    -0.118 A  
HETATM   39  N   UNL     1     -12.452  12.894  63.276  1.00  0.00    -0.690 NA 
HETATM   40  C   UNL     1     -10.174  15.275  65.699  1.00  0.00    -0.398 A  
HETATM   41  C   UNL     1      -9.803  13.952  65.377  1.00  0.00    -0.193 A  
HETATM   42  C   UNL     1     -10.615  13.178  64.520  1.00  0.00    -0.425 A  
ENDBRANCH  32  33
ENDBRANCH  27  32
ENDBRANCH  24  27
ENDBRANCH  11  23
ENDBRANCH   7  11
TORSDOF 8
ENDMDL
MODEL       37
REMARK 921   NORMALIZED FREE ENERGY PREDICTED BY IDOCK:   -7.62 KCAL/MOL
REMARK 922        TOTAL FREE ENERGY PREDICTED BY IDOCK:  -13.33 KCAL/MOL
REMARK 923 INTER-LIGAND FREE ENERGY PREDICTED BY IDOCK:  -11.14 KCAL/MOL
REMARK 924 INTRA-LIGAND FREE ENERGY PREDICTED BY IDOCK:   -2.19 KCAL/MOL
REMARK 927      BINDING AFFINITY PREDICTED BY RF-SCORE:    0.00 PKD
ROOT
HETATM    1  C   UNL     1     -11.678   6.477  70.614  1.00  0.00    -0.436 C  
HETATM    2  C   UNL     1     -10.740   6.876  69.458  1.00  0.00    -0.246 C  
HETATM    3  C   UNL     1     -10.225   8.466  69.546  1.00  0.00    -0.207 C  
HETATM    4  N   UNL     1     -11.498   6.685  68.187  1.00  0.00    -0.551 NA 
HETATM    5  C   UNL     1      -9.616   5.803  69.466  1.00  0.00    -0.181 C  
HETATM    6  H2  UNL     1     -12.386   7.188  68.173  1.00  0.00     0.000 HD 
HETATM    7  N   UNL     1     -11.029   9.439  68.940  1.00  0.00    -0.422 N  
HETATM    8  H1  UNL     1     -10.877   6.949  67.422  1.00  0.00     0.000 HD 
HETATM    9  O   UNL     1      -9.202   8.776  70.154  1.00  0.00    -0.155 OA 
HETATM   10  H   UNL     1     -11.761   9.036  68.356  1.00  0.00     0.000 HD 
ENDROOT
BRANCH   7  11
HETATM   11  C   UNL     1     -11.062  11.008  68.953  1.00  0.00    -0.239 C  
BRANCH  11  12
HETATM   12  C   UNL     1     -12.369  11.889  69.226  1.00  0.00    -0.016 C  
BRANCH  12  13
HETATM   13  C   UNL     1     -12.680  12.442  70.699  1.00  0.00    -0.131 A  
HETATM   14  C   UNL     1     -13.279  11.788  71.759  1.00  0.00    -0.329 A  
HETATM   15  C   UNL     1     -11.683  16.139  71.502  1.00  0.00    -0.533 A  
HETATM   16  C   UNL     1     -12.429  16.265  72.670  1.00  0.00    -0.447 A  
HETATM   17  C   UNL     1     -13.105  15.159  73.183  1.00  0.00    -0.625 A  
HETATM   18  N   UNL     1     -13.513  12.689  72.798  1.00  0.00    -0.573 NA 
HETATM   19  C   UNL     1     -11.662  14.925  70.783  1.00  0.00    -0.364 A  
HETATM   20  C   UNL     1     -12.392  13.795  71.236  1.00  0.00    -0.394 A  
HETATM   21  C   UNL     1     -13.038  13.935  72.466  1.00  0.00    -0.437 A  
HETATM   22  H   UNL     1     -13.971  12.456  73.678  1.00  0.00     0.000 HD 
ENDBRANCH  12  13
ENDBRANCH  11  12
BRANCH  11  23
HETATM   23  C   UNL     1     -10.207  11.489  67.750  1.00  0.00    -0.182 C  
HETATM   24  N   UNL     1     -10.870  11.753  66.567  1.00  0.00    -0.269 N  
HETATM   25  H   UNL     1     -11.890  11.763  66.550  1.00  0.00     0.000 HD 
HETATM   26  O   UNL     1      -8.978  11.542  67.842  1.00  0.00    -0.148 OA 
BRANCH  24  27
HETATM   27  C   UNL     1     -10.128  12.014  65.356  1.00  0.00    -0.256 C  
BRANCH  27  28
HETATM   28  N   UNL     1     -10.266  10.882  64.477  1.00  0.00    -0.335 N  
HETATM   29  O   UNL     1      -8.128  10.072  64.817  1.00  0.00    -0.142 OA 
HETATM   30  C   UNL     1      -9.228   9.997  64.290  1.00  0.00    -0.269 C  
HETATM   31  H   UNL     1     -11.146  10.733  63.985  1.00  0.00     0.000 HD 
ENDBRANCH  27  28
BRANCH  27  32
HETATM   32  C   UNL     1     -10.302  13.390  64.677  1.00  0.00    -0.400 C  
BRANCH  32  33
HETATM   33  C   UNL     1     -10.315  14.771  65.310  1.00  0.00    -0.425 A  
HETATM   34  C   UNL     1     -10.216  16.768  66.456  1.00  0.00    -0.316 A  
HETATM   35  H   UNL     1     -11.247  17.846  64.953  1.00  0.00     0.000 HD 
HETATM   36  C   UNL     1      -9.935  17.723  67.445  1.00  0.00    -0.323 A  
HETATM   37  C   UNL     1     -10.929  15.788  64.584  1.00  0.00    -0.314 A  
HETATM   38  C   UNL     1      -9.285  17.288  68.594  1.00  0.00    -0.266 A  
HETATM   39  N   UNL     1     -10.865  16.956  65.274  1.00  0.00    -0.524 NA 
HETATM   40  C   UNL     1      -8.940  15.945  68.738  1.00  0.00    -0.216 A  
HETATM   41  C   UNL     1      -9.220  15.001  67.727  1.00  0.00    -0.181 A  
HETATM   42  C   UNL     1      -9.870  15.405  66.540  1.00  0.00    -0.288 A  
ENDBRANCH  32  33
ENDBRANCH  27  32
ENDBRANCH  24  27
ENDBRANCH  11  23
ENDBRANCH   7  11
TORSDOF 8
ENDMDL
MODEL       38
REMARK 921   NORMALIZED FREE ENERGY PREDICTED BY IDOCK:   -7.61 KCAL/MOL
REMARK 922        TOTAL FREE ENERGY PREDICTED BY IDOCK:  -13.32 KCAL/MOL
REMARK 923 INTER-LIGAND FREE ENERGY PREDICTED BY IDOCK:  -11.69 KCAL/MOL
REMARK 924 INTRA-LIGAND FREE ENERGY PREDICTED BY IDOCK:   -1.63 KCAL/MOL
REMARK 927      BINDING AFFINITY PREDICTED BY RF-SCORE:    0.00 PKD
ROOT
HETATM    1  C   UNL     1     -14.406  15.099  71.594  1.00  0.00    -0.685 C  
HETATM    2  C   UNL     1     -12.879  14.899  71.653  1.00  0.00    -0.328 C  
HETATM    3  C   UNL     1     -12.208  14.511  70.170  1.00  0.00    -0.342 C  
HETATM    4  N   UNL     1     -12.615  13.784  72.608  1.00  0.00    -0.060 NA 
HETATM    5  C   UNL     1     -12.332  16.191  72.322  1.00  0.00    -0.538 C  
HETATM    6  H2  UNL     1     -13.121  12.929  72.372  1.00  0.00     0.000 HD 
HETATM    7  N   UNL     1     -12.153  13.156  69.821  1.00  0.00    -0.298 N  
HETATM    8  H1  UNL     1     -11.604  13.652  72.646  1.00  0.00     0.000 HD 
HETATM    9  O   UNL     1     -11.815  15.382  69.395  1.00  0.00    -0.322 OA 
HETATM   10  H   UNL     1     -12.376  12.540  70.602  1.00  0.00     0.000 HD 
ENDROOT
BRANCH   7  11
HETATM   11  C   UNL     1     -11.826  12.368  68.504  1.00  0.00    -0.304 C  
BRANCH  11  12
HETATM   12  C   UNL     1     -11.517  10.800  68.434  1.00  0.00    -0.358 C  
BRANCH  12  13
HETATM   13  C   UNL     1     -10.534  10.121  69.505  1.00  0.00    -0.263 A  
HETATM   14  C   UNL     1      -9.152  10.087  69.511  1.00  0.00    -0.220 A  
HETATM   15  C   UNL     1     -12.158   8.252  72.534  1.00  0.00    -0.400 A  
HETATM   16  C   UNL     1     -11.017   7.568  72.942  1.00  0.00    -0.434 A  
HETATM   17  C   UNL     1      -9.798   7.817  72.313  1.00  0.00    -0.248 A  
HETATM   18  N   UNL     1      -8.705   9.245  70.529  1.00  0.00    -0.220 NA 
HETATM   19  C   UNL     1     -12.118   9.140  71.438  1.00  0.00    -0.409 A  
HETATM   20  C   UNL     1     -10.910   9.369  70.727  1.00  0.00    -0.372 A  
HETATM   21  C   UNL     1      -9.771   8.746  71.238  1.00  0.00    -0.265 A  
HETATM   22  H   UNL     1      -7.727   9.030  70.720  1.00  0.00     0.000 HD 
ENDBRANCH  12  13
ENDBRANCH  11  12
BRANCH  11  23
HETATM   23  C   UNL     1     -10.849  13.249  67.680  1.00  0.00    -0.258 C  
HETATM   24  N   UNL     1     -11.356  13.882  66.562  1.00  0.00    -0.321 N  
HETATM   25  H   UNL     1     -12.361  13.873  66.387  1.00  0.00     0.000 HD 
HETATM   26  O   UNL     1      -9.653  13.298  67.979  1.00  0.00    -0.207 OA 
BRANCH  24  27
HETATM   27  C   UNL     1     -10.473  14.558  65.641  1.00  0.00    -0.336 C  
BRANCH  27  28
HETATM   28  N   UNL     1     -10.405  13.794  64.422  1.00  0.00    -0.664 N  
HETATM   29  O   UNL     1     -12.692  13.636  64.128  1.00  0.00    -0.657 OA 
HETATM   30  C   UNL     1     -11.549  13.399  63.766  1.00  0.00    -0.313 C  
HETATM   31  H   UNL     1      -9.494  13.540  64.039  1.00  0.00     0.000 HD 
ENDBRANCH  27  28
BRANCH  27  32
HETATM   32  C   UNL     1     -10.647  16.080  65.446  1.00  0.00    -0.428 C  
BRANCH  32  33
HETATM   33  C   UNL     1     -10.109  17.218  66.297  1.00  0.00    -0.323 A  
HETATM   34  C   UNL     1      -9.128  18.789  67.668  1.00  0.00    -0.282 A  
HETATM   35  H   UNL     1     -10.475  20.324  67.112  1.00  0.00     0.000 HD 
HETATM   36  C   UNL     1      -8.260  19.397  68.589  1.00  0.00    -0.399 A  
HETATM   37  C   UNL     1     -10.764  18.442  66.194  1.00  0.00    -0.175 A  
HETATM   38  C   UNL     1      -7.273  18.604  69.164  1.00  0.00    -0.223 A  
HETATM   39  N   UNL     1     -10.176  19.355  67.009  1.00  0.00    -0.376 NA 
HETATM   40  C   UNL     1      -7.174  17.255  68.827  1.00  0.00    -0.245 A  
HETATM   41  C   UNL     1      -8.047  16.664  67.889  1.00  0.00    -0.177 A  
HETATM   42  C   UNL     1      -9.056  17.438  67.275  1.00  0.00    -0.239 A  
ENDBRANCH  32  33
ENDBRANCH  27  32
ENDBRANCH  24  27
ENDBRANCH  11  23
ENDBRANCH   7  11
TORSDOF 8
ENDMDL
MODEL       39
REMARK 921   NORMALIZED FREE ENERGY PREDICTED BY IDOCK:   -7.59 KCAL/MOL
REMARK 922        TOTAL FREE ENERGY PREDICTED BY IDOCK:  -13.28 KCAL/MOL
REMARK 923 INTER-LIGAND FREE ENERGY PREDICTED BY IDOCK:  -10.98 KCAL/MOL
REMARK 924 INTRA-LIGAND FREE ENERGY PREDICTED BY IDOCK:   -2.30 KCAL/MOL
REMARK 927      BINDING AFFINITY PREDICTED BY RF-SCORE:    0.00 PKD
ROOT
HETATM    1  C   UNL     1     -10.718   5.995  67.107  1.00  0.00    -0.409 C  
HETATM    2  C   UNL     1      -9.864   6.323  68.346  1.00  0.00    -0.130 C  
HETATM    3  C   UNL     1     -10.410   7.664  69.187  1.00  0.00    -0.213 C  
HETATM    4  N   UNL     1      -8.476   6.587  67.870  1.00  0.00    -0.119 NA 
HETATM    5  C   UNL     1      -9.808   4.998  69.156  1.00  0.00    -0.262 C  
HETATM    6  H2  UNL     1      -8.431   7.311  67.152  1.00  0.00     0.000 HD 
HETATM    7  N   UNL     1      -9.926   8.916  68.792  1.00  0.00    -0.178 N  
HETATM    8  H1  UNL     1      -7.910   6.805  68.691  1.00  0.00     0.000 HD 
HETATM    9  O   UNL     1     -11.238   7.560  70.091  1.00  0.00    -0.259 OA 
HETATM   10  H   UNL     1      -9.148   8.847  68.136  1.00  0.00     0.000 HD 
ENDROOT
BRANCH   7  11
HETATM   11  C   UNL     1     -10.304  10.402  69.126  1.00  0.00    -0.222 C  
BRANCH  11  12
HETATM   12  C   UNL     1     -11.795  10.981  69.140  1.00  0.00    -0.407 C  
BRANCH  12  13
HETATM   13  C   UNL     1     -12.398  11.631  70.476  1.00  0.00    -0.410 A  
HETATM   14  C   UNL     1     -12.919  10.996  71.588  1.00  0.00    -0.456 A  
HETATM   15  C   UNL     1     -12.486  15.535  70.720  1.00  0.00    -0.491 A  
HETATM   16  C   UNL     1     -13.363  15.618  71.798  1.00  0.00    -0.541 A  
HETATM   17  C   UNL     1     -13.781  14.453  72.441  1.00  0.00    -0.590 A  
HETATM   18  N   UNL     1     -13.490  11.937  72.445  1.00  0.00    -0.510 NA 
HETATM   19  C   UNL     1     -12.073  14.284  70.215  1.00  0.00    -0.403 A  
HETATM   20  C   UNL     1     -12.531  13.073  70.800  1.00  0.00    -0.384 A  
HETATM   21  C   UNL     1     -13.321  13.205  71.943  1.00  0.00    -0.455 A  
HETATM   22  H   UNL     1     -13.966  11.715  73.319  1.00  0.00     0.000 HD 
ENDBRANCH  12  13
ENDBRANCH  11  12
BRANCH  11  23
HETATM   23  C   UNL     1      -9.275  11.305  68.394  1.00  0.00    -0.178 C  
HETATM   24  N   UNL     1      -9.057  12.567  68.913  1.00  0.00    -0.364 N  
HETATM   25  H   UNL     1      -9.458  12.819  69.816  1.00  0.00     0.000 HD 
HETATM   26  O   UNL     1      -8.749  10.925  67.344  1.00  0.00    -0.129 OA 
BRANCH  24  27
HETATM   27  C   UNL     1      -8.266  13.531  68.184  1.00  0.00    -0.162 C  
BRANCH  27  28
HETATM   28  N   UNL     1      -6.958  12.975  67.954  1.00  0.00    -0.110 N  
HETATM   29  O   UNL     1      -6.231  13.203  70.136  1.00  0.00    -0.124 OA 
HETATM   30  C   UNL     1      -6.045  12.859  68.979  1.00  0.00    -0.089 C  
HETATM   31  H   UNL     1      -6.703  12.661  67.018  1.00  0.00     0.000 HD 
ENDBRANCH  27  28
BRANCH  27  32
HETATM   32  C   UNL     1      -8.904  14.221  66.958  1.00  0.00    -0.243 C  
BRANCH  32  33
HETATM   33  C   UNL     1     -10.242  13.939  66.294  1.00  0.00    -0.299 A  
HETATM   34  C   UNL     1     -12.155  13.346  65.155  1.00  0.00    -0.409 A  
HETATM   35  H   UNL     1     -13.374  14.732  66.193  1.00  0.00     0.000 HD 
HETATM   36  C   UNL     1     -13.031  12.700  64.269  1.00  0.00    -0.204 A  
HETATM   37  C   UNL     1     -11.331  14.686  66.736  1.00  0.00    -0.356 A  
HETATM   38  C   UNL     1     -12.494  11.745  63.414  1.00  0.00    -0.490 A  
HETATM   39  N   UNL     1     -12.448  14.326  66.053  1.00  0.00    -0.423 NA 
HETATM   40  C   UNL     1     -11.129  11.461  63.450  1.00  0.00    -0.308 A  
HETATM   41  C   UNL     1     -10.265  12.113  64.356  1.00  0.00    -0.333 A  
HETATM   42  C   UNL     1     -10.775  13.082  65.248  1.00  0.00    -0.317 A  
ENDBRANCH  32  33
ENDBRANCH  27  32
ENDBRANCH  24  27
ENDBRANCH  11  23
ENDBRANCH   7  11
TORSDOF 8
ENDMDL
MODEL       40
REMARK 921   NORMALIZED FREE ENERGY PREDICTED BY IDOCK:   -7.58 KCAL/MOL
REMARK 922        TOTAL FREE ENERGY PREDICTED BY IDOCK:  -13.26 KCAL/MOL
REMARK 923 INTER-LIGAND FREE ENERGY PREDICTED BY IDOCK:  -11.03 KCAL/MOL
REMARK 924 INTRA-LIGAND FREE ENERGY PREDICTED BY IDOCK:   -2.24 KCAL/MOL
REMARK 927      BINDING AFFINITY PREDICTED BY RF-SCORE:    0.00 PKD
ROOT
HETATM    1  C   UNL     1     -10.593   8.783  68.792  1.00  0.00    -0.174 C  
HETATM    2  C   UNL     1     -10.488   9.645  70.065  1.00  0.00    -0.261 C  
HETATM    3  C   UNL     1     -11.400  11.046  69.989  1.00  0.00    -0.277 C  
HETATM    4  N   UNL     1      -9.052  10.014  70.232  1.00  0.00    -0.355 NA 
HETATM    5  C   UNL     1     -10.833   8.679  71.232  1.00  0.00    -0.327 C  
HETATM    6  H2  UNL     1      -8.659  10.469  69.408  1.00  0.00     0.000 HD 
HETATM    7  N   UNL     1     -10.797  12.180  69.434  1.00  0.00    -0.453 N  
HETATM    8  H1  UNL     1      -8.983  10.584  71.075  1.00  0.00     0.000 HD 
HETATM    9  O   UNL     1     -12.571  11.071  70.368  1.00  0.00    -0.304 OA 
HETATM   10  H   UNL     1      -9.793  12.063  69.295  1.00  0.00     0.000 HD 
ENDROOT
BRANCH   7  11
HETATM   11  C   UNL     1     -11.309  13.591  68.976  1.00  0.00    -0.288 C  
BRANCH  11  12
HETATM   12  C   UNL     1     -12.127  13.870  67.630  1.00  0.00    -0.342 C  
BRANCH  12  13
HETATM   13  C   UNL     1     -11.405  13.744  66.203  1.00  0.00    -0.320 A  
HETATM   14  C   UNL     1     -11.197  14.723  65.250  1.00  0.00    -0.366 A  
HETATM   15  C   UNL     1     -10.037  10.230  65.161  1.00  0.00    -0.355 A  
HETATM   16  C   UNL     1      -9.854  10.513  63.811  1.00  0.00    -0.363 A  
HETATM   17  C   UNL     1     -10.068  11.808  63.339  1.00  0.00    -0.470 A  
HETATM   18  N   UNL     1     -10.687  14.148  64.086  1.00  0.00    -0.485 NA 
HETATM   19  C   UNL     1     -10.512  11.216  66.051  1.00  0.00    -0.312 A  
HETATM   20  C   UNL     1     -10.807  12.529  65.597  1.00  0.00    -0.311 A  
HETATM   21  C   UNL     1     -10.507  12.797  64.260  1.00  0.00    -0.399 A  
HETATM   22  H   UNL     1     -10.477  14.658  63.228  1.00  0.00     0.000 HD 
ENDBRANCH  12  13
ENDBRANCH  11  12
BRANCH  11  23
HETATM   23  C   UNL     1     -10.159  14.599  69.245  1.00  0.00    -0.115 C  
HETATM   24  N   UNL     1      -8.866  14.144  69.075  1.00  0.00    -0.379 N  
HETATM   25  H   UNL     1      -8.702  13.230  68.655  1.00  0.00     0.000 HD 
HETATM   26  O   UNL     1     -10.410  15.728  69.675  1.00  0.00    -0.251 OA 
BRANCH  24  27
HETATM   27  C   UNL     1      -7.745  14.956  69.490  1.00  0.00    -0.121 C  
BRANCH  27  28
HETATM   28  N   UNL     1      -6.758  14.102  70.100  1.00  0.00    -0.384 N  
HETATM   29  O   UNL     1      -6.616  12.623  68.330  1.00  0.00    -0.066 OA 
HETATM   30  C   UNL     1      -6.275  12.993  69.443  1.00  0.00    -0.113 C  
HETATM   31  H   UNL     1      -6.411  14.324  71.033  1.00  0.00     0.000 HD 
ENDBRANCH  27  28
BRANCH  27  32
HETATM   32  C   UNL     1      -7.184  15.990  68.491  1.00  0.00    -0.138 C  
BRANCH  32  33
HETATM   33  C   UNL     1      -7.642  17.416  68.236  1.00  0.00    -0.234 A  
HETATM   34  C   UNL     1      -8.507  19.486  67.707  1.00  0.00    -0.315 A  
HETATM   35  H   UNL     1      -7.113  20.534  68.906  1.00  0.00     0.000 HD 
HETATM   36  C   UNL     1      -9.316  20.488  67.147  1.00  0.00    -0.513 A  
HETATM   37  C   UNL     1      -6.938  18.427  68.885  1.00  0.00    -0.282 A  
HETATM   38  C   UNL     1     -10.315  20.092  66.267  1.00  0.00    -0.570 A  
HETATM   39  N   UNL     1      -7.458  19.639  68.561  1.00  0.00    -0.331 NA 
HETATM   40  C   UNL     1     -10.486  18.742  65.961  1.00  0.00    -0.483 A  
HETATM   41  C   UNL     1      -9.671  17.747  66.543  1.00  0.00    -0.324 A  
HETATM   42  C   UNL     1      -8.651  18.108  67.450  1.00  0.00    -0.244 A  
ENDBRANCH  32  33
ENDBRANCH  27  32
ENDBRANCH  24  27
ENDBRANCH  11  23
ENDBRANCH   7  11
TORSDOF 8
ENDMDL
MODEL       41
REMARK 921   NORMALIZED FREE ENERGY PREDICTED BY IDOCK:   -7.51 KCAL/MOL
REMARK 922        TOTAL FREE ENERGY PREDICTED BY IDOCK:  -13.16 KCAL/MOL
REMARK 923 INTER-LIGAND FREE ENERGY PREDICTED BY IDOCK:  -10.61 KCAL/MOL
REMARK 924 INTRA-LIGAND FREE ENERGY PREDICTED BY IDOCK:   -2.56 KCAL/MOL
REMARK 927      BINDING AFFINITY PREDICTED BY RF-SCORE:    0.00 PKD
ROOT
HETATM    1  C   UNL     1     -11.107   6.065  69.081  1.00  0.00    -0.405 C  
HETATM    2  C   UNL     1     -10.445   6.132  67.691  1.00  0.00    -0.234 C  
HETATM    3  C   UNL     1      -9.226   7.276  67.597  1.00  0.00    -0.126 C  
HETATM    4  N   UNL     1     -11.511   6.483  66.709  1.00  0.00    -0.760 NA 
HETATM    5  C   UNL     1     -10.021   4.670  67.378  1.00  0.00    -0.190 C  
HETATM    6  H2  UNL     1     -12.013   7.337  66.954  1.00  0.00     0.000 HD 
HETATM    7  N   UNL     1      -9.591   8.581  67.245  1.00  0.00    -0.161 N  
HETATM    8  H1  UNL     1     -11.072   6.528  65.789  1.00  0.00     0.000 HD 
HETATM    9  O   UNL     1      -8.059   6.994  67.866  1.00  0.00    -0.113 OA 
HETATM   10  H   UNL     1     -10.553   8.644  66.913  1.00  0.00     0.000 HD 
ENDROOT
BRANCH   7  11
HETATM   11  C   UNL     1      -8.860   9.970  67.245  1.00  0.00    -0.135 C  
BRANCH  11  12
HETATM   12  C   UNL     1      -8.339  10.725  68.555  1.00  0.00    -0.138 C  
BRANCH  12  13
HETATM   13  C   UNL     1      -8.420  10.009  69.988  1.00  0.00    -0.126 A  
HETATM   14  C   UNL     1      -7.387   9.593  70.806  1.00  0.00    -0.037 A  
HETATM   15  C   UNL     1     -11.972   9.262  71.449  1.00  0.00    -0.424 A  
HETATM   16  C   UNL     1     -11.563   8.374  72.441  1.00  0.00    -0.450 A  
HETATM   17  C   UNL     1     -10.203   8.153  72.655  1.00  0.00    -0.388 A  
HETATM   18  N   UNL     1      -7.899   8.864  71.879  1.00  0.00    -0.346 NA 
HETATM   19  C   UNL     1     -11.031   9.884  70.601  1.00  0.00    -0.405 A  
HETATM   20  C   UNL     1      -9.640   9.632  70.742  1.00  0.00    -0.158 A  
HETATM   21  C   UNL     1      -9.271   8.822  71.817  1.00  0.00    -0.262 A  
HETATM   22  H   UNL     1      -7.335   8.424  72.607  1.00  0.00     0.000 HD 
ENDBRANCH  12  13
ENDBRANCH  11  12
BRANCH  11  23
HETATM   23  C   UNL     1      -9.620  10.880  66.243  1.00  0.00    -0.200 C  
HETATM   24  N   UNL     1      -9.945  12.154  66.666  1.00  0.00    -0.204 N  
HETATM   25  H   UNL     1      -9.568  12.508  67.544  1.00  0.00     0.000 HD 
HETATM   26  O   UNL     1      -9.986  10.434  65.152  1.00  0.00    -0.285 OA 
BRANCH  24  27
HETATM   27  C   UNL     1     -10.816  12.989  65.870  1.00  0.00    -0.272 C  
BRANCH  27  28
HETATM   28  N   UNL     1     -12.081  12.319  65.715  1.00  0.00    -0.324 N  
HETATM   29  O   UNL     1     -12.346  12.851  63.481  1.00  0.00    -0.626 OA 
HETATM   30  C   UNL     1     -12.738  12.312  64.505  1.00  0.00    -0.243 C  
HETATM   31  H   UNL     1     -12.497  11.841  66.514  1.00  0.00     0.000 HD 
ENDBRANCH  27  28
BRANCH  27  32
HETATM   32  C   UNL     1     -10.913  14.488  66.223  1.00  0.00    -0.323 C  
BRANCH  32  33
HETATM   33  C   UNL     1     -11.086  15.137  67.587  1.00  0.00    -0.318 A  
HETATM   34  C   UNL     1     -11.431  15.909  69.730  1.00  0.00    -0.342 A  
HETATM   35  H   UNL     1     -10.754  17.865  69.288  1.00  0.00     0.000 HD 
HETATM   36  C   UNL     1     -11.771  15.951  71.092  1.00  0.00    -0.490 A  
HETATM   37  C   UNL     1     -10.726  16.478  67.693  1.00  0.00    -0.311 A  
HETATM   38  C   UNL     1     -12.292  14.796  71.662  1.00  0.00    -0.409 A  
HETATM   39  N   UNL     1     -10.938  16.917  68.961  1.00  0.00    -0.246 NA 
HETATM   40  C   UNL     1     -12.468  13.651  70.888  1.00  0.00    -0.448 A  
HETATM   41  C   UNL     1     -12.110  13.622  69.523  1.00  0.00    -0.368 A  
HETATM   42  C   UNL     1     -11.568  14.773  68.909  1.00  0.00    -0.340 A  
ENDBRANCH  32  33
ENDBRANCH  27  32
ENDBRANCH  24  27
ENDBRANCH  11  23
ENDBRANCH   7  11
TORSDOF 8
ENDMDL
MODEL       42
REMARK 921   NORMALIZED FREE ENERGY PREDICTED BY IDOCK:   -7.51 KCAL/MOL
REMARK 922        TOTAL FREE ENERGY PREDICTED BY IDOCK:  -13.16 KCAL/MOL
REMARK 923 INTER-LIGAND FREE ENERGY PREDICTED BY IDOCK:  -10.55 KCAL/MOL
REMARK 924 INTRA-LIGAND FREE ENERGY PREDICTED BY IDOCK:   -2.61 KCAL/MOL
REMARK 927      BINDING AFFINITY PREDICTED BY RF-SCORE:    0.00 PKD
ROOT
HETATM    1  C   UNL     1     -11.599  15.461  71.783  1.00  0.00    -0.501 C  
HETATM    2  C   UNL     1     -12.700  14.579  71.162  1.00  0.00    -0.338 C  
HETATM    3  C   UNL     1     -12.183  13.734  69.812  1.00  0.00    -0.310 C  
HETATM    4  N   UNL     1     -13.818  15.482  70.764  1.00  0.00    -0.865 NA 
HETATM    5  C   UNL     1     -13.229  13.712  72.337  1.00  0.00    -0.584 C  
HETATM    6  H2  UNL     1     -13.520  16.241  70.151  1.00  0.00     0.000 HD 
HETATM    7  N   UNL     1     -12.295  14.370  68.570  1.00  0.00    -0.594 N  
HETATM    8  H1  UNL     1     -14.547  14.899  70.353  1.00  0.00     0.000 HD 
HETATM    9  O   UNL     1     -11.685  12.614  69.909  1.00  0.00    -0.301 OA 
HETATM   10  H   UNL     1     -12.849  15.225  68.615  1.00  0.00     0.000 HD 
ENDROOT
BRANCH   7  11
HETATM   11  C   UNL     1     -11.763  14.070  67.124  1.00  0.00    -0.393 C  
BRANCH  11  12
HETATM   12  C   UNL     1     -12.345  12.936  66.158  1.00  0.00    -0.266 C  
BRANCH  12  13
HETATM   13  C   UNL     1     -11.463  12.382  64.938  1.00  0.00    -0.378 A  
HETATM   14  C   UNL     1     -11.444  12.806  63.622  1.00  0.00    -0.481 A  
HETATM   15  C   UNL     1      -9.025   9.409  65.660  1.00  0.00    -0.236 A  
HETATM   16  C   UNL     1      -8.783   9.062  64.334  1.00  0.00    -0.151 A  
HETATM   17  C   UNL     1      -9.310   9.844  63.306  1.00  0.00    -0.221 A  
HETATM   18  N   UNL     1     -10.662  11.939  62.858  1.00  0.00    -0.599 NA 
HETATM   19  C   UNL     1      -9.862  10.497  65.984  1.00  0.00    -0.277 A  
HETATM   20  C   UNL     1     -10.474  11.277  64.966  1.00  0.00    -0.359 A  
HETATM   21  C   UNL     1     -10.117  10.960  63.655  1.00  0.00    -0.355 A  
HETATM   22  H   UNL     1     -10.516  12.021  61.853  1.00  0.00     0.000 HD 
ENDBRANCH  12  13
ENDBRANCH  11  12
BRANCH  11  23
HETATM   23  C   UNL     1     -10.213  14.117  67.194  1.00  0.00    -0.258 C  
HETATM   24  N   UNL     1      -9.585  13.162  67.968  1.00  0.00    -0.215 N  
HETATM   25  H   UNL     1     -10.124  12.386  68.351  1.00  0.00     0.000 HD 
HETATM   26  O   UNL     1      -9.593  15.031  66.642  1.00  0.00    -0.237 OA 
BRANCH  24  27
HETATM   27  C   UNL     1      -8.168  13.256  68.238  1.00  0.00    -0.156 C  
BRANCH  27  28
HETATM   28  N   UNL     1      -7.961  14.236  69.273  1.00  0.00    -0.349 N  
HETATM   29  O   UNL     1      -6.532  15.568  68.038  1.00  0.00    -0.112 OA 
HETATM   30  C   UNL     1      -7.145  15.325  69.067  1.00  0.00    -0.141 C  
HETATM   31  H   UNL     1      -8.425  14.120  70.174  1.00  0.00     0.000 HD 
ENDBRANCH  27  28
BRANCH  27  32
HETATM   32  C   UNL     1      -7.370  11.946  68.412  1.00  0.00    -0.095 C  
BRANCH  32  33
HETATM   33  C   UNL     1      -7.581  10.828  69.420  1.00  0.00    -0.114 A  
HETATM   34  C   UNL     1      -8.131   9.135  70.883  1.00  0.00    -0.162 A  
HETATM   35  H   UNL     1      -6.155   8.933  71.617  1.00  0.00     0.000 HD 
HETATM   36  C   UNL     1      -8.870   8.172  71.588  1.00  0.00    -0.202 A  
HETATM   37  C   UNL     1      -6.459  10.402  70.128  1.00  0.00    -0.137 A  
HETATM   38  C   UNL     1     -10.235   8.098  71.339  1.00  0.00    -0.248 A  
HETATM   39  N   UNL     1      -6.801   9.407  70.986  1.00  0.00    -0.210 NA 
HETATM   40  C   UNL     1     -10.827   8.963  70.420  1.00  0.00    -0.269 A  
HETATM   41  C   UNL     1     -10.066   9.917  69.711  1.00  0.00    -0.274 A  
HETATM   42  C   UNL     1      -8.675  10.018  69.930  1.00  0.00    -0.169 A  
ENDBRANCH  32  33
ENDBRANCH  27  32
ENDBRANCH  24  27
ENDBRANCH  11  23
ENDBRANCH   7  11
TORSDOF 8
ENDMDL
MODEL       43
REMARK 921   NORMALIZED FREE ENERGY PREDICTED BY IDOCK:   -7.47 KCAL/MOL
REMARK 922        TOTAL FREE ENERGY PREDICTED BY IDOCK:  -13.10 KCAL/MOL
REMARK 923 INTER-LIGAND FREE ENERGY PREDICTED BY IDOCK:  -11.80 KCAL/MOL
REMARK 924 INTRA-LIGAND FREE ENERGY PREDICTED BY IDOCK:   -1.31 KCAL/MOL
REMARK 927      BINDING AFFINITY PREDICTED BY RF-SCORE:    0.00 PKD
ROOT
HETATM    1  C   UNL     1     -11.958  11.772  64.125  1.00  0.00    -0.331 C  
HETATM    2  C   UNL     1     -10.520  11.728  64.678  1.00  0.00    -0.299 C  
HETATM    3  C   UNL     1     -10.387  12.363  66.221  1.00  0.00    -0.244 C  
HETATM    4  N   UNL     1      -9.666  12.529  63.753  1.00  0.00    -0.677 NA 
HETATM    5  C   UNL     1     -10.076  10.248  64.518  1.00  0.00    -0.286 C  
HETATM    6  H2  UNL     1     -10.011  13.479  63.613  1.00  0.00     0.000 HD 
HETATM    7  N   UNL     1     -10.157  13.739  66.336  1.00  0.00    -0.287 N  
HETATM    8  H1  UNL     1      -8.714  12.499  64.119  1.00  0.00     0.000 HD 
HETATM    9  O   UNL     1     -10.528  11.658  67.219  1.00  0.00    -0.206 OA 
HETATM   10  H   UNL     1      -9.920  14.173  65.444  1.00  0.00     0.000 HD 
ENDROOT
BRANCH   7  11
HETATM   11  C   UNL     1     -10.178  14.768  67.521  1.00  0.00    -0.233 C  
BRANCH  11  12
HETATM   12  C   UNL     1      -8.883  15.272  68.312  1.00  0.00    -0.171 C  
BRANCH  12  13
HETATM   13  C   UNL     1      -8.456  16.818  68.264  1.00  0.00    -0.222 A  
HETATM   14  C   UNL     1      -7.428  17.452  68.935  1.00  0.00    -0.235 A  
HETATM   15  C   UNL     1     -10.559  19.216  65.997  1.00  0.00    -0.524 A  
HETATM   16  C   UNL     1     -10.087  20.411  66.532  1.00  0.00    -0.419 A  
HETATM   17  C   UNL     1      -9.070  20.389  67.485  1.00  0.00    -0.447 A  
HETATM   18  N   UNL     1      -7.517  18.831  68.742  1.00  0.00    -0.307 NA 
HETATM   19  C   UNL     1     -10.078  17.974  66.463  1.00  0.00    -0.379 A  
HETATM   20  C   UNL     1      -9.091  17.907  67.482  1.00  0.00    -0.245 A  
HETATM   21  C   UNL     1      -8.570  19.129  67.910  1.00  0.00    -0.305 A  
HETATM   22  H   UNL     1      -6.891  19.519  69.158  1.00  0.00     0.000 HD 
ENDBRANCH  12  13
ENDBRANCH  11  12
BRANCH  11  23
HETATM   23  C   UNL     1     -11.373  14.380  68.433  1.00  0.00    -0.287 C  
HETATM   24  N   UNL     1     -11.078  13.898  69.694  1.00  0.00    -0.443 N  
HETATM   25  H   UNL     1     -10.119  13.938  70.039  1.00  0.00     0.000 HD 
HETATM   26  O   UNL     1     -12.528  14.427  68.000  1.00  0.00    -0.084 OA 
BRANCH  24  27
HETATM   27  C   UNL     1     -12.118  13.338  70.524  1.00  0.00    -0.314 C  
BRANCH  27  28
HETATM   28  N   UNL     1     -13.167  14.315  70.672  1.00  0.00    -0.390 N  
HETATM   29  O   UNL     1     -13.473  13.976  72.937  1.00  0.00    -0.647 OA 
HETATM   30  C   UNL     1     -13.755  14.547  71.894  1.00  0.00    -0.428 C  
HETATM   31  H   UNL     1     -13.478  14.843  69.857  1.00  0.00     0.000 HD 
ENDBRANCH  27  28
BRANCH  27  32
HETATM   32  C   UNL     1     -12.603  11.904  70.219  1.00  0.00    -0.091 C  
BRANCH  32  33
HETATM   33  C   UNL     1     -12.425  10.641  71.047  1.00  0.00    -0.515 A  
HETATM   34  C   UNL     1     -11.936   8.712  72.207  1.00  0.00    -0.368 A  
HETATM   35  H   UNL     1     -13.826   8.633  73.156  1.00  0.00     0.000 HD 
HETATM   36  C   UNL     1     -11.246   7.593  72.699  1.00  0.00    -0.419 A  
HETATM   37  C   UNL     1     -13.503  10.254  71.839  1.00  0.00    -0.302 A  
HETATM   38  C   UNL     1      -9.964   7.361  72.213  1.00  0.00    -0.206 A  
HETATM   39  N   UNL     1     -13.199   9.116  72.513  1.00  0.00    -0.441 NA 
HETATM   40  C   UNL     1      -9.408   8.220  71.267  1.00  0.00    -0.218 A  
HETATM   41  C   UNL     1     -10.112   9.348  70.793  1.00  0.00    -0.366 A  
HETATM   42  C   UNL     1     -11.412   9.623  71.269  1.00  0.00    -0.463 A  
ENDBRANCH  32  33
ENDBRANCH  27  32
ENDBRANCH  24  27
ENDBRANCH  11  23
ENDBRANCH   7  11
TORSDOF 8
ENDMDL
MODEL       44
REMARK 921   NORMALIZED FREE ENERGY PREDICTED BY IDOCK:   -7.47 KCAL/MOL
REMARK 922        TOTAL FREE ENERGY PREDICTED BY IDOCK:  -13.10 KCAL/MOL
REMARK 923 INTER-LIGAND FREE ENERGY PREDICTED BY IDOCK:  -11.03 KCAL/MOL
REMARK 924 INTRA-LIGAND FREE ENERGY PREDICTED BY IDOCK:   -2.08 KCAL/MOL
REMARK 927      BINDING AFFINITY PREDICTED BY RF-SCORE:    0.00 PKD
ROOT
HETATM    1  C   UNL     1      -7.004  11.131  68.170  1.00  0.00    -0.069 C  
HETATM    2  C   UNL     1      -7.455   9.833  68.867  1.00  0.00    -0.075 C  
HETATM    3  C   UNL     1      -9.120   9.689  68.977  1.00  0.00    -0.148 C  
HETATM    4  N   UNL     1      -6.881   9.847  70.243  1.00  0.00    -0.123 NA 
HETATM    5  C   UNL     1      -6.731   8.693  68.098  1.00  0.00    -0.065 C  
HETATM    6  H2  UNL     1      -7.125  10.687  70.769  1.00  0.00     0.000 HD 
HETATM    7  N   UNL     1      -9.743  10.250  70.098  1.00  0.00    -0.387 N  
HETATM    8  H1  UNL     1      -7.181   8.987  70.704  1.00  0.00     0.000 HD 
HETATM    9  O   UNL     1      -9.777   9.148  68.089  1.00  0.00    -0.149 OA 
HETATM   10  H   UNL     1      -9.078  10.536  70.815  1.00  0.00     0.000 HD 
ENDROOT
BRANCH   7  11
HETATM   11  C   UNL     1     -11.231  10.540  70.504  1.00  0.00    -0.265 C  
BRANCH  11  12
HETATM   12  C   UNL     1     -12.285   9.425  70.958  1.00  0.00    -0.354 C  
BRANCH  12  13
HETATM   13  C   UNL     1     -11.776   8.035  71.576  1.00  0.00    -0.321 A  
HETATM   14  C   UNL     1     -11.705   7.654  72.903  1.00  0.00    -0.152 A  
HETATM   15  C   UNL     1     -10.514   5.291  69.089  1.00  0.00    -0.227 A  
HETATM   16  C   UNL     1      -9.880   4.487  70.032  1.00  0.00    -0.296 A  
HETATM   17  C   UNL     1      -9.981   4.798  71.388  1.00  0.00    -0.267 A  
HETATM   18  N   UNL     1     -11.043   6.430  73.008  1.00  0.00    -0.393 NA 
HETATM   19  C   UNL     1     -11.194   6.465  69.477  1.00  0.00    -0.477 A  
HETATM   20  C   UNL     1     -11.262   6.853  70.842  1.00  0.00    -0.332 A  
HETATM   21  C   UNL     1     -10.706   5.962  71.761  1.00  0.00    -0.245 A  
HETATM   22  H   UNL     1     -10.839   5.952  73.885  1.00  0.00     0.000 HD 
ENDBRANCH  12  13
ENDBRANCH  11  12
BRANCH  11  23
HETATM   23  C   UNL     1     -11.788  11.565  69.479  1.00  0.00    -0.351 C  
HETATM   24  N   UNL     1     -11.718  12.902  69.818  1.00  0.00    -0.440 N  
HETATM   25  H   UNL     1     -11.191  13.188  70.644  1.00  0.00     0.000 HD 
HETATM   26  O   UNL     1     -12.345  11.174  68.449  1.00  0.00    -0.556 OA 
BRANCH  24  27
HETATM   27  C   UNL     1     -12.385  13.897  69.011  1.00  0.00    -0.087 C  
BRANCH  27  28
HETATM   28  N   UNL     1     -12.827  14.966  69.869  1.00  0.00    -0.606 N  
HETATM   29  O   UNL     1     -10.727  15.491  70.677  1.00  0.00    -0.325 OA 
HETATM   30  C   UNL     1     -11.933  15.678  70.636  1.00  0.00    -0.402 C  
HETATM   31  H   UNL     1     -13.820  15.198  69.910  1.00  0.00     0.000 HD 
ENDBRANCH  27  28
BRANCH  27  32
HETATM   32  C   UNL     1     -11.703  14.352  67.703  1.00  0.00    -0.421 C  
BRANCH  32  33
HETATM   33  C   UNL     1     -11.685  13.666  66.347  1.00  0.00    -0.403 A  
HETATM   34  C   UNL     1     -11.466  12.505  64.369  1.00  0.00    -0.349 A  
HETATM   35  H   UNL     1     -13.143  13.434  63.472  1.00  0.00     0.000 HD 
HETATM   36  C   UNL     1     -10.988  11.618  63.392  1.00  0.00    -0.442 A  
HETATM   37  C   UNL     1     -12.683  14.031  65.447  1.00  0.00    -0.471 A  
HETATM   38  C   UNL     1      -9.847  10.883  63.691  1.00  0.00    -0.403 A  
HETATM   39  N   UNL     1     -12.537  13.340  64.287  1.00  0.00    -0.653 NA 
HETATM   40  C   UNL     1      -9.214  11.043  64.923  1.00  0.00    -0.210 A  
HETATM   41  C   UNL     1      -9.716  11.931  65.899  1.00  0.00    -0.258 A  
HETATM   42  C   UNL     1     -10.878  12.688  65.637  1.00  0.00    -0.305 A  
ENDBRANCH  32  33
ENDBRANCH  27  32
ENDBRANCH  24  27
ENDBRANCH  11  23
ENDBRANCH   7  11
TORSDOF 8
ENDMDL
MODEL       45
REMARK 921   NORMALIZED FREE ENERGY PREDICTED BY IDOCK:   -7.45 KCAL/MOL
REMARK 922        TOTAL FREE ENERGY PREDICTED BY IDOCK:  -13.08 KCAL/MOL
REMARK 923 INTER-LIGAND FREE ENERGY PREDICTED BY IDOCK:  -10.59 KCAL/MOL
REMARK 924 INTRA-LIGAND FREE ENERGY PREDICTED BY IDOCK:   -2.49 KCAL/MOL
REMARK 927      BINDING AFFINITY PREDICTED BY RF-SCORE:    0.00 PKD
ROOT
HETATM    1  C   UNL     1     -10.269   8.434  72.165  1.00  0.00    -0.390 C  
HETATM    2  C   UNL     1     -11.180   7.941  71.024  1.00  0.00    -0.269 C  
HETATM    3  C   UNL     1     -10.454   8.025  69.518  1.00  0.00    -0.226 C  
HETATM    4  N   UNL     1     -12.394   8.807  71.021  1.00  0.00    -0.458 NA 
HETATM    5  C   UNL     1     -11.648   6.527  71.468  1.00  0.00    -0.366 C  
HETATM    6  H2  UNL     1     -12.175   9.802  70.955  1.00  0.00     0.000 HD 
HETATM    7  N   UNL     1     -10.579   9.224  68.806  1.00  0.00    -0.284 N  
HETATM    8  H1  UNL     1     -12.997   8.480  70.265  1.00  0.00     0.000 HD 
HETATM    9  O   UNL     1      -9.799   7.085  69.068  1.00  0.00    -0.151 OA 
HETATM   10  H   UNL     1     -11.258   9.859  69.224  1.00  0.00     0.000 HD 
ENDROOT
BRANCH   7  11
HETATM   11  C   UNL     1      -9.914   9.815  67.513  1.00  0.00    -0.184 C  
BRANCH  11  12
HETATM   12  C   UNL     1      -8.344  10.051  67.323  1.00  0.00    -0.121 C  
BRANCH  12  13
HETATM   13  C   UNL     1      -7.522  10.923  68.390  1.00  0.00    -0.098 A  
HETATM   14  C   UNL     1      -6.909  10.508  69.557  1.00  0.00    -0.098 A  
HETATM   15  C   UNL     1      -7.166  14.761  67.714  1.00  0.00    -0.192 A  
HETATM   16  C   UNL     1      -6.739  15.118  68.990  1.00  0.00    -0.120 A  
HETATM   17  C   UNL     1      -6.489  14.128  69.939  1.00  0.00    -0.119 A  
HETATM   18  N   UNL     1      -6.456  11.617  70.272  1.00  0.00    -0.480 NA 
HETATM   19  C   UNL     1      -7.427  13.413  67.388  1.00  0.00    -0.134 A  
HETATM   20  C   UNL     1      -7.250  12.381  68.348  1.00  0.00    -0.110 A  
HETATM   21  C   UNL     1      -6.718  12.773  69.578  1.00  0.00     0.032 A  
HETATM   22  H   UNL     1      -5.996  11.575  71.181  1.00  0.00     0.000 HD 
ENDBRANCH  12  13
ENDBRANCH  11  12
BRANCH  11  23
HETATM   23  C   UNL     1     -10.799  11.004  67.053  1.00  0.00    -0.279 C  
HETATM   24  N   UNL     1     -10.321  11.787  66.021  1.00  0.00    -0.231 N  
HETATM   25  H   UNL     1      -9.492  11.495  65.505  1.00  0.00     0.000 HD 
HETATM   26  O   UNL     1     -11.843  11.272  67.656  1.00  0.00    -0.614 OA 
BRANCH  24  27
HETATM   27  C   UNL     1     -10.990  13.019  65.668  1.00  0.00    -0.273 C  
BRANCH  27  28
HETATM   28  N   UNL     1     -12.354  12.718  65.315  1.00  0.00    -0.487 N  
HETATM   29  O   UNL     1     -11.841  11.631  63.342  1.00  0.00    -0.415 OA 
HETATM   30  C   UNL     1     -12.655  12.034  64.160  1.00  0.00    -0.308 C  
HETATM   31  H   UNL     1     -13.109  13.017  65.932  1.00  0.00     0.000 HD 
ENDBRANCH  27  28
BRANCH  27  32
HETATM   32  C   UNL     1     -10.811  14.238  66.598  1.00  0.00    -0.301 C  
BRANCH  32  33
HETATM   33  C   UNL     1     -10.749  15.713  66.235  1.00  0.00    -0.295 A  
HETATM   34  C   UNL     1     -10.573  17.987  65.907  1.00  0.00    -0.219 A  
HETATM   35  H   UNL     1     -11.270  17.898  63.911  1.00  0.00     0.000 HD 
HETATM   36  C   UNL     1     -10.315  19.349  66.132  1.00  0.00    -0.595 A  
HETATM   37  C   UNL     1     -11.144  16.058  64.945  1.00  0.00    -0.370 A  
HETATM   38  C   UNL     1      -9.873  19.721  67.396  1.00  0.00    -0.519 A  
HETATM   39  N   UNL     1     -11.037  17.401  64.770  1.00  0.00    -0.883 NA 
HETATM   40  C   UNL     1      -9.705  18.759  68.391  1.00  0.00    -0.421 A  
HETATM   41  C   UNL     1      -9.957  17.392  68.143  1.00  0.00    -0.308 A  
HETATM   42  C   UNL     1     -10.398  16.973  66.870  1.00  0.00    -0.303 A  
ENDBRANCH  32  33
ENDBRANCH  27  32
ENDBRANCH  24  27
ENDBRANCH  11  23
ENDBRANCH   7  11
TORSDOF 8
ENDMDL
MODEL       46
REMARK 921   NORMALIZED FREE ENERGY PREDICTED BY IDOCK:   -7.44 KCAL/MOL
REMARK 922        TOTAL FREE ENERGY PREDICTED BY IDOCK:  -13.06 KCAL/MOL
REMARK 923 INTER-LIGAND FREE ENERGY PREDICTED BY IDOCK:  -10.04 KCAL/MOL
REMARK 924 INTRA-LIGAND FREE ENERGY PREDICTED BY IDOCK:   -3.02 KCAL/MOL
REMARK 927      BINDING AFFINITY PREDICTED BY RF-SCORE:    0.00 PKD
ROOT
HETATM    1  C   UNL     1     -13.594  15.068  70.842  1.00  0.00    -0.363 C  
HETATM    2  C   UNL     1     -12.114  14.813  70.496  1.00  0.00    -0.315 C  
HETATM    3  C   UNL     1     -11.682  15.390  68.985  1.00  0.00    -0.361 C  
HETATM    4  N   UNL     1     -11.900  13.337  70.527  1.00  0.00    -0.542 NA 
HETATM    5  C   UNL     1     -11.316  15.399  71.694  1.00  0.00    -0.455 C  
HETATM    6  H2  UNL     1     -12.545  12.828  69.922  1.00  0.00     0.000 HD 
HETATM    7  N   UNL     1     -11.859  14.534  67.892  1.00  0.00    -0.459 N  
HETATM    8  H1  UNL     1     -10.920  13.169  70.297  1.00  0.00     0.000 HD 
HETATM    9  O   UNL     1     -11.263  16.537  68.833  1.00  0.00    -0.319 OA 
HETATM   10  H   UNL     1     -12.074  13.578  68.173  1.00  0.00     0.000 HD 
ENDROOT
BRANCH   7  11
HETATM   11  C   UNL     1     -11.802  14.708  66.333  1.00  0.00    -0.293 C  
BRANCH  11  12
HETATM   12  C   UNL     1     -12.122  13.551  65.277  1.00  0.00    -0.439 C  
BRANCH  12  13
HETATM   13  C   UNL     1     -11.149  12.282  65.145  1.00  0.00    -0.361 A  
HETATM   14  C   UNL     1     -10.396  11.879  64.059  1.00  0.00    -0.364 A  
HETATM   15  C   UNL     1     -10.807   9.923  68.248  1.00  0.00    -0.275 A  
HETATM   16  C   UNL     1     -10.208   8.857  67.584  1.00  0.00    -0.296 A  
HETATM   17  C   UNL     1      -9.855   8.986  66.242  1.00  0.00    -0.361 A  
HETATM   18  N   UNL     1      -9.830  10.630  64.314  1.00  0.00    -0.305 NA 
HETATM   19  C   UNL     1     -11.136  11.112  67.562  1.00  0.00    -0.353 A  
HETATM   20  C   UNL     1     -10.855  11.258  66.177  1.00  0.00    -0.281 A  
HETATM   21  C   UNL     1     -10.158  10.207  65.579  1.00  0.00    -0.268 A  
HETATM   22  H   UNL     1      -9.256  10.105  63.655  1.00  0.00     0.000 HD 
ENDBRANCH  12  13
ENDBRANCH  11  12
BRANCH  11  23
HETATM   23  C   UNL     1     -10.523  15.527  66.016  1.00  0.00    -0.323 C  
HETATM   24  N   UNL     1      -9.415  15.306  66.812  1.00  0.00    -0.232 N  
HETATM   25  H   UNL     1      -9.417  14.534  67.478  1.00  0.00     0.000 HD 
HETATM   26  O   UNL     1     -10.542  16.397  65.140  1.00  0.00    -0.610 OA 
BRANCH  24  27
HETATM   27  C   UNL     1      -8.256  16.162  66.705  1.00  0.00    -0.286 C  
BRANCH  27  28
HETATM   28  N   UNL     1      -8.633  17.498  67.087  1.00  0.00    -0.220 N  
HETATM   29  O   UNL     1      -7.524  18.550  65.354  1.00  0.00    -0.484 OA 
HETATM   30  C   UNL     1      -8.223  18.589  66.356  1.00  0.00    -0.268 C  
HETATM   31  H   UNL     1      -9.213  17.638  67.914  1.00  0.00     0.000 HD 
ENDBRANCH  27  28
BRANCH  27  32
HETATM   32  C   UNL     1      -6.924  15.664  67.306  1.00  0.00    -0.224 C  
BRANCH  32  33
HETATM   33  C   UNL     1      -6.674  14.469  68.211  1.00  0.00    -0.116 A  
HETATM   34  C   UNL     1      -6.353  12.519  69.396  1.00  0.00    -0.114 A  
HETATM   35  H   UNL     1      -5.805  13.524  71.177  1.00  0.00     0.000 HD 
HETATM   36  C   UNL     1      -6.271  11.156  69.720  1.00  0.00    -0.119 A  
HETATM   37  C   UNL     1      -6.276  14.744  69.517  1.00  0.00    -0.120 A  
HETATM   38  C   UNL     1      -6.619  10.238  68.736  1.00  0.00    -0.052 A  
HETATM   39  N   UNL     1      -6.094  13.586  70.201  1.00  0.00    -0.142 NA 
HETATM   40  C   UNL     1      -7.036  10.681  67.482  1.00  0.00    -0.089 A  
HETATM   41  C   UNL     1      -7.100  12.056  67.170  1.00  0.00    -0.130 A  
HETATM   42  C   UNL     1      -6.746  13.019  68.139  1.00  0.00    -0.103 A  
ENDBRANCH  32  33
ENDBRANCH  27  32
ENDBRANCH  24  27
ENDBRANCH  11  23
ENDBRANCH   7  11
TORSDOF 8
ENDMDL
MODEL       47
REMARK 921   NORMALIZED FREE ENERGY PREDICTED BY IDOCK:   -7.43 KCAL/MOL
REMARK 922        TOTAL FREE ENERGY PREDICTED BY IDOCK:  -13.05 KCAL/MOL
REMARK 923 INTER-LIGAND FREE ENERGY PREDICTED BY IDOCK:  -11.31 KCAL/MOL
REMARK 924 INTRA-LIGAND FREE ENERGY PREDICTED BY IDOCK:   -1.74 KCAL/MOL
REMARK 927      BINDING AFFINITY PREDICTED BY RF-SCORE:    0.00 PKD
ROOT
HETATM    1  C   UNL     1     -10.341   8.060  69.453  1.00  0.00    -0.217 C  
HETATM    2  C   UNL     1     -10.328   9.319  70.340  1.00  0.00    -0.240 C  
HETATM    3  C   UNL     1     -11.445  10.472  69.865  1.00  0.00    -0.310 C  
HETATM    4  N   UNL     1      -8.961   9.909  70.252  1.00  0.00    -0.360 NA 
HETATM    5  C   UNL     1     -10.486   8.788  71.792  1.00  0.00    -0.417 C  
HETATM    6  H2  UNL     1      -8.667  10.094  69.293  1.00  0.00     0.000 HD 
HETATM    7  N   UNL     1     -11.039  11.409  68.907  1.00  0.00    -0.215 N  
HETATM    8  H1  UNL     1      -8.953  10.743  70.840  1.00  0.00     0.000 HD 
HETATM    9  O   UNL     1     -12.593  10.474  70.307  1.00  0.00    -0.310 OA 
HETATM   10  H   UNL     1     -10.034  11.383  68.735  1.00  0.00     0.000 HD 
ENDROOT
BRANCH   7  11
HETATM   11  C   UNL     1     -11.774  12.489  68.037  1.00  0.00    -0.355 C  
BRANCH  11  12
HETATM   12  C   UNL     1     -12.107  12.332  66.481  1.00  0.00    -0.094 C  
BRANCH  12  13
HETATM   13  C   UNL     1     -10.929  12.074  65.423  1.00  0.00    -0.347 A  
HETATM   14  C   UNL     1     -10.479  12.902  64.412  1.00  0.00    -0.396 A  
HETATM   15  C   UNL     1      -9.025   8.661  65.616  1.00  0.00    -0.231 A  
HETATM   16  C   UNL     1      -8.409   8.741  64.370  1.00  0.00    -0.165 A  
HETATM   17  C   UNL     1      -8.544   9.897  63.603  1.00  0.00    -0.203 A  
HETATM   18  N   UNL     1      -9.557  12.219  63.619  1.00  0.00    -0.661 NA 
HETATM   19  C   UNL     1      -9.851   9.705  66.084  1.00  0.00    -0.334 A  
HETATM   20  C   UNL     1     -10.069  10.871  65.303  1.00  0.00    -0.340 A  
HETATM   21  C   UNL     1      -9.347  10.954  64.112  1.00  0.00    -0.234 A  
HETATM   22  H   UNL     1      -9.103  12.605  62.791  1.00  0.00     0.000 HD 
ENDBRANCH  12  13
ENDBRANCH  11  12
BRANCH  11  23
HETATM   23  C   UNL     1     -11.173  13.867  68.426  1.00  0.00    -0.264 C  
HETATM   24  N   UNL     1     -12.040  14.940  68.488  1.00  0.00    -0.581 N  
HETATM   25  H   UNL     1     -13.045  14.784  68.419  1.00  0.00     0.000 HD 
HETATM   26  O   UNL     1      -9.956  13.993  68.584  1.00  0.00    -0.227 OA 
BRANCH  24  27
HETATM   27  C   UNL     1     -11.531  16.283  68.651  1.00  0.00    -0.288 C  
BRANCH  27  28
HETATM   28  N   UNL     1     -10.906  16.385  69.946  1.00  0.00    -0.352 N  
HETATM   29  O   UNL     1     -12.772  15.738  71.147  1.00  0.00    -0.471 OA 
HETATM   30  C   UNL     1     -11.604  16.093  71.096  1.00  0.00    -0.404 C  
HETATM   31  H   UNL     1      -9.932  16.678  70.010  1.00  0.00     0.000 HD 
ENDBRANCH  27  28
BRANCH  27  32
HETATM   32  C   UNL     1     -10.726  16.904  67.490  1.00  0.00    -0.270 C  
BRANCH  32  33
HETATM   33  C   UNL     1      -9.953  18.212  67.458  1.00  0.00    -0.338 A  
HETATM   34  C   UNL     1      -8.594  20.073  67.499  1.00  0.00    -0.340 A  
HETATM   35  H   UNL     1     -10.086  21.356  66.718  1.00  0.00     0.000 HD 
HETATM   36  C   UNL     1      -7.475  20.901  67.680  1.00  0.00    -0.239 A  
HETATM   37  C   UNL     1     -10.631  19.330  66.981  1.00  0.00    -0.470 A  
HETATM   38  C   UNL     1      -6.332  20.329  68.227  1.00  0.00    -0.333 A  
HETATM   39  N   UNL     1      -9.818  20.417  67.014  1.00  0.00    -0.461 NA 
HETATM   40  C   UNL     1      -6.324  18.981  68.581  1.00  0.00    -0.266 A  
HETATM   41  C   UNL     1      -7.455  18.160  68.380  1.00  0.00    -0.287 A  
HETATM   42  C   UNL     1      -8.632  18.701  67.817  1.00  0.00    -0.294 A  
ENDBRANCH  32  33
ENDBRANCH  27  32
ENDBRANCH  24  27
ENDBRANCH  11  23
ENDBRANCH   7  11
TORSDOF 8
ENDMDL
MODEL       48
REMARK 921   NORMALIZED FREE ENERGY PREDICTED BY IDOCK:   -7.43 KCAL/MOL
REMARK 922        TOTAL FREE ENERGY PREDICTED BY IDOCK:  -13.04 KCAL/MOL
REMARK 923 INTER-LIGAND FREE ENERGY PREDICTED BY IDOCK:   -9.81 KCAL/MOL
REMARK 924 INTRA-LIGAND FREE ENERGY PREDICTED BY IDOCK:   -3.24 KCAL/MOL
REMARK 927      BINDING AFFINITY PREDICTED BY RF-SCORE:    0.00 PKD
ROOT
HETATM    1  C   UNL     1     -11.702  14.052  63.887  1.00  0.00    -0.182 C  
HETATM    2  C   UNL     1     -11.624  12.522  64.052  1.00  0.00    -0.413 C  
HETATM    3  C   UNL     1     -11.210  12.046  65.602  1.00  0.00    -0.327 C  
HETATM    4  N   UNL     1     -10.585  12.027  63.103  1.00  0.00    -0.649 NA 
HETATM    5  C   UNL     1     -12.988  11.993  63.527  1.00  0.00    -0.329 C  
HETATM    6  H2  UNL     1      -9.682  12.488  63.224  1.00  0.00     0.000 HD 
HETATM    7  N   UNL     1      -9.847  11.929  65.900  1.00  0.00    -0.233 N  
HETATM    8  H1  UNL     1     -10.534  11.014  63.212  1.00  0.00     0.000 HD 
HETATM    9  O   UNL     1     -12.067  11.847  66.463  1.00  0.00    -0.568 OA 
HETATM   10  H   UNL     1      -9.258  11.982  65.069  1.00  0.00     0.000 HD 
ENDROOT
BRANCH   7  11
HETATM   11  C   UNL     1      -9.017  11.735  67.217  1.00  0.00    -0.172 C  
BRANCH  11  12
HETATM   12  C   UNL     1      -8.428  10.337  67.725  1.00  0.00    -0.114 C  
BRANCH  12  13
HETATM   13  C   UNL     1      -9.331   9.013  67.675  1.00  0.00    -0.154 A  
HETATM   14  C   UNL     1     -10.599   8.849  67.149  1.00  0.00    -0.231 A  
HETATM   15  C   UNL     1      -7.862   5.749  69.257  1.00  0.00    -0.090 A  
HETATM   16  C   UNL     1      -9.055   5.034  69.306  1.00  0.00    -0.142 A  
HETATM   17  C   UNL     1     -10.211   5.575  68.746  1.00  0.00    -0.270 A  
HETATM   18  N   UNL     1     -11.084   7.582  67.470  1.00  0.00    -0.532 NA 
HETATM   19  C   UNL     1      -7.820   7.052  68.717  1.00  0.00    -0.118 A  
HETATM   20  C   UNL     1      -8.991   7.667  68.199  1.00  0.00    -0.126 A  
HETATM   21  C   UNL     1     -10.139   6.872  68.171  1.00  0.00    -0.166 A  
HETATM   22  H   UNL     1     -12.009   7.232  67.222  1.00  0.00     0.000 HD 
ENDBRANCH  12  13
ENDBRANCH  11  12
BRANCH  11  23
HETATM   23  C   UNL     1      -9.719  12.571  68.321  1.00  0.00    -0.220 C  
HETATM   24  N   UNL     1     -10.736  11.959  69.028  1.00  0.00    -0.350 N  
HETATM   25  H   UNL     1     -10.905  10.961  68.911  1.00  0.00     0.000 HD 
HETATM   26  O   UNL     1      -9.424  13.758  68.485  1.00  0.00    -0.210 OA 
BRANCH  24  27
HETATM   27  C   UNL     1     -11.563  12.727  69.931  1.00  0.00    -0.173 C  
BRANCH  27  28
HETATM   28  N   UNL     1     -12.289  13.710  69.168  1.00  0.00    -0.303 N  
HETATM   29  O   UNL     1     -11.736  15.499  70.524  1.00  0.00    -0.288 OA 
HETATM   30  C   UNL     1     -12.303  15.034  69.546  1.00  0.00    -0.164 C  
HETATM   31  H   UNL     1     -12.800  13.421  68.335  1.00  0.00     0.000 HD 
ENDBRANCH  27  28
BRANCH  27  32
HETATM   32  C   UNL     1     -12.403  11.964  70.977  1.00  0.00    -0.362 C  
BRANCH  32  33
HETATM   33  C   UNL     1     -12.478  10.468  71.233  1.00  0.00    -0.524 A  
HETATM   34  C   UNL     1     -12.352   8.204  71.643  1.00  0.00    -0.314 A  
HETATM   35  H   UNL     1     -14.444   7.916  71.498  1.00  0.00     0.000 HD 
HETATM   36  C   UNL     1     -11.838   6.928  71.923  1.00  0.00    -0.351 A  
HETATM   37  C   UNL     1     -13.746   9.892  71.220  1.00  0.00    -0.106 A  
HETATM   38  C   UNL     1     -10.459   6.799  72.036  1.00  0.00    -0.226 A  
HETATM   39  N   UNL     1     -13.653   8.559  71.460  1.00  0.00    -0.331 NA 
HETATM   40  C   UNL     1      -9.636   7.912  71.868  1.00  0.00    -0.226 A  
HETATM   41  C   UNL     1     -10.171   9.190  71.599  1.00  0.00    -0.372 A  
HETATM   42  C   UNL     1     -11.567   9.364  71.486  1.00  0.00    -0.467 A  
ENDBRANCH  32  33
ENDBRANCH  27  32
ENDBRANCH  24  27
ENDBRANCH  11  23
ENDBRANCH   7  11
TORSDOF 8
ENDMDL
MODEL       49
REMARK 921   NORMALIZED FREE ENERGY PREDICTED BY IDOCK:   -7.42 KCAL/MOL
REMARK 922        TOTAL FREE ENERGY PREDICTED BY IDOCK:  -13.04 KCAL/MOL
REMARK 923 INTER-LIGAND FREE ENERGY PREDICTED BY IDOCK:  -11.53 KCAL/MOL
REMARK 924 INTRA-LIGAND FREE ENERGY PREDICTED BY IDOCK:   -1.51 KCAL/MOL
REMARK 927      BINDING AFFINITY PREDICTED BY RF-SCORE:    0.00 PKD
ROOT
HETATM    1  C   UNL     1      -9.733  20.127  67.213  1.00  0.00    -0.574 C  
HETATM    2  C   UNL     1      -8.322  19.550  67.434  1.00  0.00    -0.294 C  
HETATM    3  C   UNL     1      -8.220  17.913  67.101  1.00  0.00    -0.216 C  
HETATM    4  N   UNL     1      -7.972  19.772  68.867  1.00  0.00    -0.240 NA 
HETATM    5  C   UNL     1      -7.380  20.466  66.603  1.00  0.00    -0.311 C  
HETATM    6  H2  UNL     1      -8.665  19.389  69.511  1.00  0.00     0.000 HD 
HETATM    7  N   UNL     1      -8.509  17.023  68.142  1.00  0.00    -0.220 N  
HETATM    8  H1  UNL     1      -7.037  19.390  69.012  1.00  0.00     0.000 HD 
HETATM    9  O   UNL     1      -7.942  17.503  65.974  1.00  0.00    -0.475 OA 
HETATM   10  H   UNL     1      -8.583  17.487  69.046  1.00  0.00     0.000 HD 
ENDROOT
BRANCH   7  11
HETATM   11  C   UNL     1      -8.747  15.474  68.236  1.00  0.00    -0.170 C  
BRANCH  11  12
HETATM   12  C   UNL     1      -8.774  14.479  66.985  1.00  0.00    -0.256 C  
BRANCH  12  13
HETATM   13  C   UNL     1      -9.905  14.627  65.857  1.00  0.00    -0.358 A  
HETATM   14  C   UNL     1     -10.550  15.770  65.424  1.00  0.00    -0.421 A  
HETATM   15  C   UNL     1     -11.099  11.373  64.041  1.00  0.00    -0.400 A  
HETATM   16  C   UNL     1     -12.251  11.910  63.473  1.00  0.00    -0.591 A  
HETATM   17  C   UNL     1     -12.519  13.272  63.605  1.00  0.00    -0.347 A  
HETATM   18  N   UNL     1     -11.584  15.428  64.552  1.00  0.00    -0.603 NA 
HETATM   19  C   UNL     1     -10.235  12.172  64.820  1.00  0.00    -0.310 A  
HETATM   20  C   UNL     1     -10.509  13.549  65.035  1.00  0.00    -0.390 A  
HETATM   21  C   UNL     1     -11.614  14.068  64.358  1.00  0.00    -0.369 A  
HETATM   22  H   UNL     1     -12.225  16.092  64.120  1.00  0.00     0.000 HD 
ENDBRANCH  12  13
ENDBRANCH  11  12
BRANCH  11  23
HETATM   23  C   UNL     1      -9.902  15.256  69.251  1.00  0.00    -0.255 C  
HETATM   24  N   UNL     1     -10.505  14.013  69.266  1.00  0.00    -0.431 N  
HETATM   25  H   UNL     1     -10.101  13.247  68.729  1.00  0.00     0.000 HD 
HETATM   26  O   UNL     1     -10.306  16.193  69.945  1.00  0.00    -0.268 OA 
BRANCH  24  27
HETATM   27  C   UNL     1     -11.706  13.793  70.039  1.00  0.00    -0.257 C  
BRANCH  27  28
HETATM   28  N   UNL     1     -12.690  14.770  69.650  1.00  0.00    -0.584 N  
HETATM   29  O   UNL     1     -13.436  15.205  71.794  1.00  0.00    -0.363 OA 
HETATM   30  C   UNL     1     -13.477  15.399  70.588  1.00  0.00    -0.160 C  
HETATM   31  H   UNL     1     -12.806  14.999  68.663  1.00  0.00     0.000 HD 
ENDBRANCH  27  28
BRANCH  27  32
HETATM   32  C   UNL     1     -12.237  12.349  70.168  1.00  0.00    -0.303 C  
BRANCH  32  33
HETATM   33  C   UNL     1     -11.656  11.066  69.597  1.00  0.00    -0.390 A  
HETATM   34  C   UNL     1     -10.742   9.049  68.958  1.00  0.00    -0.141 A  
HETATM   35  H   UNL     1     -10.942   9.451  66.889  1.00  0.00     0.000 HD 
HETATM   36  C   UNL     1     -10.167   7.770  69.016  1.00  0.00    -0.213 A  
HETATM   37  C   UNL     1     -11.621  10.957  68.209  1.00  0.00    -0.262 A  
HETATM   38  C   UNL     1      -9.879   7.249  70.272  1.00  0.00    -0.179 A  
HETATM   39  N   UNL     1     -11.078   9.765  67.850  1.00  0.00    -0.186 NA 
HETATM   40  C   UNL     1     -10.155   7.993  71.419  1.00  0.00    -0.228 A  
HETATM   41  C   UNL     1     -10.746   9.273  71.342  1.00  0.00    -0.432 A  
HETATM   42  C   UNL     1     -11.062   9.832  70.085  1.00  0.00    -0.335 A  
ENDBRANCH  32  33
ENDBRANCH  27  32
ENDBRANCH  24  27
ENDBRANCH  11  23
ENDBRANCH   7  11
TORSDOF 8
ENDMDL
MODEL       50
REMARK 921   NORMALIZED FREE ENERGY PREDICTED BY IDOCK:   -7.42 KCAL/MOL
REMARK 922        TOTAL FREE ENERGY PREDICTED BY IDOCK:  -13.03 KCAL/MOL
REMARK 923 INTER-LIGAND FREE ENERGY PREDICTED BY IDOCK:  -11.50 KCAL/MOL
REMARK 924 INTRA-LIGAND FREE ENERGY PREDICTED BY IDOCK:   -1.53 KCAL/MOL
REMARK 927      BINDING AFFINITY PREDICTED BY RF-SCORE:    0.00 PKD
ROOT
HETATM    1  C   UNL     1     -13.018  12.490  64.853  1.00  0.00    -0.022 C  
HETATM    2  C   UNL     1     -11.803  13.107  64.134  1.00  0.00    -0.429 C  
HETATM    3  C   UNL     1     -10.663  13.735  65.187  1.00  0.00    -0.358 C  
HETATM    4  N   UNL     1     -12.315  14.208  63.266  1.00  0.00    -1.133 NA 
HETATM    5  C   UNL     1     -11.295  11.992  63.178  1.00  0.00    -0.255 C  
HETATM    6  H2  UNL     1     -12.867  14.896  63.779  1.00  0.00     0.000 HD 
HETATM    7  N   UNL     1     -10.823  15.065  65.593  1.00  0.00    -0.332 N  
HETATM    8  H1  UNL     1     -11.510  14.616  62.790  1.00  0.00     0.000 HD 
HETATM    9  O   UNL     1      -9.742  13.045  65.621  1.00  0.00    -0.210 OA 
HETATM   10  H   UNL     1     -11.535  15.558  65.054  1.00  0.00     0.000 HD 
ENDROOT
BRANCH   7  11
HETATM   11  C   UNL     1     -10.160  15.972  66.689  1.00  0.00    -0.279 C  
BRANCH  11  12
HETATM   12  C   UNL     1      -8.720  16.657  66.554  1.00  0.00    -0.317 C  
BRANCH  12  13
HETATM   13  C   UNL     1      -8.226  17.725  67.644  1.00  0.00    -0.230 A  
HETATM   14  C   UNL     1      -8.637  19.033  67.821  1.00  0.00    -0.298 A  
HETATM   15  C   UNL     1      -5.468  16.594  70.178  1.00  0.00    -0.205 A  
HETATM   16  C   UNL     1      -5.129  17.864  70.636  1.00  0.00    -0.269 A  
HETATM   17  C   UNL     1      -5.854  18.974  70.204  1.00  0.00    -0.253 A  
HETATM   18  N   UNL     1      -7.828  19.657  68.771  1.00  0.00    -0.333 NA 
HETATM   19  C   UNL     1      -6.488  16.418  69.219  1.00  0.00    -0.197 A  
HETATM   20  C   UNL     1      -7.205  17.530  68.703  1.00  0.00    -0.246 A  
HETATM   21  C   UNL     1      -6.905  18.770  69.269  1.00  0.00    -0.238 A  
HETATM   22  H   UNL     1      -7.911  20.633  69.054  1.00  0.00     0.000 HD 
ENDBRANCH  12  13
ENDBRANCH  11  12
BRANCH  11  23
HETATM   23  C   UNL     1     -10.416  15.288  68.058  1.00  0.00    -0.248 C  
HETATM   24  N   UNL     1     -11.544  15.672  68.757  1.00  0.00    -0.370 N  
HETATM   25  H   UNL     1     -12.236  16.273  68.310  1.00  0.00     0.000 HD 
HETATM   26  O   UNL     1      -9.588  14.500  68.525  1.00  0.00    -0.210 OA 
BRANCH  24  27
HETATM   27  C   UNL     1     -11.749  15.228  70.116  1.00  0.00    -0.312 C  
BRANCH  27  28
HETATM   28  N   UNL     1     -11.908  16.385  70.960  1.00  0.00    -0.566 N  
HETATM   29  O   UNL     1     -11.708  15.236  72.956  1.00  0.00    -0.429 OA 
HETATM   30  C   UNL     1     -11.869  16.274  72.331  1.00  0.00    -0.512 C  
HETATM   31  H   UNL     1     -12.052  17.300  70.534  1.00  0.00     0.000 HD 
ENDBRANCH  27  28
BRANCH  27  32
HETATM   32  C   UNL     1     -12.765  14.094  70.368  1.00  0.00    -0.341 C  
BRANCH  32  33
HETATM   33  C   UNL     1     -12.503  12.618  70.622  1.00  0.00    -0.323 A  
HETATM   34  C   UNL     1     -11.964  10.386  70.814  1.00  0.00    -0.363 A  
HETATM   35  H   UNL     1     -13.158  10.099  72.539  1.00  0.00     0.000 HD 
HETATM   36  C   UNL     1     -11.388   9.129  70.569  1.00  0.00    -0.300 A  
HETATM   37  C   UNL     1     -13.141  12.048  71.721  1.00  0.00    -0.355 A  
HETATM   38  C   UNL     1     -10.569   9.002  69.454  1.00  0.00    -0.231 A  
HETATM   39  N   UNL     1     -12.815  10.734  71.818  1.00  0.00    -0.447 NA 
HETATM   40  C   UNL     1     -10.346  10.097  68.620  1.00  0.00    -0.208 A  
HETATM   41  C   UNL     1     -10.923  11.357  68.889  1.00  0.00    -0.276 A  
HETATM   42  C   UNL     1     -11.754  11.529  70.018  1.00  0.00    -0.414 A  
ENDBRANCH  32  33
ENDBRANCH  27  32
ENDBRANCH  24  27
ENDBRANCH  11  23
ENDBRANCH   7  11
TORSDOF 8
ENDMDL
MODEL       51
REMARK 921   NORMALIZED FREE ENERGY PREDICTED BY IDOCK:   -7.40 KCAL/MOL
REMARK 922        TOTAL FREE ENERGY PREDICTED BY IDOCK:  -13.01 KCAL/MOL
REMARK 923 INTER-LIGAND FREE ENERGY PREDICTED BY IDOCK:  -11.09 KCAL/MOL
REMARK 924 INTRA-LIGAND FREE ENERGY PREDICTED BY IDOCK:   -1.92 KCAL/MOL
REMARK 927      BINDING AFFINITY PREDICTED BY RF-SCORE:    0.00 PKD
ROOT
HETATM    1  C   UNL     1     -10.235   8.174  66.826  1.00  0.00    -0.372 C  
HETATM    2  C   UNL     1      -9.082   9.066  66.326  1.00  0.00    -0.179 C  
HETATM    3  C   UNL     1      -9.142  10.623  66.937  1.00  0.00    -0.155 C  
HETATM    4  N   UNL     1      -9.185   9.129  64.839  1.00  0.00    -0.437 NA 
HETATM    5  C   UNL     1      -7.789   8.266  66.645  1.00  0.00    -0.094 C  
HETATM    6  H2  UNL     1     -10.101   9.441  64.515  1.00  0.00     0.000 HD 
HETATM    7  N   UNL     1      -9.892  11.568  66.227  1.00  0.00    -0.210 N  
HETATM    8  H1  UNL     1      -8.422   9.720  64.508  1.00  0.00     0.000 HD 
HETATM    9  O   UNL     1      -8.583  10.920  67.992  1.00  0.00    -0.124 OA 
HETATM   10  H   UNL     1     -10.179  11.231  65.308  1.00  0.00     0.000 HD 
ENDROOT
BRANCH   7  11
HETATM   11  C   UNL     1     -10.392  13.026  66.519  1.00  0.00    -0.274 C  
BRANCH  11  12
HETATM   12  C   UNL     1      -9.458  14.325  66.529  1.00  0.00    -0.306 C  
BRANCH  12  13
HETATM   13  C   UNL     1     -10.049  15.751  66.093  1.00  0.00    -0.337 A  
HETATM   14  C   UNL     1     -10.878  16.055  65.030  1.00  0.00    -0.404 A  
HETATM   15  C   UNL     1      -9.049  18.866  68.238  1.00  0.00    -0.363 A  
HETATM   16  C   UNL     1      -9.460  19.837  67.328  1.00  0.00    -0.471 A  
HETATM   17  C   UNL     1     -10.117  19.456  66.158  1.00  0.00    -0.533 A  
HETATM   18  N   UNL     1     -11.010  17.438  64.913  1.00  0.00    -0.851 NA 
HETATM   19  C   UNL     1      -9.216  17.494  67.958  1.00  0.00    -0.275 A  
HETATM   20  C   UNL     1      -9.819  17.063  66.746  1.00  0.00    -0.283 A  
HETATM   21  C   UNL     1     -10.312  18.070  65.915  1.00  0.00    -0.271 A  
HETATM   22  H   UNL     1     -11.546  17.914  64.188  1.00  0.00     0.000 HD 
ENDBRANCH  12  13
ENDBRANCH  11  12
BRANCH  11  23
HETATM   23  C   UNL     1     -11.373  12.936  67.719  1.00  0.00    -0.299 C  
HETATM   24  N   UNL     1     -10.822  12.808  68.979  1.00  0.00    -0.398 N  
HETATM   25  H   UNL     1      -9.816  12.915  69.105  1.00  0.00     0.000 HD 
HETATM   26  O   UNL     1     -12.591  12.893  67.525  1.00  0.00     0.050 OA 
BRANCH  24  27
HETATM   27  C   UNL     1     -11.662  12.525  70.119  1.00  0.00    -0.175 C  
BRANCH  27  28
HETATM   28  N   UNL     1     -12.508  13.665  70.363  1.00  0.00    -0.318 N  
HETATM   29  O   UNL     1     -10.817  15.038  71.134  1.00  0.00    -0.171 OA 
HETATM   30  C   UNL     1     -11.990  14.841  70.857  1.00  0.00    -0.324 C  
HETATM   31  H   UNL     1     -13.507  13.600  70.168  1.00  0.00     0.000 HD 
ENDBRANCH  27  28
BRANCH  27  32
HETATM   32  C   UNL     1     -12.379  11.159  70.175  1.00  0.00    -0.373 C  
BRANCH  32  33
HETATM   33  C   UNL     1     -12.139   9.994  71.121  1.00  0.00    -0.475 A  
HETATM   34  C   UNL     1     -11.541   8.249  72.503  1.00  0.00    -0.385 A  
HETATM   35  H   UNL     1     -13.530   7.861  73.112  1.00  0.00     0.000 HD 
HETATM   36  C   UNL     1     -10.767   7.305  73.197  1.00  0.00    -0.411 A  
HETATM   37  C   UNL     1     -13.259   9.449  71.743  1.00  0.00    -0.411 A  
HETATM   38  C   UNL     1      -9.398   7.296  72.962  1.00  0.00    -0.204 A  
HETATM   39  N   UNL     1     -12.890   8.422  72.551  1.00  0.00    -0.266 NA 
HETATM   40  C   UNL     1      -8.836   8.197  72.059  1.00  0.00    -0.233 A  
HETATM   41  C   UNL     1      -9.627   9.148  71.379  1.00  0.00    -0.316 A  
HETATM   42  C   UNL     1     -11.021   9.197  71.599  1.00  0.00    -0.445 A  
ENDBRANCH  32  33
ENDBRANCH  27  32
ENDBRANCH  24  27
ENDBRANCH  11  23
ENDBRANCH   7  11
TORSDOF 8
ENDMDL
MODEL       52
REMARK 921   NORMALIZED FREE ENERGY PREDICTED BY IDOCK:   -7.39 KCAL/MOL
REMARK 922        TOTAL FREE ENERGY PREDICTED BY IDOCK:  -12.99 KCAL/MOL
REMARK 923 INTER-LIGAND FREE ENERGY PREDICTED BY IDOCK:  -10.59 KCAL/MOL
REMARK 924 INTRA-LIGAND FREE ENERGY PREDICTED BY IDOCK:   -2.40 KCAL/MOL
REMARK 927      BINDING AFFINITY PREDICTED BY RF-SCORE:    0.00 PKD
ROOT
HETATM    1  C   UNL     1     -12.935   7.067  71.579  1.00  0.00    -0.411 C  
HETATM    2  C   UNL     1     -11.558   7.099  70.888  1.00  0.00    -0.311 C  
HETATM    3  C   UNL     1     -10.872   8.626  70.855  1.00  0.00    -0.239 C  
HETATM    4  N   UNL     1     -11.755   6.630  69.486  1.00  0.00    -0.657 NA 
HETATM    5  C   UNL     1     -10.724   6.003  71.607  1.00  0.00    -0.303 C  
HETATM    6  H2  UNL     1     -12.466   7.162  68.983  1.00  0.00     0.000 HD 
HETATM    7  N   UNL     1     -11.192   9.454  69.772  1.00  0.00    -0.398 N  
HETATM    8  H1  UNL     1     -10.843   6.651  69.029  1.00  0.00     0.000 HD 
HETATM    9  O   UNL     1     -10.149   9.024  71.767  1.00  0.00    -0.326 OA 
HETATM   10  H   UNL     1     -11.678   8.956  69.027  1.00  0.00     0.000 HD 
ENDROOT
BRANCH   7  11
HETATM   11  C   UNL     1     -10.973  10.972  69.441  1.00  0.00    -0.248 C  
BRANCH  11  12
HETATM   12  C   UNL     1     -12.088  11.940  68.827  1.00  0.00    -0.182 C  
BRANCH  12  13
HETATM   13  C   UNL     1     -12.216  13.455  69.339  1.00  0.00    -0.246 A  
HETATM   14  C   UNL     1     -11.971  14.626  68.645  1.00  0.00    -0.270 A  
HETATM   15  C   UNL     1     -13.333  14.037  73.043  1.00  0.00    -0.303 A  
HETATM   16  C   UNL     1     -12.963  15.376  73.123  1.00  0.00    -0.628 A  
HETATM   17  C   UNL     1     -12.491  16.033  71.987  1.00  0.00    -0.498 A  
HETATM   18  N   UNL     1     -12.037  15.713  69.515  1.00  0.00    -0.488 NA 
HETATM   19  C   UNL     1     -13.164  13.308  71.846  1.00  0.00    -0.523 A  
HETATM   20  C   UNL     1     -12.623  13.923  70.686  1.00  0.00    -0.405 A  
HETATM   21  C   UNL     1     -12.368  15.292  70.781  1.00  0.00    -0.380 A  
HETATM   22  H   UNL     1     -11.864  16.682  69.251  1.00  0.00     0.000 HD 
ENDBRANCH  12  13
ENDBRANCH  11  12
BRANCH  11  23
HETATM   23  C   UNL     1      -9.581  11.091  68.763  1.00  0.00    -0.187 C  
HETATM   24  N   UNL     1      -8.753  12.111  69.189  1.00  0.00    -0.158 N  
HETATM   25  H   UNL     1      -9.007  12.659  70.010  1.00  0.00     0.000 HD 
HETATM   26  O   UNL     1      -9.282  10.348  67.823  1.00  0.00    -0.141 OA 
BRANCH  24  27
HETATM   27  C   UNL     1      -7.530  12.405  68.479  1.00  0.00    -0.112 C  
BRANCH  27  28
HETATM   28  N   UNL     1      -6.692  11.234  68.499  1.00  0.00    -0.060 N  
HETATM   29  O   UNL     1      -6.198  11.350  70.753  1.00  0.00    -0.343 OA 
HETATM   30  C   UNL     1      -6.095  10.808  69.663  1.00  0.00    -0.069 C  
HETATM   31  H   UNL     1      -6.539  10.712  67.636  1.00  0.00     0.000 HD 
ENDBRANCH  27  28
BRANCH  27  32
HETATM   32  C   UNL     1      -7.634  13.108  67.108  1.00  0.00    -0.008 C  
BRANCH  32  33
HETATM   33  C   UNL     1      -8.802  13.880  66.518  1.00  0.00    -0.023 A  
HETATM   34  C   UNL     1     -10.652  14.842  65.536  1.00  0.00    -0.359 A  
HETATM   35  H   UNL     1     -10.167  16.793  66.200  1.00  0.00     0.000 HD 
HETATM   36  C   UNL     1     -11.851  14.998  64.823  1.00  0.00    -0.341 A  
HETATM   37  C   UNL     1      -8.832  15.252  66.757  1.00  0.00    -0.271 A  
HETATM   38  C   UNL     1     -12.398  13.869  64.227  1.00  0.00    -0.390 A  
HETATM   39  N   UNL     1      -9.925  15.803  66.170  1.00  0.00    -0.288 NA 
HETATM   40  C   UNL     1     -11.758  12.636  64.343  1.00  0.00    -0.431 A  
HETATM   41  C   UNL     1     -10.559  12.494  65.075  1.00  0.00    -0.329 A  
HETATM   42  C   UNL     1      -9.977  13.617  65.703  1.00  0.00    -0.261 A  
ENDBRANCH  32  33
ENDBRANCH  27  32
ENDBRANCH  24  27
ENDBRANCH  11  23
ENDBRANCH   7  11
TORSDOF 8
ENDMDL
MODEL       53
REMARK 921   NORMALIZED FREE ENERGY PREDICTED BY IDOCK:   -7.38 KCAL/MOL
REMARK 922        TOTAL FREE ENERGY PREDICTED BY IDOCK:  -12.97 KCAL/MOL
REMARK 923 INTER-LIGAND FREE ENERGY PREDICTED BY IDOCK:  -11.49 KCAL/MOL
REMARK 924 INTRA-LIGAND FREE ENERGY PREDICTED BY IDOCK:   -1.48 KCAL/MOL
REMARK 927      BINDING AFFINITY PREDICTED BY RF-SCORE:    0.00 PKD
ROOT
HETATM    1  C   UNL     1     -12.160  13.070  63.442  1.00  0.00    -0.591 C  
HETATM    2  C   UNL     1     -11.063  12.633  64.433  1.00  0.00    -0.345 C  
HETATM    3  C   UNL     1     -11.556  12.698  66.032  1.00  0.00    -0.393 C  
HETATM    4  N   UNL     1      -9.907  13.557  64.248  1.00  0.00    -0.690 NA 
HETATM    5  C   UNL     1     -10.599  11.239  63.927  1.00  0.00    -0.455 C  
HETATM    6  H2  UNL     1     -10.162  14.540  64.343  1.00  0.00     0.000 HD 
HETATM    7  N   UNL     1     -11.383  13.909  66.712  1.00  0.00    -0.322 N  
HETATM    8  H1  UNL     1      -9.181  13.268  64.904  1.00  0.00     0.000 HD 
HETATM    9  O   UNL     1     -12.088  11.733  66.578  1.00  0.00    -0.498 OA 
HETATM   10  H   UNL     1     -10.808  14.572  66.193  1.00  0.00     0.000 HD 
ENDROOT
BRANCH   7  11
HETATM   11  C   UNL     1     -11.872  14.481  68.089  1.00  0.00    -0.313 C  
BRANCH  11  12
HETATM   12  C   UNL     1     -11.621  15.978  68.594  1.00  0.00    -0.343 C  
BRANCH  12  13
HETATM   13  C   UNL     1     -10.186  16.668  68.399  1.00  0.00    -0.284 A  
HETATM   14  C   UNL     1      -8.937  16.174  68.725  1.00  0.00    -0.236 A  
HETATM   15  C   UNL     1     -10.089  20.249  66.824  1.00  0.00    -0.556 A  
HETATM   16  C   UNL     1      -8.777  20.553  67.177  1.00  0.00    -0.375 A  
HETATM   17  C   UNL     1      -7.981  19.583  67.786  1.00  0.00    -0.329 A  
HETATM   18  N   UNL     1      -7.974  17.167  68.547  1.00  0.00    -0.249 NA 
HETATM   19  C   UNL     1     -10.653  18.996  67.144  1.00  0.00    -0.545 A  
HETATM   20  C   UNL     1      -9.896  18.005  67.824  1.00  0.00    -0.306 A  
HETATM   21  C   UNL     1      -8.556  18.314  68.062  1.00  0.00    -0.269 A  
HETATM   22  H   UNL     1      -6.981  17.058  68.749  1.00  0.00     0.000 HD 
ENDBRANCH  12  13
ENDBRANCH  11  12
BRANCH  11  23
HETATM   23  C   UNL     1     -11.589  13.391  69.157  1.00  0.00    -0.315 C  
HETATM   24  N   UNL     1     -12.646  12.995  69.953  1.00  0.00     0.041 N  
HETATM   25  H   UNL     1     -13.591  13.312  69.736  1.00  0.00     0.000 HD 
HETATM   26  O   UNL     1     -10.441  12.972  69.330  1.00  0.00     0.027 OA 
BRANCH  24  27
HETATM   27  C   UNL     1     -12.422  12.133  71.090  1.00  0.00    -0.234 C  
BRANCH  27  28
HETATM   28  N   UNL     1     -13.301  12.538  72.157  1.00  0.00    -0.510 N  
HETATM   29  O   UNL     1     -12.688  14.766  72.119  1.00  0.00    -0.305 OA 
HETATM   30  C   UNL     1     -13.352  13.848  72.576  1.00  0.00    -0.554 C  
HETATM   31  H   UNL     1     -13.896  11.844  72.608  1.00  0.00     0.000 HD 
ENDBRANCH  27  28
BRANCH  27  32
HETATM   32  C   UNL     1     -12.351  10.610  70.849  1.00  0.00    -0.502 C  
BRANCH  32  33
HETATM   33  C   UNL     1     -11.141   9.752  70.518  1.00  0.00    -0.384 A  
HETATM   34  C   UNL     1      -9.293   8.401  70.250  1.00  0.00    -0.164 A  
HETATM   35  H   UNL     1      -9.201   8.699  68.156  1.00  0.00     0.000 HD 
HETATM   36  C   UNL     1      -8.225   7.534  70.531  1.00  0.00    -0.118 A  
HETATM   37  C   UNL     1     -10.760   9.694  69.180  1.00  0.00    -0.217 A  
HETATM   38  C   UNL     1      -8.011   7.186  71.860  1.00  0.00    -0.093 A  
HETATM   39  N   UNL     1      -9.670   8.897  69.040  1.00  0.00    -0.168 NA 
HETATM   40  C   UNL     1      -8.836   7.697  72.860  1.00  0.00    -0.211 A  
HETATM   41  C   UNL     1      -9.914   8.558  72.557  1.00  0.00    -0.322 A  
HETATM   42  C   UNL     1     -10.170   8.927  71.219  1.00  0.00    -0.361 A  
ENDBRANCH  32  33
ENDBRANCH  27  32
ENDBRANCH  24  27
ENDBRANCH  11  23
ENDBRANCH   7  11
TORSDOF 8
ENDMDL
MODEL       54
REMARK 921   NORMALIZED FREE ENERGY PREDICTED BY IDOCK:   -7.37 KCAL/MOL
REMARK 922        TOTAL FREE ENERGY PREDICTED BY IDOCK:  -12.96 KCAL/MOL
REMARK 923 INTER-LIGAND FREE ENERGY PREDICTED BY IDOCK:  -10.90 KCAL/MOL
REMARK 924 INTRA-LIGAND FREE ENERGY PREDICTED BY IDOCK:   -2.06 KCAL/MOL
REMARK 927      BINDING AFFINITY PREDICTED BY RF-SCORE:    0.00 PKD
ROOT
HETATM    1  C   UNL     1     -12.610  10.141  71.856  1.00  0.00    -0.437 C  
HETATM    2  C   UNL     1     -11.851   8.881  71.397  1.00  0.00    -0.317 C  
HETATM    3  C   UNL     1     -10.729   9.190  70.194  1.00  0.00    -0.233 C  
HETATM    4  N   UNL     1     -12.864   7.919  70.875  1.00  0.00    -0.519 NA 
HETATM    5  C   UNL     1     -11.283   8.258  72.703  1.00  0.00    -0.410 C  
HETATM    6  H2  UNL     1     -13.454   8.319  70.144  1.00  0.00     0.000 HD 
HETATM    7  N   UNL     1     -11.174   9.139  68.868  1.00  0.00    -0.431 N  
HETATM    8  H1  UNL     1     -12.361   7.085  70.572  1.00  0.00     0.000 HD 
HETATM    9  O   UNL     1      -9.567   9.491  70.462  1.00  0.00    -0.249 OA 
HETATM   10  H   UNL     1     -12.110   8.743  68.783  1.00  0.00     0.000 HD 
ENDROOT
BRANCH   7  11
HETATM   11  C   UNL     1     -10.565   9.552  67.482  1.00  0.00    -0.275 C  
BRANCH  11  12
HETATM   12  C   UNL     1      -9.413   8.747  66.718  1.00  0.00    -0.249 C  
BRANCH  12  13
HETATM   13  C   UNL     1      -8.385   7.829  67.539  1.00  0.00    -0.120 A  
HETATM   14  C   UNL     1      -7.032   8.020  67.748  1.00  0.00    -0.078 A  
HETATM   15  C   UNL     1      -9.779   4.568  69.191  1.00  0.00    -0.250 A  
HETATM   16  C   UNL     1      -8.549   3.968  69.444  1.00  0.00    -0.112 A  
HETATM   17  C   UNL     1      -7.371   4.665  69.181  1.00  0.00    -0.053 A  
HETATM   18  N   UNL     1      -6.487   6.896  68.369  1.00  0.00    -0.038 NA 
HETATM   19  C   UNL     1      -9.854   5.846  68.597  1.00  0.00    -0.170 A  
HETATM   20  C   UNL     1      -8.676   6.560  68.251  1.00  0.00    -0.117 A  
HETATM   21  C   UNL     1      -7.468   5.967  68.621  1.00  0.00    -0.087 A  
HETATM   22  H   UNL     1      -5.502   6.780  68.603  1.00  0.00     0.000 HD 
ENDBRANCH  12  13
ENDBRANCH  11  12
BRANCH  11  23
HETATM   23  C   UNL     1     -10.351  11.089  67.522  1.00  0.00    -0.198 C  
HETATM   24  N   UNL     1     -11.399  11.885  67.105  1.00  0.00    -0.320 N  
HETATM   25  H   UNL     1     -12.311  11.467  66.920  1.00  0.00     0.000 HD 
HETATM   26  O   UNL     1      -9.252  11.556  67.834  1.00  0.00    -0.157 OA 
BRANCH  24  27
HETATM   27  C   UNL     1     -11.213  13.307  66.930  1.00  0.00    -0.305 C  
BRANCH  27  28
HETATM   28  N   UNL     1     -11.067  13.583  65.523  1.00  0.00    -0.292 N  
HETATM   29  O   UNL     1     -13.039  12.561  64.887  1.00  0.00    -0.833 OA 
HETATM   30  C   UNL     1     -12.019  13.176  64.617  1.00  0.00    -0.388 C  
HETATM   31  H   UNL     1     -10.245  14.089  65.194  1.00  0.00     0.000 HD 
ENDBRANCH  27  28
BRANCH  27  32
HETATM   32  C   UNL     1     -12.156  14.266  67.687  1.00  0.00    -0.332 C  
BRANCH  32  33
HETATM   33  C   UNL     1     -11.972  14.903  69.054  1.00  0.00    -0.307 A  
HETATM   34  C   UNL     1     -11.833  15.693  71.214  1.00  0.00    -0.419 A  
HETATM   35  H   UNL     1     -10.588  17.323  70.690  1.00  0.00     0.000 HD 
HETATM   36  C   UNL     1     -12.007  15.813  72.602  1.00  0.00    -0.597 A  
HETATM   37  C   UNL     1     -11.177  16.044  69.113  1.00  0.00    -0.342 A  
HETATM   38  C   UNL     1     -12.826  14.883  73.232  1.00  0.00    -0.646 A  
HETATM   39  N   UNL     1     -11.108  16.498  70.391  1.00  0.00    -0.254 NA 
HETATM   40  C   UNL     1     -13.448  13.881  72.489  1.00  0.00    -0.676 A  
HETATM   41  C   UNL     1     -13.252  13.768  71.095  1.00  0.00    -0.277 A  
HETATM   42  C   UNL     1     -12.419  14.687  70.421  1.00  0.00    -0.410 A  
ENDBRANCH  32  33
ENDBRANCH  27  32
ENDBRANCH  24  27
ENDBRANCH  11  23
ENDBRANCH   7  11
TORSDOF 8
ENDMDL
MODEL       55
REMARK 921   NORMALIZED FREE ENERGY PREDICTED BY IDOCK:   -7.36 KCAL/MOL
REMARK 922        TOTAL FREE ENERGY PREDICTED BY IDOCK:  -12.94 KCAL/MOL
REMARK 923 INTER-LIGAND FREE ENERGY PREDICTED BY IDOCK:  -11.92 KCAL/MOL
REMARK 924 INTRA-LIGAND FREE ENERGY PREDICTED BY IDOCK:   -1.02 KCAL/MOL
REMARK 927      BINDING AFFINITY PREDICTED BY RF-SCORE:    0.00 PKD
ROOT
HETATM    1  C   UNL     1     -10.118  12.306  64.862  1.00  0.00    -0.274 C  
HETATM    2  C   UNL     1     -11.362  13.099  65.307  1.00  0.00    -0.296 C  
HETATM    3  C   UNL     1     -10.988  14.489  66.161  1.00  0.00    -0.322 C  
HETATM    4  N   UNL     1     -12.171  12.201  66.181  1.00  0.00    -0.514 NA 
HETATM    5  C   UNL     1     -12.188  13.310  64.007  1.00  0.00    -0.475 C  
HETATM    6  H2  UNL     1     -11.638  11.822  66.965  1.00  0.00     0.000 HD 
HETATM    7  N   UNL     1     -10.835  14.374  67.547  1.00  0.00    -0.278 N  
HETATM    8  H1  UNL     1     -12.995  12.726  66.475  1.00  0.00     0.000 HD 
HETATM    9  O   UNL     1     -10.811  15.565  65.590  1.00  0.00    -0.334 OA 
HETATM   10  H   UNL     1     -11.146  13.470  67.903  1.00  0.00     0.000 HD 
ENDROOT
BRANCH   7  11
HETATM   11  C   UNL     1     -10.295  15.316  68.681  1.00  0.00    -0.232 C  
BRANCH  11  12
HETATM   12  C   UNL     1      -8.750  15.634  68.941  1.00  0.00    -0.215 C  
BRANCH  12  13
HETATM   13  C   UNL     1      -8.100  16.996  68.395  1.00  0.00    -0.245 A  
HETATM   14  C   UNL     1      -6.765  17.344  68.310  1.00  0.00    -0.183 A  
HETATM   15  C   UNL     1     -10.530  19.793  67.138  1.00  0.00    -0.592 A  
HETATM   16  C   UNL     1      -9.600  20.829  67.121  1.00  0.00    -0.465 A  
HETATM   17  C   UNL     1      -8.260  20.562  67.399  1.00  0.00    -0.344 A  
HETATM   18  N   UNL     1      -6.649  18.683  67.939  1.00  0.00    -0.211 NA 
HETATM   19  C   UNL     1     -10.151  18.486  67.509  1.00  0.00    -0.383 A  
HETATM   20  C   UNL     1      -8.809  18.187  67.866  1.00  0.00    -0.273 A  
HETATM   21  C   UNL     1      -7.892  19.230  67.730  1.00  0.00    -0.275 A  
HETATM   22  H   UNL     1      -5.768  19.185  67.838  1.00  0.00     0.000 HD 
ENDBRANCH  12  13
ENDBRANCH  11  12
BRANCH  11  23
HETATM   23  C   UNL     1     -11.104  14.988  69.964  1.00  0.00    -0.263 C  
HETATM   24  N   UNL     1     -11.625  13.714  70.077  1.00  0.00    -0.471 N  
HETATM   25  H   UNL     1     -11.357  12.996  69.404  1.00  0.00     0.000 HD 
HETATM   26  O   UNL     1     -11.335  15.870  70.797  1.00  0.00    -0.344 OA 
BRANCH  24  27
HETATM   27  C   UNL     1     -12.547  13.392  71.142  1.00  0.00    -0.345 C  
BRANCH  27  28
HETATM   28  N   UNL     1     -13.731  14.196  70.985  1.00  0.00    -0.240 N  
HETATM   29  O   UNL     1     -13.827  14.887  73.188  1.00  0.00    -0.458 OA 
HETATM   30  C   UNL     1     -14.269  14.885  72.049  1.00  0.00    -0.546 C  
HETATM   31  H   UNL     1     -14.180  14.256  70.071  1.00  0.00     0.000 HD 
ENDBRANCH  27  28
BRANCH  27  32
HETATM   32  C   UNL     1     -12.808  11.903  71.456  1.00  0.00    -0.421 C  
BRANCH  32  33
HETATM   33  C   UNL     1     -12.121  10.673  70.884  1.00  0.00    -0.489 A  
HETATM   34  C   UNL     1     -11.145   8.695  70.218  1.00  0.00    -0.217 A  
HETATM   35  H   UNL     1     -10.472   9.483  68.372  1.00  0.00     0.000 HD 
HETATM   36  C   UNL     1     -10.717   7.358  70.209  1.00  0.00    -0.250 A  
HETATM   37  C   UNL     1     -11.537  10.809  69.627  1.00  0.00    -0.316 A  
HETATM   38  C   UNL     1     -10.989   6.587  71.333  1.00  0.00    -0.303 A  
HETATM   39  N   UNL     1     -10.965   9.636  69.251  1.00  0.00    -0.204 NA 
HETATM   40  C   UNL     1     -11.660   7.146  72.420  1.00  0.00    -0.292 A  
HETATM   41  C   UNL     1     -12.095   8.488  72.406  1.00  0.00    -0.436 A  
HETATM   42  C   UNL     1     -11.846   9.302  71.279  1.00  0.00    -0.415 A  
ENDBRANCH  32  33
ENDBRANCH  27  32
ENDBRANCH  24  27
ENDBRANCH  11  23
ENDBRANCH   7  11
TORSDOF 8
ENDMDL
MODEL       56
REMARK 921   NORMALIZED FREE ENERGY PREDICTED BY IDOCK:   -7.35 KCAL/MOL
REMARK 922        TOTAL FREE ENERGY PREDICTED BY IDOCK:  -12.93 KCAL/MOL
REMARK 923 INTER-LIGAND FREE ENERGY PREDICTED BY IDOCK:  -10.31 KCAL/MOL
REMARK 924 INTRA-LIGAND FREE ENERGY PREDICTED BY IDOCK:   -2.63 KCAL/MOL
REMARK 927      BINDING AFFINITY PREDICTED BY RF-SCORE:    0.00 PKD
ROOT
HETATM    1  C   UNL     1     -13.082   9.159  71.647  1.00  0.00    -0.431 C  
HETATM    2  C   UNL     1     -11.833   8.319  71.314  1.00  0.00    -0.288 C  
HETATM    3  C   UNL     1     -10.823   9.053  70.199  1.00  0.00    -0.237 C  
HETATM    4  N   UNL     1     -12.309   7.022  70.752  1.00  0.00    -0.568 NA 
HETATM    5  C   UNL     1     -11.191   7.993  72.691  1.00  0.00    -0.462 C  
HETATM    6  H2  UNL     1     -12.936   7.139  69.955  1.00  0.00     0.000 HD 
HETATM    7  N   UNL     1     -11.077   8.815  68.843  1.00  0.00    -0.426 N  
HETATM    8  H1  UNL     1     -11.482   6.466  70.532  1.00  0.00     0.000 HD 
HETATM    9  O   UNL     1      -9.918   9.807  70.552  1.00  0.00    -0.265 OA 
HETATM   10  H   UNL     1     -11.756   8.068  68.696  1.00  0.00     0.000 HD 
ENDROOT
BRANCH   7  11
HETATM   11  C   UNL     1     -10.557   9.432  67.497  1.00  0.00    -0.267 C  
BRANCH  11  12
HETATM   12  C   UNL     1      -9.073   9.257  66.929  1.00  0.00    -0.158 C  
BRANCH  12  13
HETATM   13  C   UNL     1      -7.812   9.341  67.917  1.00  0.00    -0.092 A  
HETATM   14  C   UNL     1      -7.077   8.309  68.470  1.00  0.00    -0.077 A  
HETATM   15  C   UNL     1      -6.585  12.893  69.003  1.00  0.00    -0.102 A  
HETATM   16  C   UNL     1      -5.783  12.478  70.063  1.00  0.00    -0.140 A  
HETATM   17  C   UNL     1      -5.597  11.117  70.299  1.00  0.00    -0.115 A  
HETATM   18  N   UNL     1      -6.179   8.818  69.407  1.00  0.00    -0.040 NA 
HETATM   19  C   UNL     1      -7.277  11.956  68.208  1.00  0.00    -0.089 A  
HETATM   20  C   UNL     1      -7.167  10.562  68.458  1.00  0.00    -0.085 A  
HETATM   21  C   UNL     1      -6.270  10.188  69.460  1.00  0.00    -0.048 A  
HETATM   22  H   UNL     1      -5.545   8.255  69.973  1.00  0.00     0.000 HD 
ENDBRANCH  12  13
ENDBRANCH  11  12
BRANCH  11  23
HETATM   23  C   UNL     1     -11.101  10.885  67.427  1.00  0.00    -0.307 C  
HETATM   24  N   UNL     1     -10.375  11.798  66.687  1.00  0.00    -0.213 N  
HETATM   25  H   UNL     1      -9.601  11.478  66.106  1.00  0.00     0.000 HD 
HETATM   26  O   UNL     1     -12.095  11.209  68.083  1.00  0.00    -0.633 OA 
BRANCH  24  27
HETATM   27  C   UNL     1     -10.707  13.203  66.731  1.00  0.00    -0.267 C  
BRANCH  27  28
HETATM   28  N   UNL     1     -12.068  13.370  66.292  1.00  0.00    -0.420 N  
HETATM   29  O   UNL     1     -11.681  12.718  64.109  1.00  0.00    -0.345 OA 
HETATM   30  C   UNL     1     -12.433  13.102  64.992  1.00  0.00    -0.460 C  
HETATM   31  H   UNL     1     -12.773  13.691  66.955  1.00  0.00     0.000 HD 
ENDBRANCH  27  28
BRANCH  27  32
HETATM   32  C   UNL     1     -10.329  14.002  67.997  1.00  0.00    -0.240 C  
BRANCH  32  33
HETATM   33  C   UNL     1     -11.240  14.578  69.069  1.00  0.00    -0.289 A  
HETATM   34  C   UNL     1     -12.648  15.225  70.775  1.00  0.00    -0.417 A  
HETATM   35  H   UNL     1     -12.575  17.274  70.249  1.00  0.00     0.000 HD 
HETATM   36  C   UNL     1     -13.489  15.177  71.898  1.00  0.00    -0.522 A  
HETATM   37  C   UNL     1     -11.441  15.955  69.048  1.00  0.00    -0.380 A  
HETATM   38  C   UNL     1     -13.757  13.930  72.449  1.00  0.00    -0.678 A  
HETATM   39  N   UNL     1     -12.274  16.319  70.057  1.00  0.00     0.059 NA 
HETATM   40  C   UNL     1     -13.204  12.781  71.886  1.00  0.00    -0.511 A  
HETATM   41  C   UNL     1     -12.350  12.850  70.764  1.00  0.00    -0.385 A  
HETATM   42  C   UNL     1     -12.045  14.099  70.180  1.00  0.00    -0.411 A  
ENDBRANCH  32  33
ENDBRANCH  27  32
ENDBRANCH  24  27
ENDBRANCH  11  23
ENDBRANCH   7  11
TORSDOF 8
ENDMDL
MODEL       57
REMARK 921   NORMALIZED FREE ENERGY PREDICTED BY IDOCK:   -7.33 KCAL/MOL
REMARK 922        TOTAL FREE ENERGY PREDICTED BY IDOCK:  -12.91 KCAL/MOL
REMARK 923 INTER-LIGAND FREE ENERGY PREDICTED BY IDOCK:  -11.49 KCAL/MOL
REMARK 924 INTRA-LIGAND FREE ENERGY PREDICTED BY IDOCK:   -1.42 KCAL/MOL
REMARK 927      BINDING AFFINITY PREDICTED BY RF-SCORE:    0.00 PKD
ROOT
HETATM    1  C   UNL     1     -12.811  13.063  65.445  1.00  0.00    -0.208 C  
HETATM    2  C   UNL     1     -11.678  13.716  64.630  1.00  0.00    -0.388 C  
HETATM    3  C   UNL     1     -10.413  14.264  65.579  1.00  0.00    -0.346 C  
HETATM    4  N   UNL     1     -12.270  14.876  63.902  1.00  0.00    -1.016 NA 
HETATM    5  C   UNL     1     -11.303  12.663  63.550  1.00  0.00    -0.527 C  
HETATM    6  H2  UNL     1     -12.748  15.533  64.519  1.00  0.00     0.000 HD 
HETATM    7  N   UNL     1     -10.503  15.565  66.087  1.00  0.00    -0.301 N  
HETATM    8  H1  UNL     1     -11.520  15.309  63.362  1.00  0.00     0.000 HD 
HETATM    9  O   UNL     1      -9.459  13.538  65.857  1.00  0.00    -0.167 OA 
HETATM   10  H   UNL     1     -11.264  16.098  65.668  1.00  0.00     0.000 HD 
ENDROOT
BRANCH   7  11
HETATM   11  C   UNL     1      -9.701  16.392  67.153  1.00  0.00    -0.239 C  
BRANCH  11  12
HETATM   12  C   UNL     1      -8.192  16.889  66.973  1.00  0.00    -0.228 C  
BRANCH  12  13
HETATM   13  C   UNL     1      -7.885  18.400  66.529  1.00  0.00    -0.279 A  
HETATM   14  C   UNL     1      -8.465  19.569  66.983  1.00  0.00    -0.296 A  
HETATM   15  C   UNL     1      -5.164  18.970  63.776  1.00  0.00    -0.281 A  
HETATM   16  C   UNL     1      -5.493  20.290  63.483  1.00  0.00    -0.274 A  
HETATM   17  C   UNL     1      -6.467  20.944  64.237  1.00  0.00    -0.270 A  
HETATM   18  N   UNL     1      -8.029  20.645  66.209  1.00  0.00    -0.512 NA 
HETATM   19  C   UNL     1      -5.857  18.254  64.775  1.00  0.00     0.006 A  
HETATM   20  C   UNL     1      -6.902  18.863  65.519  1.00  0.00    -0.262 A  
HETATM   21  C   UNL     1      -7.124  20.218  65.266  1.00  0.00    -0.190 A  
HETATM   22  H   UNL     1      -8.337  21.609  66.326  1.00  0.00     0.000 HD 
ENDBRANCH  12  13
ENDBRANCH  11  12
BRANCH  11  23
HETATM   23  C   UNL     1     -10.003  15.758  68.538  1.00  0.00    -0.208 C  
HETATM   24  N   UNL     1     -11.321  15.458  68.823  1.00  0.00    -0.300 N  
HETATM   25  H   UNL     1     -12.026  15.526  68.090  1.00  0.00     0.000 HD 
HETATM   26  O   UNL     1      -9.100  15.617  69.367  1.00  0.00    -0.260 OA 
BRANCH  24  27
HETATM   27  C   UNL     1     -11.706  15.050  70.154  1.00  0.00    -0.299 C  
BRANCH  27  28
HETATM   28  N   UNL     1     -11.994  16.227  70.933  1.00  0.00    -0.534 N  
HETATM   29  O   UNL     1     -11.617  15.236  72.987  1.00  0.00    -0.425 OA 
HETATM   30  C   UNL     1     -11.918  16.206  72.307  1.00  0.00    -0.546 C  
HETATM   31  H   UNL     1     -12.260  17.089  70.458  1.00  0.00     0.000 HD 
ENDBRANCH  27  28
BRANCH  27  32
HETATM   32  C   UNL     1     -12.733  13.906  70.298  1.00  0.00    -0.244 C  
BRANCH  32  33
HETATM   33  C   UNL     1     -12.497  12.456  70.688  1.00  0.00    -0.320 A  
HETATM   34  C   UNL     1     -11.990  10.245  71.092  1.00  0.00    -0.376 A  
HETATM   35  H   UNL     1     -13.256  10.115  72.783  1.00  0.00     0.000 HD 
HETATM   36  C   UNL     1     -11.418   8.968  70.979  1.00  0.00    -0.358 A  
HETATM   37  C   UNL     1     -13.186  11.987  71.804  1.00  0.00    -0.317 A  
HETATM   38  C   UNL     1     -10.555   8.740  69.914  1.00  0.00    -0.230 A  
HETATM   39  N   UNL     1     -12.878  10.683  72.026  1.00  0.00    -0.374 NA 
HETATM   40  C   UNL     1     -10.287   9.758  69.000  1.00  0.00    -0.222 A  
HETATM   41  C   UNL     1     -10.861  11.040  69.136  1.00  0.00    -0.283 A  
HETATM   42  C   UNL     1     -11.736  11.314  70.210  1.00  0.00    -0.415 A  
ENDBRANCH  32  33
ENDBRANCH  27  32
ENDBRANCH  24  27
ENDBRANCH  11  23
ENDBRANCH   7  11
TORSDOF 8
ENDMDL
MODEL       58
REMARK 921   NORMALIZED FREE ENERGY PREDICTED BY IDOCK:   -7.31 KCAL/MOL
REMARK 922        TOTAL FREE ENERGY PREDICTED BY IDOCK:  -12.87 KCAL/MOL
REMARK 923 INTER-LIGAND FREE ENERGY PREDICTED BY IDOCK:  -10.87 KCAL/MOL
REMARK 924 INTRA-LIGAND FREE ENERGY PREDICTED BY IDOCK:   -1.99 KCAL/MOL
REMARK 927      BINDING AFFINITY PREDICTED BY RF-SCORE:    0.00 PKD
ROOT
HETATM    1  C   UNL     1     -12.251  14.309  63.875  1.00  0.00    -0.233 C  
HETATM    2  C   UNL     1     -11.559  12.962  64.158  1.00  0.00    -0.398 C  
HETATM    3  C   UNL     1     -11.430  12.618  65.791  1.00  0.00    -0.358 C  
HETATM    4  N   UNL     1     -10.189  13.037  63.573  1.00  0.00    -0.591 NA 
HETATM    5  C   UNL     1     -12.344  11.923  63.310  1.00  0.00    -0.508 C  
HETATM    6  H2  UNL     1      -9.655  13.839  63.909  1.00  0.00     0.000 HD 
HETATM    7  N   UNL     1     -10.298  13.093  66.464  1.00  0.00    -0.278 N  
HETATM    8  H1  UNL     1      -9.730  12.145  63.760  1.00  0.00     0.000 HD 
HETATM    9  O   UNL     1     -12.315  12.007  66.389  1.00  0.00    -0.403 OA 
HETATM   10  H   UNL     1      -9.586  13.453  65.829  1.00  0.00     0.000 HD 
ENDROOT
BRANCH   7  11
HETATM   11  C   UNL     1      -9.873  13.199  67.971  1.00  0.00    -0.231 C  
BRANCH  11  12
HETATM   12  C   UNL     1      -9.676  14.572  68.767  1.00  0.00    -0.210 C  
BRANCH  12  13
HETATM   13  C   UNL     1     -10.779  15.060  69.824  1.00  0.00    -0.260 A  
HETATM   14  C   UNL     1     -11.015  16.336  70.302  1.00  0.00    -0.308 A  
HETATM   15  C   UNL     1     -13.160  12.355  71.349  1.00  0.00    -0.299 A  
HETATM   16  C   UNL     1     -13.645  13.129  72.399  1.00  0.00    -0.667 A  
HETATM   17  C   UNL     1     -13.279  14.471  72.497  1.00  0.00    -0.538 A  
HETATM   18  N   UNL     1     -11.951  16.288  71.335  1.00  0.00    -0.644 NA 
HETATM   19  C   UNL     1     -12.239  12.886  70.422  1.00  0.00    -0.381 A  
HETATM   20  C   UNL     1     -11.788  14.229  70.527  1.00  0.00    -0.364 A  
HETATM   21  C   UNL     1     -12.382  14.998  71.529  1.00  0.00    -0.335 A  
HETATM   22  H   UNL     1     -12.270  17.095  71.869  1.00  0.00     0.000 HD 
ENDBRANCH  12  13
ENDBRANCH  11  12
BRANCH  11  23
HETATM   23  C   UNL     1      -8.739  12.163  68.194  1.00  0.00    -0.185 C  
HETATM   24  N   UNL     1      -9.112  10.884  68.561  1.00  0.00    -0.167 N  
HETATM   25  H   UNL     1     -10.096  10.618  68.540  1.00  0.00     0.000 HD 
HETATM   26  O   UNL     1      -7.556  12.511  68.127  1.00  0.00    -0.107 OA 
BRANCH  24  27
HETATM   27  C   UNL     1      -8.116   9.922  68.973  1.00  0.00    -0.111 C  
BRANCH  27  28
HETATM   28  N   UNL     1      -7.434  10.433  70.135  1.00  0.00    -0.302 N  
HETATM   29  O   UNL     1      -5.316   9.825  69.439  1.00  0.00    -0.035 OA 
HETATM   30  C   UNL     1      -6.067  10.335  70.257  1.00  0.00    -0.098 C  
HETATM   31  H   UNL     1      -7.974  10.875  70.879  1.00  0.00     0.000 HD 
ENDBRANCH  27  28
BRANCH  27  32
HETATM   32  C   UNL     1      -8.528   8.437  69.061  1.00  0.00    -0.123 C  
BRANCH  32  33
HETATM   33  C   UNL     1      -9.821   7.836  69.588  1.00  0.00    -0.182 A  
HETATM   34  C   UNL     1     -11.806   7.125  70.516  1.00  0.00    -0.243 A  
HETATM   35  H   UNL     1     -11.798   5.282  69.476  1.00  0.00     0.000 HD 
HETATM   36  C   UNL     1     -12.985   7.096  71.278  1.00  0.00    -0.378 A  
HETATM   37  C   UNL     1     -10.167   6.576  69.108  1.00  0.00    -0.180 A  
HETATM   38  C   UNL     1     -13.243   8.181  72.108  1.00  0.00    -0.254 A  
HETATM   39  N   UNL     1     -11.337   6.171  69.666  1.00  0.00    -0.426 NA 
HETATM   40  C   UNL     1     -12.344   9.245  72.170  1.00  0.00    -0.398 A  
HETATM   41  C   UNL     1     -11.170   9.263  71.387  1.00  0.00    -0.433 A  
HETATM   42  C   UNL     1     -10.877   8.184  70.524  1.00  0.00    -0.247 A  
ENDBRANCH  32  33
ENDBRANCH  27  32
ENDBRANCH  24  27
ENDBRANCH  11  23
ENDBRANCH   7  11
TORSDOF 8
ENDMDL
MODEL       59
REMARK 921   NORMALIZED FREE ENERGY PREDICTED BY IDOCK:   -7.29 KCAL/MOL
REMARK 922        TOTAL FREE ENERGY PREDICTED BY IDOCK:  -12.84 KCAL/MOL
REMARK 923 INTER-LIGAND FREE ENERGY PREDICTED BY IDOCK:  -11.36 KCAL/MOL
REMARK 924 INTRA-LIGAND FREE ENERGY PREDICTED BY IDOCK:   -1.48 KCAL/MOL
REMARK 927      BINDING AFFINITY PREDICTED BY RF-SCORE:    0.00 PKD
ROOT
HETATM    1  C   UNL     1     -13.029   6.875  71.219  1.00  0.00    -0.309 C  
HETATM    2  C   UNL     1     -11.586   7.009  70.693  1.00  0.00    -0.335 C  
HETATM    3  C   UNL     1     -10.969   8.557  70.852  1.00  0.00    -0.251 C  
HETATM    4  N   UNL     1     -11.607   6.645  69.247  1.00  0.00    -0.646 NA 
HETATM    5  C   UNL     1     -10.790   5.890  71.419  1.00  0.00    -0.332 C  
HETATM    6  H2  UNL     1     -12.281   7.190  68.708  1.00  0.00     0.000 HD 
HETATM    7  N   UNL     1     -11.203   9.456  69.804  1.00  0.00    -0.398 N  
HETATM    8  H1  UNL     1     -10.652   6.735  68.899  1.00  0.00     0.000 HD 
HETATM    9  O   UNL     1     -10.369   8.908  71.867  1.00  0.00    -0.322 OA 
HETATM   10  H   UNL     1     -11.582   9.002  68.974  1.00  0.00     0.000 HD 
ENDROOT
BRANCH   7  11
HETATM   11  C   UNL     1     -11.016  11.003  69.614  1.00  0.00    -0.225 C  
BRANCH  11  12
HETATM   12  C   UNL     1     -12.171  12.010  69.157  1.00  0.00    -0.106 C  
BRANCH  12  13
HETATM   13  C   UNL     1     -12.120  13.552  69.595  1.00  0.00    -0.365 A  
HETATM   14  C   UNL     1     -11.848  14.663  68.819  1.00  0.00    -0.313 A  
HETATM   15  C   UNL     1     -12.814  14.399  73.352  1.00  0.00    -0.290 A  
HETATM   16  C   UNL     1     -12.327  15.703  73.323  1.00  0.00    -0.609 A  
HETATM   17  C   UNL     1     -11.917  16.263  72.115  1.00  0.00    -0.575 A  
HETATM   18  N   UNL     1     -11.737  15.791  69.632  1.00  0.00    -0.353 NA 
HETATM   19  C   UNL     1     -12.825  13.605  72.186  1.00  0.00    -0.352 A  
HETATM   20  C   UNL     1     -12.352  14.116  70.948  1.00  0.00    -0.438 A  
HETATM   21  C   UNL     1     -11.975  15.460  70.944  1.00  0.00    -0.359 A  
HETATM   22  H   UNL     1     -11.510  16.728  69.300  1.00  0.00     0.000 HD 
ENDBRANCH  12  13
ENDBRANCH  11  12
BRANCH  11  23
HETATM   23  C   UNL     1      -9.663  11.207  68.880  1.00  0.00    -0.150 C  
HETATM   24  N   UNL     1      -9.448  12.431  68.277  1.00  0.00    -0.219 N  
HETATM   25  H   UNL     1     -10.100  13.197  68.441  1.00  0.00     0.000 HD 
HETATM   26  O   UNL     1      -8.863  10.272  68.778  1.00  0.00    -0.132 OA 
BRANCH  24  27
HETATM   27  C   UNL     1      -8.305  12.630  67.416  1.00  0.00    -0.184 C  
BRANCH  27  28
HETATM   28  N   UNL     1      -8.434  11.767  66.270  1.00  0.00    -0.370 N  
HETATM   29  O   UNL     1     -10.616  12.358  65.789  1.00  0.00    -0.246 OA 
HETATM   30  C   UNL     1      -9.605  11.715  65.549  1.00  0.00    -0.218 C  
HETATM   31  H   UNL     1      -7.646  11.185  65.990  1.00  0.00     0.000 HD 
ENDBRANCH  27  28
BRANCH  27  32
HETATM   32  C   UNL     1      -7.878  14.079  67.095  1.00  0.00    -0.049 C  
BRANCH  32  33
HETATM   33  C   UNL     1      -8.747  15.270  66.728  1.00  0.00    -0.304 A  
HETATM   34  C   UNL     1      -9.972  17.188  66.364  1.00  0.00    -0.306 A  
HETATM   35  H   UNL     1     -10.931  16.419  64.641  1.00  0.00     0.000 HD 
HETATM   36  C   UNL     1     -10.488  18.486  66.507  1.00  0.00    -0.435 A  
HETATM   37  C   UNL     1      -9.552  15.136  65.600  1.00  0.00    -0.260 A  
HETATM   38  C   UNL     1     -10.059  19.233  67.598  1.00  0.00    -0.485 A  
HETATM   39  N   UNL     1     -10.267  16.273  65.401  1.00  0.00    -0.568 NA 
HETATM   40  C   UNL     1      -9.153  18.689  68.507  1.00  0.00    -0.358 A  
HETATM   41  C   UNL     1      -8.635  17.387  68.340  1.00  0.00    -0.270 A  
HETATM   42  C   UNL     1      -9.038  16.599  67.240  1.00  0.00    -0.225 A  
ENDBRANCH  32  33
ENDBRANCH  27  32
ENDBRANCH  24  27
ENDBRANCH  11  23
ENDBRANCH   7  11
TORSDOF 8
ENDMDL
MODEL       60
REMARK 921   NORMALIZED FREE ENERGY PREDICTED BY IDOCK:   -7.28 KCAL/MOL
REMARK 922        TOTAL FREE ENERGY PREDICTED BY IDOCK:  -12.83 KCAL/MOL
REMARK 923 INTER-LIGAND FREE ENERGY PREDICTED BY IDOCK:  -10.91 KCAL/MOL
REMARK 924 INTRA-LIGAND FREE ENERGY PREDICTED BY IDOCK:   -1.92 KCAL/MOL
REMARK 927      BINDING AFFINITY PREDICTED BY RF-SCORE:    0.00 PKD
ROOT
HETATM    1  C   UNL     1      -9.093   6.869  66.664  1.00  0.00    -0.172 C  
HETATM    2  C   UNL     1      -8.412   8.214  66.348  1.00  0.00    -0.130 C  
HETATM    3  C   UNL     1      -8.647   9.368  67.538  1.00  0.00    -0.122 C  
HETATM    4  N   UNL     1      -8.995   8.716  65.070  1.00  0.00    -0.414 NA 
HETATM    5  C   UNL     1      -6.932   7.852  66.044  1.00  0.00    -0.061 C  
HETATM    6  H2  UNL     1     -10.014   8.780  65.094  1.00  0.00     0.000 HD 
HETATM    7  N   UNL     1      -9.788  10.172  67.442  1.00  0.00    -0.180 N  
HETATM    8  H1  UNL     1      -8.544   9.607  64.861  1.00  0.00     0.000 HD 
HETATM    9  O   UNL     1      -7.869   9.479  68.485  1.00  0.00    -0.084 OA 
HETATM   10  H   UNL     1     -10.263  10.074  66.545  1.00  0.00     0.000 HD 
ENDROOT
BRANCH   7  11
HETATM   11  C   UNL     1     -10.505  11.190  68.397  1.00  0.00    -0.188 C  
BRANCH  11  12
HETATM   12  C   UNL     1     -12.038  11.095  68.843  1.00  0.00    -0.276 C  
BRANCH  12  13
HETATM   13  C   UNL     1     -12.495  11.617  70.290  1.00  0.00    -0.261 A  
HETATM   14  C   UNL     1     -12.900  10.879  71.387  1.00  0.00    -0.449 A  
HETATM   15  C   UNL     1     -12.533  15.481  70.901  1.00  0.00    -0.494 A  
HETATM   16  C   UNL     1     -13.292  15.460  72.068  1.00  0.00    -0.545 A  
HETATM   17  C   UNL     1     -13.648  14.240  72.641  1.00  0.00    -0.601 A  
HETATM   18  N   UNL     1     -13.373  11.735  72.382  1.00  0.00    -0.507 NA 
HETATM   19  C   UNL     1     -12.183  14.283  70.243  1.00  0.00    -0.407 A  
HETATM   20  C   UNL     1     -12.584  13.022  70.757  1.00  0.00    -0.321 A  
HETATM   21  C   UNL     1     -13.249  13.044  71.984  1.00  0.00    -0.444 A  
HETATM   22  H   UNL     1     -13.756  11.431  73.276  1.00  0.00     0.000 HD 
ENDBRANCH  12  13
ENDBRANCH  11  12
BRANCH  11  23
HETATM   23  C   UNL     1     -10.053  12.611  67.965  1.00  0.00    -0.229 C  
HETATM   24  N   UNL     1     -10.885  13.309  67.112  1.00  0.00    -0.256 N  
HETATM   25  H   UNL     1     -11.815  12.947  66.904  1.00  0.00     0.000 HD 
HETATM   26  O   UNL     1      -8.950  13.044  68.312  1.00  0.00    -0.194 OA 
BRANCH  24  27
HETATM   27  C   UNL     1     -10.446  14.549  66.515  1.00  0.00    -0.285 C  
BRANCH  27  28
HETATM   28  N   UNL     1     -10.675  14.483  65.094  1.00  0.00    -0.378 N  
HETATM   29  O   UNL     1     -12.917  13.945  65.253  1.00  0.00    -0.747 OA 
HETATM   30  C   UNL     1     -11.919  14.182  64.589  1.00  0.00    -0.445 C  
HETATM   31  H   UNL     1      -9.903  14.661  64.453  1.00  0.00     0.000 HD 
ENDBRANCH  27  28
BRANCH  27  32
HETATM   32  C   UNL     1     -10.875  15.873  67.182  1.00  0.00    -0.267 C  
BRANCH  32  33
HETATM   33  C   UNL     1     -10.017  17.063  67.578  1.00  0.00    -0.274 A  
HETATM   34  C   UNL     1      -8.530  18.716  68.187  1.00  0.00    -0.312 A  
HETATM   35  H   UNL     1      -9.999  20.240  68.175  1.00  0.00     0.000 HD 
HETATM   36  C   UNL     1      -7.342  19.373  68.542  1.00  0.00    -0.368 A  
HETATM   37  C   UNL     1     -10.659  18.295  67.675  1.00  0.00    -0.405 A  
HETATM   38  C   UNL     1      -6.192  18.601  68.669  1.00  0.00    -0.228 A  
HETATM   39  N   UNL     1      -9.771  19.256  68.036  1.00  0.00    -0.330 NA 
HETATM   40  C   UNL     1      -6.245  17.225  68.452  1.00  0.00    -0.153 A  
HETATM   41  C   UNL     1      -7.447  16.583  68.083  1.00  0.00    -0.161 A  
HETATM   42  C   UNL     1      -8.633  17.333  67.935  1.00  0.00    -0.223 A  
ENDBRANCH  32  33
ENDBRANCH  27  32
ENDBRANCH  24  27
ENDBRANCH  11  23
ENDBRANCH   7  11
TORSDOF 8
ENDMDL
MODEL       61
REMARK 921   NORMALIZED FREE ENERGY PREDICTED BY IDOCK:   -7.26 KCAL/MOL
REMARK 922        TOTAL FREE ENERGY PREDICTED BY IDOCK:  -12.81 KCAL/MOL
REMARK 923 INTER-LIGAND FREE ENERGY PREDICTED BY IDOCK:  -10.70 KCAL/MOL
REMARK 924 INTRA-LIGAND FREE ENERGY PREDICTED BY IDOCK:   -2.10 KCAL/MOL
REMARK 927      BINDING AFFINITY PREDICTED BY RF-SCORE:    0.00 PKD
ROOT
HETATM    1  C   UNL     1     -13.278   9.252  72.109  1.00  0.00    -0.535 C  
HETATM    2  C   UNL     1     -12.172   8.376  71.489  1.00  0.00    -0.302 C  
HETATM    3  C   UNL     1     -11.088   9.246  70.555  1.00  0.00    -0.265 C  
HETATM    4  N   UNL     1     -12.843   7.361  70.627  1.00  0.00    -0.540 NA 
HETATM    5  C   UNL     1     -11.557   7.600  72.687  1.00  0.00    -0.371 C  
HETATM    6  H2  UNL     1     -13.462   7.776  69.929  1.00  0.00     0.000 HD 
HETATM    7  N   UNL     1     -11.401   9.427  69.203  1.00  0.00    -0.439 N  
HETATM    8  H1  UNL     1     -12.111   6.781  70.216  1.00  0.00     0.000 HD 
HETATM    9  O   UNL     1     -10.076   9.744  71.045  1.00  0.00    -0.216 OA 
HETATM   10  H   UNL     1     -12.184   8.849  68.901  1.00  0.00     0.000 HD 
ENDROOT
BRANCH   7  11
HETATM   11  C   UNL     1     -10.823  10.315  68.045  1.00  0.00    -0.275 C  
BRANCH  11  12
HETATM   12  C   UNL     1      -9.301  10.296  67.556  1.00  0.00    -0.164 C  
BRANCH  12  13
HETATM   13  C   UNL     1      -8.196  11.177  68.314  1.00  0.00    -0.134 A  
HETATM   14  C   UNL     1      -7.349  10.806  69.342  1.00  0.00    -0.128 A  
HETATM   15  C   UNL     1      -7.772  14.907  67.208  1.00  0.00    -0.227 A  
HETATM   16  C   UNL     1      -7.032  15.326  68.310  1.00  0.00    -0.119 A  
HETATM   17  C   UNL     1      -6.625  14.397  69.266  1.00  0.00    -0.122 A  
HETATM   18  N   UNL     1      -6.671  11.926  69.823  1.00  0.00    -0.337 NA 
HETATM   19  C   UNL     1      -8.187  13.564  67.083  1.00  0.00    -0.126 A  
HETATM   20  C   UNL     1      -7.851  12.600  68.071  1.00  0.00    -0.149 A  
HETATM   21  C   UNL     1      -7.018  13.042  69.100  1.00  0.00    -0.020 A  
HETATM   22  H   UNL     1      -6.011  11.918  70.600  1.00  0.00     0.000 HD 
ENDBRANCH  12  13
ENDBRANCH  11  12
BRANCH  11  23
HETATM   23  C   UNL     1     -11.418  11.738  68.228  1.00  0.00    -0.307 C  
HETATM   24  N   UNL     1     -11.086  12.420  69.382  1.00  0.00    -0.443 N  
HETATM   25  H   UNL     1     -10.370  12.045  70.004  1.00  0.00     0.000 HD 
HETATM   26  O   UNL     1     -12.220  12.187  67.404  1.00  0.00    -0.486 OA 
BRANCH  24  27
HETATM   27  C   UNL     1     -11.749  13.660  69.715  1.00  0.00    -0.297 C  
BRANCH  27  28
HETATM   28  N   UNL     1     -12.438  13.493  70.968  1.00  0.00    -0.373 N  
HETATM   29  O   UNL     1     -13.612  15.480  70.847  1.00  0.00    -0.520 OA 
HETATM   30  C   UNL     1     -13.326  14.441  71.423  1.00  0.00    -0.349 C  
HETATM   31  H   UNL     1     -12.265  12.658  71.529  1.00  0.00     0.000 HD 
ENDBRANCH  27  28
BRANCH  27  32
HETATM   32  C   UNL     1     -10.949  14.973  69.582  1.00  0.00    -0.294 C  
BRANCH  32  33
HETATM   33  C   UNL     1     -10.845  15.910  68.389  1.00  0.00    -0.316 A  
HETATM   34  C   UNL     1     -10.620  17.500  66.737  1.00  0.00    -0.201 A  
HETATM   35  H   UNL     1     -11.191  16.177  65.187  1.00  0.00     0.000 HD 
HETATM   36  C   UNL     1     -10.359  18.716  66.086  1.00  0.00    -0.481 A  
HETATM   37  C   UNL     1     -11.154  15.374  67.142  1.00  0.00    -0.291 A  
HETATM   38  C   UNL     1      -9.993  19.803  66.872  1.00  0.00    -0.537 A  
HETATM   39  N   UNL     1     -11.018  16.323  66.181  1.00  0.00    -0.084 NA 
HETATM   40  C   UNL     1      -9.901  19.666  68.256  1.00  0.00    -0.521 A  
HETATM   41  C   UNL     1     -10.154  18.432  68.893  1.00  0.00    -0.352 A  
HETATM   42  C   UNL     1     -10.519  17.302  68.128  1.00  0.00    -0.382 A  
ENDBRANCH  32  33
ENDBRANCH  27  32
ENDBRANCH  24  27
ENDBRANCH  11  23
ENDBRANCH   7  11
TORSDOF 8
ENDMDL
MODEL       62
REMARK 921   NORMALIZED FREE ENERGY PREDICTED BY IDOCK:   -7.26 KCAL/MOL
REMARK 922        TOTAL FREE ENERGY PREDICTED BY IDOCK:  -12.79 KCAL/MOL
REMARK 923 INTER-LIGAND FREE ENERGY PREDICTED BY IDOCK:  -11.65 KCAL/MOL
REMARK 924 INTRA-LIGAND FREE ENERGY PREDICTED BY IDOCK:   -1.15 KCAL/MOL
REMARK 927      BINDING AFFINITY PREDICTED BY RF-SCORE:    0.00 PKD
ROOT
HETATM    1  C   UNL     1      -9.925  19.817  66.636  1.00  0.00    -0.556 C  
HETATM    2  C   UNL     1      -9.431  19.379  68.028  1.00  0.00    -0.339 C  
HETATM    3  C   UNL     1      -9.334  17.716  68.200  1.00  0.00    -0.279 C  
HETATM    4  N   UNL     1     -10.400  19.910  69.030  1.00  0.00    -0.599 NA 
HETATM    5  C   UNL     1      -8.102  20.156  68.244  1.00  0.00    -0.113 C  
HETATM    6  H2  UNL     1     -11.363  19.629  68.841  1.00  0.00     0.000 HD 
HETATM    7  N   UNL     1     -10.482  17.044  68.636  1.00  0.00    -0.342 N  
HETATM    8  H1  UNL     1     -10.072  19.620  69.951  1.00  0.00     0.000 HD 
HETATM    9  O   UNL     1      -8.308  17.101  67.914  1.00  0.00    -0.200 OA 
HETATM   10  H   UNL     1     -11.206  17.680  68.970  1.00  0.00     0.000 HD 
ENDROOT
BRANCH   7  11
HETATM   11  C   UNL     1     -10.911  15.538  68.729  1.00  0.00    -0.256 C  
BRANCH  11  12
HETATM   12  C   UNL     1     -11.635  14.723  67.559  1.00  0.00    -0.379 C  
BRANCH  12  13
HETATM   13  C   UNL     1     -10.840  13.591  66.748  1.00  0.00    -0.284 A  
HETATM   14  C   UNL     1      -9.619  13.013  67.042  1.00  0.00    -0.236 A  
HETATM   15  C   UNL     1     -12.464  12.228  63.460  1.00  0.00    -0.642 A  
HETATM   16  C   UNL     1     -11.328  11.598  62.959  1.00  0.00     0.035 A  
HETATM   17  C   UNL     1     -10.166  11.550  63.728  1.00  0.00    -0.429 A  
HETATM   18  N   UNL     1      -9.215  12.199  65.985  1.00  0.00    -0.392 NA 
HETATM   19  C   UNL     1     -12.436  12.889  64.706  1.00  0.00    -0.517 A  
HETATM   20  C   UNL     1     -11.252  12.922  65.489  1.00  0.00    -0.319 A  
HETATM   21  C   UNL     1     -10.172  12.187  64.998  1.00  0.00    -0.283 A  
HETATM   22  H   UNL     1      -8.334  11.686  65.948  1.00  0.00     0.000 HD 
ENDBRANCH  12  13
ENDBRANCH  11  12
BRANCH  11  23
HETATM   23  C   UNL     1     -11.539  15.333  70.134  1.00  0.00    -0.299 C  
HETATM   24  N   UNL     1     -12.357  14.234  70.308  1.00  0.00    -0.338 N  
HETATM   25  H   UNL     1     -12.416  13.525  69.577  1.00  0.00     0.000 HD 
HETATM   26  O   UNL     1     -11.372  16.177  71.019  1.00  0.00    -0.387 OA 
BRANCH  24  27
HETATM   27  C   UNL     1     -13.129  14.081  71.520  1.00  0.00    -0.363 C  
BRANCH  27  28
HETATM   28  N   UNL     1     -14.208  15.036  71.502  1.00  0.00    -0.507 N  
HETATM   29  O   UNL     1     -13.728  15.955  73.568  1.00  0.00    -0.395 OA 
HETATM   30  C   UNL     1     -14.406  15.903  72.552  1.00  0.00    -0.082 C  
HETATM   31  H   UNL     1     -14.835  15.069  70.699  1.00  0.00     0.000 HD 
ENDBRANCH  27  28
BRANCH  27  32
HETATM   32  C   UNL     1     -13.529  12.655  71.956  1.00  0.00    -0.516 C  
BRANCH  32  33
HETATM   33  C   UNL     1     -12.926  11.325  71.534  1.00  0.00    -0.520 A  
HETATM   34  C   UNL     1     -12.210   9.205  70.986  1.00  0.00    -0.242 A  
HETATM   35  H   UNL     1     -10.404   9.885  70.116  1.00  0.00     0.000 HD 
HETATM   36  C   UNL     1     -12.169   7.809  70.839  1.00  0.00    -0.166 A  
HETATM   37  C   UNL     1     -11.689  11.371  70.898  1.00  0.00     0.192 A  
HETATM   38  C   UNL     1     -13.227   7.075  71.362  1.00  0.00    -0.352 A  
HETATM   39  N   UNL     1     -11.280  10.115  70.584  1.00  0.00    -0.325 NA 
HETATM   40  C   UNL     1     -14.276   7.724  72.012  1.00  0.00    -0.424 A  
HETATM   41  C   UNL     1     -14.306   9.130  72.139  1.00  0.00    -0.272 A  
HETATM   42  C   UNL     1     -13.255   9.911  71.612  1.00  0.00    -0.519 A  
ENDBRANCH  32  33
ENDBRANCH  27  32
ENDBRANCH  24  27
ENDBRANCH  11  23
ENDBRANCH   7  11
TORSDOF 8
ENDMDL
MODEL       63
REMARK 921   NORMALIZED FREE ENERGY PREDICTED BY IDOCK:   -7.24 KCAL/MOL
REMARK 922        TOTAL FREE ENERGY PREDICTED BY IDOCK:  -12.77 KCAL/MOL
REMARK 923 INTER-LIGAND FREE ENERGY PREDICTED BY IDOCK:  -11.06 KCAL/MOL
REMARK 924 INTRA-LIGAND FREE ENERGY PREDICTED BY IDOCK:   -1.71 KCAL/MOL
REMARK 927      BINDING AFFINITY PREDICTED BY RF-SCORE:    0.00 PKD
ROOT
HETATM    1  C   UNL     1     -12.348  14.475  64.021  1.00  0.00    -0.207 C  
HETATM    2  C   UNL     1     -11.622  13.152  64.335  1.00  0.00    -0.377 C  
HETATM    3  C   UNL     1     -11.325  12.935  65.968  1.00  0.00    -0.317 C  
HETATM    4  N   UNL     1     -10.319  13.178  63.609  1.00  0.00    -0.597 NA 
HETATM    5  C   UNL     1     -12.483  12.052  63.655  1.00  0.00    -0.637 C  
HETATM    6  H2  UNL     1      -9.758  14.003  63.825  1.00  0.00     0.000 HD 
HETATM    7  N   UNL     1     -10.133  13.458  66.483  1.00  0.00    -0.274 N  
HETATM    8  H1  UNL     1      -9.839  12.303  63.817  1.00  0.00     0.000 HD 
HETATM    9  O   UNL     1     -12.140  12.374  66.699  1.00  0.00    -0.592 OA 
HETATM   10  H   UNL     1      -9.492  13.767  65.752  1.00  0.00     0.000 HD 
ENDROOT
BRANCH   7  11
HETATM   11  C   UNL     1      -9.557  13.679  67.926  1.00  0.00    -0.223 C  
BRANCH  11  12
HETATM   12  C   UNL     1      -9.106  15.095  68.519  1.00  0.00    -0.191 C  
BRANCH  12  13
HETATM   13  C   UNL     1      -8.783  16.319  67.534  1.00  0.00    -0.192 A  
HETATM   14  C   UNL     1      -8.062  16.314  66.355  1.00  0.00    -0.299 A  
HETATM   15  C   UNL     1     -10.143  19.853  68.520  1.00  0.00    -0.538 A  
HETATM   16  C   UNL     1      -9.356  20.589  67.638  1.00  0.00    -0.419 A  
HETATM   17  C   UNL     1      -8.536  19.928  66.725  1.00  0.00    -0.394 A  
HETATM   18  N   UNL     1      -7.877  17.622  65.908  1.00  0.00    -0.553 NA 
HETATM   19  C   UNL     1     -10.065  18.445  68.558  1.00  0.00    -0.413 A  
HETATM   20  C   UNL     1      -9.191  17.737  67.691  1.00  0.00    -0.249 A  
HETATM   21  C   UNL     1      -8.504  18.507  66.752  1.00  0.00    -0.282 A  
HETATM   22  H   UNL     1      -7.351  17.884  65.075  1.00  0.00     0.000 HD 
ENDBRANCH  12  13
ENDBRANCH  11  12
BRANCH  11  23
HETATM   23  C   UNL     1      -8.553  12.526  68.193  1.00  0.00    -0.189 C  
HETATM   24  N   UNL     1      -8.978  11.240  67.918  1.00  0.00    -0.142 N  
HETATM   25  H   UNL     1      -9.860  11.092  67.429  1.00  0.00     0.000 HD 
HETATM   26  O   UNL     1      -7.458  12.762  68.712  1.00  0.00    -0.111 OA 
BRANCH  24  27
HETATM   27  C   UNL     1      -8.179  10.105  68.320  1.00  0.00    -0.110 C  
BRANCH  27  28
HETATM   28  N   UNL     1      -6.895  10.193  67.674  1.00  0.00    -0.075 N  
HETATM   29  O   UNL     1      -7.695   9.837  65.535  1.00  0.00    -0.112 OA 
HETATM   30  C   UNL     1      -6.774  10.049  66.310  1.00  0.00    -0.094 C  
HETATM   31  H   UNL     1      -6.061  10.365  68.235  1.00  0.00     0.000 HD 
ENDBRANCH  27  28
BRANCH  27  32
HETATM   32  C   UNL     1      -8.129   9.742  69.820  1.00  0.00    -0.174 C  
BRANCH  32  33
HETATM   33  C   UNL     1      -9.254   9.261  70.722  1.00  0.00    -0.316 A  
HETATM   34  C   UNL     1     -11.095   8.701  71.990  1.00  0.00    -0.367 A  
HETATM   35  H   UNL     1     -10.096   7.138  73.010  1.00  0.00     0.000 HD 
HETATM   36  C   UNL     1     -12.395   8.695  72.519  1.00  0.00    -0.378 A  
HETATM   37  C   UNL     1      -8.964   8.196  71.571  1.00  0.00    -0.158 A  
HETATM   38  C   UNL     1     -13.284   9.658  72.056  1.00  0.00    -0.546 A  
HETATM   39  N   UNL     1     -10.057   7.881  72.312  1.00  0.00    -0.217 NA 
HETATM   40  C   UNL     1     -12.874  10.590  71.104  1.00  0.00    -0.513 A  
HETATM   41  C   UNL     1     -11.566  10.573  70.574  1.00  0.00    -0.441 A  
HETATM   42  C   UNL     1     -10.636   9.605  71.011  1.00  0.00    -0.362 A  
ENDBRANCH  32  33
ENDBRANCH  27  32
ENDBRANCH  24  27
ENDBRANCH  11  23
ENDBRANCH   7  11
TORSDOF 8
ENDMDL
MODEL       64
REMARK 921   NORMALIZED FREE ENERGY PREDICTED BY IDOCK:   -7.23 KCAL/MOL
REMARK 922        TOTAL FREE ENERGY PREDICTED BY IDOCK:  -12.75 KCAL/MOL
REMARK 923 INTER-LIGAND FREE ENERGY PREDICTED BY IDOCK:  -10.31 KCAL/MOL
REMARK 924 INTRA-LIGAND FREE ENERGY PREDICTED BY IDOCK:   -2.44 KCAL/MOL
REMARK 927      BINDING AFFINITY PREDICTED BY RF-SCORE:    0.00 PKD
ROOT
HETATM    1  C   UNL     1      -9.213   3.578  69.541  1.00  0.00    -0.224 C  
HETATM    2  C   UNL     1      -9.412   4.742  70.530  1.00  0.00    -0.172 C  
HETATM    3  C   UNL     1     -10.209   6.051  69.856  1.00  0.00    -0.205 C  
HETATM    4  N   UNL     1      -8.058   5.181  70.976  1.00  0.00    -0.101 NA 
HETATM    5  C   UNL     1     -10.097   4.102  71.769  1.00  0.00    -0.212 C  
HETATM    6  H2  UNL     1      -7.440   5.419  70.199  1.00  0.00     0.000 HD 
HETATM    7  N   UNL     1      -9.431   7.019  69.212  1.00  0.00    -0.148 N  
HETATM    8  H1  UNL     1      -8.190   5.952  71.631  1.00  0.00     0.000 HD 
HETATM    9  O   UNL     1     -11.436   6.140  69.888  1.00  0.00    -0.421 OA 
HETATM   10  H   UNL     1      -8.433   6.898  69.382  1.00  0.00     0.000 HD 
ENDROOT
BRANCH   7  11
HETATM   11  C   UNL     1      -9.741   8.249  68.287  1.00  0.00    -0.158 C  
BRANCH  11  12
HETATM   12  C   UNL     1      -8.792   8.761  67.106  1.00  0.00    -0.137 C  
BRANCH  12  13
HETATM   13  C   UNL     1      -8.640  10.331  66.812  1.00  0.00    -0.129 A  
HETATM   14  C   UNL     1      -7.529  11.137  66.974  1.00  0.00    -0.132 A  
HETATM   15  C   UNL     1     -11.784  12.247  65.488  1.00  0.00    -0.433 A  
HETATM   16  C   UNL     1     -11.309  13.534  65.725  1.00  0.00    -0.318 A  
HETATM   17  C   UNL     1     -10.004  13.719  66.180  1.00  0.00    -0.318 A  
HETATM   18  N   UNL     1      -7.879  12.471  66.767  1.00  0.00    -0.394 NA 
HETATM   19  C   UNL     1     -10.989  11.117  65.776  1.00  0.00    -0.160 A  
HETATM   20  C   UNL     1      -9.679  11.261  66.305  1.00  0.00    -0.246 A  
HETATM   21  C   UNL     1      -9.206  12.569  66.424  1.00  0.00    -0.177 A  
HETATM   22  H   UNL     1      -7.241  13.261  66.858  1.00  0.00     0.000 HD 
ENDBRANCH  12  13
ENDBRANCH  11  12
BRANCH  11  23
HETATM   23  C   UNL     1     -10.285   9.377  69.204  1.00  0.00    -0.202 C  
HETATM   24  N   UNL     1     -11.642   9.630  69.158  1.00  0.00    -0.412 N  
HETATM   25  H   UNL     1     -12.259   8.999  68.647  1.00  0.00     0.000 HD 
HETATM   26  O   UNL     1      -9.509  10.065  69.872  1.00  0.00    -0.225 OA 
BRANCH  24  27
HETATM   27  C   UNL     1     -12.194  10.784  69.831  1.00  0.00    -0.313 C  
BRANCH  27  28
HETATM   28  N   UNL     1     -11.948  10.656  71.244  1.00  0.00    -0.300 N  
HETATM   29  O   UNL     1     -13.362   8.855  71.556  1.00  0.00    -0.341 OA 
HETATM   30  C   UNL     1     -12.569   9.678  71.987  1.00  0.00    -0.361 C  
HETATM   31  H   UNL     1     -11.303  11.300  71.701  1.00  0.00     0.000 HD 
ENDBRANCH  27  28
BRANCH  27  32
HETATM   32  C   UNL     1     -11.899  12.181  69.243  1.00  0.00    -0.370 C  
BRANCH  32  33
HETATM   33  C   UNL     1     -11.684  13.497  69.973  1.00  0.00    -0.311 A  
HETATM   34  C   UNL     1     -11.520  15.415  71.239  1.00  0.00    -0.389 A  
HETATM   35  H   UNL     1     -10.068  16.296  69.976  1.00  0.00     0.000 HD 
HETATM   36  C   UNL     1     -11.724  16.360  72.257  1.00  0.00    -0.463 A  
HETATM   37  C   UNL     1     -10.757  14.376  69.420  1.00  0.00    -0.162 A  
HETATM   38  C   UNL     1     -12.672  16.066  73.229  1.00  0.00    -0.644 A  
HETATM   39  N   UNL     1     -10.675  15.501  70.176  1.00  0.00    -0.313 NA 
HETATM   40  C   UNL     1     -13.387  14.870  73.171  1.00  0.00    -0.493 A  
HETATM   41  C   UNL     1     -13.160  13.925  72.147  1.00  0.00    -0.497 A  
HETATM   42  C   UNL     1     -12.198  14.184  71.146  1.00  0.00    -0.435 A  
ENDBRANCH  32  33
ENDBRANCH  27  32
ENDBRANCH  24  27
ENDBRANCH  11  23
ENDBRANCH   7  11
TORSDOF 8
ENDMDL
MODEL       65
REMARK 921   NORMALIZED FREE ENERGY PREDICTED BY IDOCK:   -7.23 KCAL/MOL
REMARK 922        TOTAL FREE ENERGY PREDICTED BY IDOCK:  -12.75 KCAL/MOL
REMARK 923 INTER-LIGAND FREE ENERGY PREDICTED BY IDOCK:  -11.16 KCAL/MOL
REMARK 924 INTRA-LIGAND FREE ENERGY PREDICTED BY IDOCK:   -1.59 KCAL/MOL
REMARK 927      BINDING AFFINITY PREDICTED BY RF-SCORE:    0.00 PKD
ROOT
HETATM    1  C   UNL     1     -14.357  15.217  71.581  1.00  0.00    -0.685 C  
HETATM    2  C   UNL     1     -12.983  15.087  72.266  1.00  0.00    -0.349 C  
HETATM    3  C   UNL     1     -11.731  15.728  71.359  1.00  0.00    -0.445 C  
HETATM    4  N   UNL     1     -12.729  13.632  72.476  1.00  0.00    -0.153 NA 
HETATM    5  C   UNL     1     -13.179  15.708  73.677  1.00  0.00    -0.472 C  
HETATM    6  H2  UNL     1     -12.799  13.087  71.617  1.00  0.00     0.000 HD 
HETATM    7  N   UNL     1     -11.105  14.885  70.434  1.00  0.00    -0.430 N  
HETATM    8  H1  UNL     1     -11.819  13.547  72.930  1.00  0.00     0.000 HD 
HETATM    9  O   UNL     1     -11.398  16.908  71.469  1.00  0.00     0.016 OA 
HETATM   10  H   UNL     1     -11.378  13.909  70.546  1.00  0.00     0.000 HD 
ENDROOT
BRANCH   7  11
HETATM   11  C   UNL     1     -10.080  15.095  69.264  1.00  0.00    -0.246 C  
BRANCH  11  12
HETATM   12  C   UNL     1      -9.807  16.491  68.534  1.00  0.00    -0.243 C  
BRANCH  12  13
HETATM   13  C   UNL     1      -8.350  17.161  68.588  1.00  0.00    -0.257 A  
HETATM   14  C   UNL     1      -7.188  16.661  69.145  1.00  0.00    -0.220 A  
HETATM   15  C   UNL     1      -7.916  20.703  66.983  1.00  0.00    -0.292 A  
HETATM   16  C   UNL     1      -6.686  21.001  67.561  1.00  0.00    -0.428 A  
HETATM   17  C   UNL     1      -6.027  20.037  68.324  1.00  0.00    -0.284 A  
HETATM   18  N   UNL     1      -6.195  17.640  69.124  1.00  0.00    -0.216 NA 
HETATM   19  C   UNL     1      -8.548  19.464  67.221  1.00  0.00    -0.329 A  
HETATM   20  C   UNL     1      -7.941  18.481  68.048  1.00  0.00    -0.293 A  
HETATM   21  C   UNL     1      -6.662  18.781  68.517  1.00  0.00    -0.259 A  
HETATM   22  H   UNL     1      -5.256  17.525  69.505  1.00  0.00     0.000 HD 
ENDBRANCH  12  13
ENDBRANCH  11  12
BRANCH  11  23
HETATM   23  C   UNL     1     -10.243  13.891  68.298  1.00  0.00    -0.247 C  
HETATM   24  N   UNL     1     -11.518  13.391  68.119  1.00  0.00    -0.284 N  
HETATM   25  H   UNL     1     -12.318  13.895  68.500  1.00  0.00     0.000 HD 
HETATM   26  O   UNL     1      -9.250  13.362  67.790  1.00  0.00    -0.194 OA 
BRANCH  24  27
HETATM   27  C   UNL     1     -11.725  12.159  67.393  1.00  0.00    -0.304 C  
BRANCH  27  28
HETATM   28  N   UNL     1     -11.329  12.358  66.023  1.00  0.00    -0.335 N  
HETATM   29  O   UNL     1     -13.120  13.708  65.465  1.00  0.00    -0.639 OA 
HETATM   30  C   UNL     1     -12.082  13.135  65.172  1.00  0.00    -0.421 C  
HETATM   31  H   UNL     1     -10.476  11.918  65.678  1.00  0.00     0.000 HD 
ENDBRANCH  27  28
BRANCH  27  32
HETATM   32  C   UNL     1     -11.225  10.844  68.030  1.00  0.00    -0.378 C  
BRANCH  32  33
HETATM   33  C   UNL     1     -11.518  10.282  69.412  1.00  0.00    -0.248 A  
HETATM   34  C   UNL     1     -11.838   9.236  71.440  1.00  0.00    -0.358 A  
HETATM   35  H   UNL     1     -12.963  10.836  72.250  1.00  0.00     0.000 HD 
HETATM   36  C   UNL     1     -11.784   8.284  72.470  1.00  0.00    -0.451 A  
HETATM   37  C   UNL     1     -12.264  11.085  70.270  1.00  0.00    -0.363 A  
HETATM   38  C   UNL     1     -11.128   7.087  72.208  1.00  0.00    -0.287 A  
HETATM   39  N   UNL     1     -12.446  10.454  71.458  1.00  0.00    -0.398 NA 
HETATM   40  C   UNL     1     -10.558   6.861  70.956  1.00  0.00    -0.244 A  
HETATM   41  C   UNL     1     -10.610   7.834  69.936  1.00  0.00    -0.239 A  
HETATM   42  C   UNL     1     -11.259   9.067  70.166  1.00  0.00    -0.191 A  
ENDBRANCH  32  33
ENDBRANCH  27  32
ENDBRANCH  24  27
ENDBRANCH  11  23
ENDBRANCH   7  11
TORSDOF 8
ENDMDL
MODEL       66
REMARK 921   NORMALIZED FREE ENERGY PREDICTED BY IDOCK:   -7.23 KCAL/MOL
REMARK 922        TOTAL FREE ENERGY PREDICTED BY IDOCK:  -12.75 KCAL/MOL
REMARK 923 INTER-LIGAND FREE ENERGY PREDICTED BY IDOCK:  -10.90 KCAL/MOL
REMARK 924 INTRA-LIGAND FREE ENERGY PREDICTED BY IDOCK:   -1.85 KCAL/MOL
REMARK 927      BINDING AFFINITY PREDICTED BY RF-SCORE:    0.00 PKD
ROOT
HETATM    1  C   UNL     1     -13.126   9.002  71.622  1.00  0.00    -0.420 C  
HETATM    2  C   UNL     1     -11.935   8.084  71.283  1.00  0.00    -0.296 C  
HETATM    3  C   UNL     1     -10.849   8.780  70.217  1.00  0.00    -0.231 C  
HETATM    4  N   UNL     1     -12.492   6.847  70.662  1.00  0.00    -0.574 NA 
HETATM    5  C   UNL     1     -11.351   7.661  72.660  1.00  0.00    -0.423 C  
HETATM    6  H2  UNL     1     -13.090   7.039  69.858  1.00  0.00     0.000 HD 
HETATM    7  N   UNL     1     -11.088   8.611  68.848  1.00  0.00    -0.420 N  
HETATM    8  H1  UNL     1     -11.704   6.240  70.438  1.00  0.00     0.000 HD 
HETATM    9  O   UNL     1      -9.898   9.451  70.617  1.00  0.00    -0.245 OA 
HETATM   10  H   UNL     1     -11.816   7.923  68.659  1.00  0.00     0.000 HD 
ENDROOT
BRANCH   7  11
HETATM   11  C   UNL     1     -10.492   9.236  67.538  1.00  0.00    -0.274 C  
BRANCH  11  12
HETATM   12  C   UNL     1      -8.986   9.037  67.037  1.00  0.00    -0.144 C  
BRANCH  12  13
HETATM   13  C   UNL     1      -8.636   7.907  65.954  1.00  0.00    -0.171 A  
HETATM   14  C   UNL     1      -8.172   8.062  64.661  1.00  0.00    -0.106 A  
HETATM   15  C   UNL     1      -9.154   4.170  66.993  1.00  0.00    -0.155 A  
HETATM   16  C   UNL     1      -9.085   3.628  65.713  1.00  0.00    -0.152 A  
HETATM   17  C   UNL     1      -8.776   4.448  64.629  1.00  0.00    -0.142 A  
HETATM   18  N   UNL     1      -8.164   6.828  64.011  1.00  0.00    -0.326 NA 
HETATM   19  C   UNL     1      -8.993   5.556  67.203  1.00  0.00    -0.112 A  
HETATM   20  C   UNL     1      -8.744   6.436  66.116  1.00  0.00    -0.151 A  
HETATM   21  C   UNL     1      -8.576   5.835  64.867  1.00  0.00    -0.064 A  
HETATM   22  H   UNL     1      -7.892   6.683  63.040  1.00  0.00     0.000 HD 
ENDBRANCH  12  13
ENDBRANCH  11  12
BRANCH  11  23
HETATM   23  C   UNL     1     -11.002  10.700  67.463  1.00  0.00    -0.310 C  
HETATM   24  N   UNL     1     -10.226  11.607  66.769  1.00  0.00    -0.213 N  
HETATM   25  H   UNL     1      -9.434  11.278  66.218  1.00  0.00     0.000 HD 
HETATM   26  O   UNL     1     -12.017  11.038  68.080  1.00  0.00    -0.610 OA 
BRANCH  24  27
HETATM   27  C   UNL     1     -10.530  13.019  66.818  1.00  0.00    -0.259 C  
BRANCH  27  28
HETATM   28  N   UNL     1     -11.840  13.228  66.257  1.00  0.00    -0.375 N  
HETATM   29  O   UNL     1     -11.219  14.975  64.878  1.00  0.00    -0.387 OA 
HETATM   30  C   UNL     1     -12.062  14.208  65.317  1.00  0.00    -0.405 C  
HETATM   31  H   UNL     1     -12.616  12.640  66.562  1.00  0.00     0.000 HD 
ENDBRANCH  27  28
BRANCH  27  32
HETATM   32  C   UNL     1     -10.256  13.779  68.133  1.00  0.00    -0.253 C  
BRANCH  32  33
HETATM   33  C   UNL     1     -11.250  14.408  69.095  1.00  0.00    -0.300 A  
HETATM   34  C   UNL     1     -12.778  15.146  70.655  1.00  0.00    -0.398 A  
HETATM   35  H   UNL     1     -12.761  17.138  69.940  1.00  0.00     0.000 HD 
HETATM   36  C   UNL     1     -13.679  15.164  71.731  1.00  0.00    -0.578 A  
HETATM   37  C   UNL     1     -11.506  15.767  68.932  1.00  0.00    -0.378 A  
HETATM   38  C   UNL     1     -13.926  13.963  72.385  1.00  0.00    -0.633 A  
HETATM   39  N   UNL     1     -12.409  16.184  69.856  1.00  0.00    -0.054 NA 
HETATM   40  C   UNL     1     -13.295  12.793  71.964  1.00  0.00    -0.565 A  
HETATM   41  C   UNL     1     -12.382  12.796  70.887  1.00  0.00    -0.356 A  
HETATM   42  C   UNL     1     -12.097  13.998  70.204  1.00  0.00    -0.419 A  
ENDBRANCH  32  33
ENDBRANCH  27  32
ENDBRANCH  24  27
ENDBRANCH  11  23
ENDBRANCH   7  11
TORSDOF 8
ENDMDL
MODEL       67
REMARK 921   NORMALIZED FREE ENERGY PREDICTED BY IDOCK:   -7.22 KCAL/MOL
REMARK 922        TOTAL FREE ENERGY PREDICTED BY IDOCK:  -12.75 KCAL/MOL
REMARK 923 INTER-LIGAND FREE ENERGY PREDICTED BY IDOCK:  -10.77 KCAL/MOL
REMARK 924 INTRA-LIGAND FREE ENERGY PREDICTED BY IDOCK:   -1.97 KCAL/MOL
REMARK 927      BINDING AFFINITY PREDICTED BY RF-SCORE:    0.00 PKD
ROOT
HETATM    1  C   UNL     1      -6.359   7.933  69.357  1.00  0.00    -0.035 C  
HETATM    2  C   UNL     1      -7.379   8.213  68.236  1.00  0.00    -0.095 C  
HETATM    3  C   UNL     1      -8.294   9.589  68.507  1.00  0.00    -0.118 C  
HETATM    4  N   UNL     1      -8.292   7.036  68.163  1.00  0.00    -0.122 NA 
HETATM    5  C   UNL     1      -6.545   8.207  66.925  1.00  0.00    -0.057 C  
HETATM    6  H2  UNL     1      -8.732   6.816  69.057  1.00  0.00     0.000 HD 
HETATM    7  N   UNL     1      -9.473   9.446  69.246  1.00  0.00    -0.158 N  
HETATM    8  H1  UNL     1      -8.967   7.222  67.421  1.00  0.00     0.000 HD 
HETATM    9  O   UNL     1      -7.924  10.693  68.109  1.00  0.00    -0.107 OA 
HETATM   10  H   UNL     1      -9.731   8.469  69.389  1.00  0.00     0.000 HD 
ENDROOT
BRANCH   7  11
HETATM   11  C   UNL     1     -10.491  10.442  69.906  1.00  0.00    -0.218 C  
BRANCH  11  12
HETATM   12  C   UNL     1     -11.451  10.082  71.133  1.00  0.00    -0.432 C  
BRANCH  12  13
HETATM   13  C   UNL     1     -11.483   8.592  71.727  1.00  0.00    -0.394 A  
HETATM   14  C   UNL     1     -12.460   7.625  71.585  1.00  0.00    -0.335 A  
HETATM   15  C   UNL     1      -8.450   7.441  73.914  1.00  0.00    -0.225 A  
HETATM   16  C   UNL     1      -9.056   6.315  74.464  1.00  0.00    -0.179 A  
HETATM   17  C   UNL     1     -10.326   5.933  74.035  1.00  0.00    -0.295 A  
HETATM   18  N   UNL     1     -12.169   6.535  72.405  1.00  0.00    -0.531 NA 
HETATM   19  C   UNL     1      -9.134   8.250  72.982  1.00  0.00    -0.319 A  
HETATM   20  C   UNL     1     -10.456   7.933  72.571  1.00  0.00    -0.363 A  
HETATM   21  C   UNL     1     -10.982   6.739  73.066  1.00  0.00    -0.260 A  
HETATM   22  H   UNL     1     -12.755   5.706  72.501  1.00  0.00     0.000 HD 
ENDBRANCH  12  13
ENDBRANCH  11  12
BRANCH  11  23
HETATM   23  C   UNL     1     -11.192  11.204  68.749  1.00  0.00    -0.253 C  
HETATM   24  N   UNL     1     -10.428  12.099  68.027  1.00  0.00    -0.206 N  
HETATM   25  H   UNL     1      -9.419  12.137  68.171  1.00  0.00     0.000 HD 
HETATM   26  O   UNL     1     -12.403  11.064  68.556  1.00  0.00    -0.536 OA 
BRANCH  24  27
HETATM   27  C   UNL     1     -11.050  12.984  67.068  1.00  0.00    -0.281 C  
BRANCH  27  28
HETATM   28  N   UNL     1     -11.794  12.190  66.123  1.00  0.00    -0.338 N  
HETATM   29  O   UNL     1     -10.928  13.212  64.240  1.00  0.00    -0.368 OA 
HETATM   30  C   UNL     1     -11.655  12.384  64.768  1.00  0.00    -0.341 C  
HETATM   31  H   UNL     1     -12.433  11.473  66.465  1.00  0.00     0.000 HD 
ENDBRANCH  27  28
BRANCH  27  32
HETATM   32  C   UNL     1     -11.792  14.229  67.598  1.00  0.00    -0.420 C  
BRANCH  32  33
HETATM   33  C   UNL     1     -11.723  14.865  68.977  1.00  0.00    -0.347 A  
HETATM   34  C   UNL     1     -11.749  15.645  71.145  1.00  0.00    -0.413 A  
HETATM   35  H   UNL     1     -10.591  17.359  70.694  1.00  0.00     0.000 HD 
HETATM   36  C   UNL     1     -12.002  15.742  72.522  1.00  0.00    -0.600 A  
HETATM   37  C   UNL     1     -11.010  16.057  69.082  1.00  0.00    -0.297 A  
HETATM   38  C   UNL     1     -12.789  14.755  73.104  1.00  0.00    -0.614 A  
HETATM   39  N   UNL     1     -11.038  16.504  70.364  1.00  0.00    -0.254 NA 
HETATM   40  C   UNL     1     -13.302  13.719  72.324  1.00  0.00    -0.617 A  
HETATM   41  C   UNL     1     -13.027  13.631  70.943  1.00  0.00    -0.256 A  
HETATM   42  C   UNL     1     -12.224  14.609  70.317  1.00  0.00    -0.389 A  
ENDBRANCH  32  33
ENDBRANCH  27  32
ENDBRANCH  24  27
ENDBRANCH  11  23
ENDBRANCH   7  11
TORSDOF 8
ENDMDL
MODEL       68
REMARK 921   NORMALIZED FREE ENERGY PREDICTED BY IDOCK:   -7.21 KCAL/MOL
REMARK 922        TOTAL FREE ENERGY PREDICTED BY IDOCK:  -12.72 KCAL/MOL
REMARK 923 INTER-LIGAND FREE ENERGY PREDICTED BY IDOCK:  -11.17 KCAL/MOL
REMARK 924 INTRA-LIGAND FREE ENERGY PREDICTED BY IDOCK:   -1.55 KCAL/MOL
REMARK 927      BINDING AFFINITY PREDICTED BY RF-SCORE:    0.00 PKD
ROOT
HETATM    1  C   UNL     1      -9.566   6.487  71.504  1.00  0.00    -0.169 C  
HETATM    2  C   UNL     1     -10.053   7.861  72.005  1.00  0.00    -0.202 C  
HETATM    3  C   UNL     1     -10.775   8.781  70.808  1.00  0.00    -0.228 C  
HETATM    4  N   UNL     1      -8.859   8.593  72.520  1.00  0.00    -0.401 NA 
HETATM    5  C   UNL     1     -10.942   7.544  73.239  1.00  0.00    -0.362 C  
HETATM    6  H2  UNL     1      -8.107   8.662  71.834  1.00  0.00     0.000 HD 
HETATM    7  N   UNL     1      -9.945   9.601  70.035  1.00  0.00    -0.232 N  
HETATM    8  H1  UNL     1      -9.182   9.502  72.852  1.00  0.00     0.000 HD 
HETATM    9  O   UNL     1     -11.983   8.711  70.586  1.00  0.00    -0.190 OA 
HETATM   10  H   UNL     1      -9.001   9.673  70.413  1.00  0.00     0.000 HD 
ENDROOT
BRANCH   7  11
HETATM   11  C   UNL     1     -10.134  10.436  68.719  1.00  0.00    -0.187 C  
BRANCH  11  12
HETATM   12  C   UNL     1      -9.142  10.394  67.465  1.00  0.00    -0.142 C  
BRANCH  12  13
HETATM   13  C   UNL     1      -9.721  10.494  65.972  1.00  0.00    -0.257 A  
HETATM   14  C   UNL     1      -9.384   9.742  64.862  1.00  0.00    -0.265 A  
HETATM   15  C   UNL     1     -12.436  13.218  65.251  1.00  0.00    -0.543 A  
HETATM   16  C   UNL     1     -12.357  13.172  63.862  1.00  0.00    -0.439 A  
HETATM   17  C   UNL     1     -11.543  12.222  63.246  1.00  0.00    -0.434 A  
HETATM   18  N   UNL     1      -9.999  10.272  63.728  1.00  0.00    -0.471 NA 
HETATM   19  C   UNL     1     -11.643  12.368  66.051  1.00  0.00    -0.455 A  
HETATM   20  C   UNL     1     -10.750  11.433  65.462  1.00  0.00    -0.313 A  
HETATM   21  C   UNL     1     -10.784  11.348  64.069  1.00  0.00    -0.387 A  
HETATM   22  H   UNL     1      -9.883   9.913  62.781  1.00  0.00     0.000 HD 
ENDBRANCH  12  13
ENDBRANCH  11  12
BRANCH  11  23
HETATM   23  C   UNL     1     -10.561  11.865  69.148  1.00  0.00    -0.044 C  
HETATM   24  N   UNL     1      -9.804  12.921  68.679  1.00  0.00    -0.401 N  
HETATM   25  H   UNL     1      -9.090  12.756  67.970  1.00  0.00     0.000 HD 
HETATM   26  O   UNL     1     -11.489  12.024  69.947  1.00  0.00    -0.253 OA 
BRANCH  24  27
HETATM   27  C   UNL     1     -10.017  14.257  69.186  1.00  0.00    -0.022 C  
BRANCH  27  28
HETATM   28  N   UNL     1      -8.736  14.866  69.435  1.00  0.00    -0.411 N  
HETATM   29  O   UNL     1      -7.858  14.404  67.348  1.00  0.00    -0.177 OA 
HETATM   30  C   UNL     1      -7.758  14.883  68.467  1.00  0.00    -0.123 C  
HETATM   31  H   UNL     1      -8.551  15.291  70.343  1.00  0.00     0.000 HD 
ENDBRANCH  27  28
BRANCH  27  32
HETATM   32  C   UNL     1     -11.037  15.159  68.458  1.00  0.00    -0.281 C  
BRANCH  32  33
HETATM   33  C   UNL     1     -10.777  16.327  67.520  1.00  0.00    -0.300 A  
HETATM   34  C   UNL     1     -10.354  18.231  66.294  1.00  0.00    -0.405 A  
HETATM   35  H   UNL     1     -10.574  17.253  64.430  1.00  0.00     0.000 HD 
HETATM   36  C   UNL     1     -10.050  19.561  65.962  1.00  0.00    -0.521 A  
HETATM   37  C   UNL     1     -10.835  16.059  66.155  1.00  0.00    -0.179 A  
HETATM   38  C   UNL     1      -9.885  20.464  67.005  1.00  0.00    -0.594 A  
HETATM   39  N   UNL     1     -10.586  17.191  65.448  1.00  0.00    -0.626 NA 
HETATM   40  C   UNL     1     -10.027  20.042  68.326  1.00  0.00    -0.508 A  
HETATM   41  C   UNL     1     -10.321  18.698  68.642  1.00  0.00    -0.256 A  
HETATM   42  C   UNL     1     -10.486  17.748  67.611  1.00  0.00    -0.393 A  
ENDBRANCH  32  33
ENDBRANCH  27  32
ENDBRANCH  24  27
ENDBRANCH  11  23
ENDBRANCH   7  11
TORSDOF 8
ENDMDL
MODEL       69
REMARK 921   NORMALIZED FREE ENERGY PREDICTED BY IDOCK:   -7.21 KCAL/MOL
REMARK 922        TOTAL FREE ENERGY PREDICTED BY IDOCK:  -12.72 KCAL/MOL
REMARK 923 INTER-LIGAND FREE ENERGY PREDICTED BY IDOCK:  -10.12 KCAL/MOL
REMARK 924 INTRA-LIGAND FREE ENERGY PREDICTED BY IDOCK:   -2.60 KCAL/MOL
REMARK 927      BINDING AFFINITY PREDICTED BY RF-SCORE:    0.00 PKD
ROOT
HETATM    1  C   UNL     1      -9.118   5.838  67.128  1.00  0.00    -0.112 C  
HETATM    2  C   UNL     1      -8.253   6.957  66.517  1.00  0.00    -0.117 C  
HETATM    3  C   UNL     1      -8.478   8.443  67.255  1.00  0.00    -0.124 C  
HETATM    4  N   UNL     1      -8.630   7.073  65.078  1.00  0.00    -0.352 NA 
HETATM    5  C   UNL     1      -6.801   6.403  66.549  1.00  0.00    -0.062 C  
HETATM    6  H2  UNL     1      -9.630   7.220  64.938  1.00  0.00     0.000 HD 
HETATM    7  N   UNL     1      -9.500   9.261  66.759  1.00  0.00    -0.164 N  
HETATM    8  H1  UNL     1      -8.056   7.813  64.674  1.00  0.00     0.000 HD 
HETATM    9  O   UNL     1      -7.802   8.787  68.223  1.00  0.00    -0.099 OA 
HETATM   10  H   UNL     1      -9.882   8.922  65.877  1.00  0.00     0.000 HD 
ENDROOT
BRANCH   7  11
HETATM   11  C   UNL     1     -10.192  10.582  67.249  1.00  0.00    -0.215 C  
BRANCH  11  12
HETATM   12  C   UNL     1     -11.658  10.660  67.885  1.00  0.00    -0.132 C  
BRANCH  12  13
HETATM   13  C   UNL     1     -11.917  11.510  69.220  1.00  0.00    -0.397 A  
HETATM   14  C   UNL     1     -12.240  11.057  70.485  1.00  0.00    -0.381 A  
HETATM   15  C   UNL     1     -11.656  15.407  68.973  1.00  0.00    -0.361 A  
HETATM   16  C   UNL     1     -12.279  15.695  70.184  1.00  0.00    -0.387 A  
HETATM   17  C   UNL     1     -12.640  14.656  71.042  1.00  0.00    -0.400 A  
HETATM   18  N   UNL     1     -12.547  12.139  71.310  1.00  0.00    -0.307 NA 
HETATM   19  C   UNL     1     -11.453  14.072  68.562  1.00  0.00    -0.336 A  
HETATM   20  C   UNL     1     -11.869  12.985  69.376  1.00  0.00    -0.380 A  
HETATM   21  C   UNL     1     -12.390  13.320  70.627  1.00  0.00    -0.339 A  
HETATM   22  H   UNL     1     -12.845  12.063  72.282  1.00  0.00     0.000 HD 
ENDBRANCH  12  13
ENDBRANCH  11  12
BRANCH  11  23
HETATM   23  C   UNL     1      -9.902  11.668  66.179  1.00  0.00    -0.223 C  
HETATM   24  N   UNL     1     -10.989  12.293  65.599  1.00  0.00    -0.289 N  
HETATM   25  H   UNL     1     -11.923  12.134  65.974  1.00  0.00     0.000 HD 
HETATM   26  O   UNL     1      -8.743  11.887  65.813  1.00  0.00     0.020 OA 
BRANCH  24  27
HETATM   27  C   UNL     1     -10.809  13.169  64.464  1.00  0.00    -0.383 C  
BRANCH  27  28
HETATM   28  N   UNL     1     -11.273  12.492  63.281  1.00  0.00    -0.719 N  
HETATM   29  O   UNL     1     -13.363  11.976  64.121  1.00  0.00    -0.725 OA 
HETATM   30  C   UNL     1     -12.536  11.950  63.221  1.00  0.00    -0.344 C  
HETATM   31  H   UNL     1     -10.654  12.412  62.474  1.00  0.00     0.000 HD 
ENDBRANCH  27  28
BRANCH  27  32
HETATM   32  C   UNL     1     -11.268  14.637  64.596  1.00  0.00    -0.353 C  
BRANCH  32  33
HETATM   33  C   UNL     1     -10.544  15.809  65.239  1.00  0.00    -0.446 A  
HETATM   34  C   UNL     1      -9.297  17.423  66.310  1.00  0.00    -0.217 A  
HETATM   35  H   UNL     1     -10.477  19.022  65.581  1.00  0.00     0.000 HD 
HETATM   36  C   UNL     1      -8.307  18.042  67.090  1.00  0.00    -0.241 A  
HETATM   37  C   UNL     1     -11.049  17.079  64.976  1.00  0.00     0.098 A  
HETATM   38  C   UNL     1      -7.392  17.221  67.740  1.00  0.00    -0.180 A  
HETATM   39  N   UNL     1     -10.305  18.017  65.615  1.00  0.00    -0.615 NA 
HETATM   40  C   UNL     1      -7.479  15.836  67.610  1.00  0.00    -0.180 A  
HETATM   41  C   UNL     1      -8.474  15.232  66.811  1.00  0.00    -0.290 A  
HETATM   42  C   UNL     1      -9.415  16.031  66.128  1.00  0.00    -0.371 A  
ENDBRANCH  32  33
ENDBRANCH  27  32
ENDBRANCH  24  27
ENDBRANCH  11  23
ENDBRANCH   7  11
TORSDOF 8
ENDMDL
MODEL       70
REMARK 921   NORMALIZED FREE ENERGY PREDICTED BY IDOCK:   -7.20 KCAL/MOL
REMARK 922        TOTAL FREE ENERGY PREDICTED BY IDOCK:  -12.72 KCAL/MOL
REMARK 923 INTER-LIGAND FREE ENERGY PREDICTED BY IDOCK:   -9.93 KCAL/MOL
REMARK 924 INTRA-LIGAND FREE ENERGY PREDICTED BY IDOCK:   -2.78 KCAL/MOL
REMARK 927      BINDING AFFINITY PREDICTED BY RF-SCORE:    0.00 PKD
ROOT
HETATM    1  C   UNL     1     -10.543  18.238  66.924  1.00  0.00    -0.356 C  
HETATM    2  C   UNL     1      -9.829  17.420  68.018  1.00  0.00    -0.288 C  
HETATM    3  C   UNL     1      -9.632  15.808  67.612  1.00  0.00    -0.220 C  
HETATM    4  N   UNL     1     -10.664  17.507  69.251  1.00  0.00    -0.335 NA 
HETATM    5  C   UNL     1      -8.521  18.204  68.315  1.00  0.00    -0.294 C  
HETATM    6  H2  UNL     1     -11.630  17.215  69.100  1.00  0.00     0.000 HD 
HETATM    7  N   UNL     1     -10.671  14.928  67.937  1.00  0.00    -0.260 N  
HETATM    8  H1  UNL     1     -10.191  16.965  69.975  1.00  0.00     0.000 HD 
HETATM    9  O   UNL     1      -8.632  15.415  67.013  1.00  0.00    -0.197 OA 
HETATM   10  H   UNL     1     -11.367  15.352  68.551  1.00  0.00     0.000 HD 
ENDROOT
BRANCH   7  11
HETATM   11  C   UNL     1     -11.012  13.440  67.575  1.00  0.00    -0.267 C  
BRANCH  11  12
HETATM   12  C   UNL     1     -11.951  12.991  66.361  1.00  0.00    -0.466 C  
BRANCH  12  13
HETATM   13  C   UNL     1     -11.322  12.264  65.077  1.00  0.00    -0.376 A  
HETATM   14  C   UNL     1     -11.806  12.223  63.783  1.00  0.00    -0.498 A  
HETATM   15  C   UNL     1      -7.985  10.280  65.563  1.00  0.00    -0.151 A  
HETATM   16  C   UNL     1      -8.032   9.574  64.364  1.00  0.00    -0.135 A  
HETATM   17  C   UNL     1      -9.041   9.844  63.441  1.00  0.00    -0.291 A  
HETATM   18  N   UNL     1     -11.043  11.339  63.021  1.00  0.00    -0.841 NA 
HETATM   19  C   UNL     1      -8.991  11.212  65.895  1.00  0.00    -0.210 A  
HETATM   20  C   UNL     1     -10.074  11.465  65.012  1.00  0.00    -0.323 A  
HETATM   21  C   UNL     1     -10.021  10.816  63.777  1.00  0.00    -0.351 A  
HETATM   22  H   UNL     1     -11.218  11.112  62.042  1.00  0.00     0.000 HD 
ENDBRANCH  12  13
ENDBRANCH  11  12
BRANCH  11  23
HETATM   23  C   UNL     1     -11.301  12.704  68.911  1.00  0.00    -0.297 C  
HETATM   24  N   UNL     1     -10.693  11.479  69.104  1.00  0.00    -0.336 N  
HETATM   25  H   UNL     1      -9.981  11.158  68.449  1.00  0.00     0.000 HD 
HETATM   26  O   UNL     1     -12.110  13.172  69.717  1.00  0.00    -0.307 OA 
BRANCH  24  27
HETATM   27  C   UNL     1     -11.061  10.649  70.228  1.00  0.00    -0.233 C  
BRANCH  27  28
HETATM   28  N   UNL     1     -12.404  10.168  70.026  1.00  0.00    -0.515 N  
HETATM   29  O   UNL     1     -13.117  10.576  72.186  1.00  0.00    -0.459 OA 
HETATM   30  C   UNL     1     -13.325  10.180  71.048  1.00  0.00    -0.261 C  
HETATM   31  H   UNL     1     -12.676   9.812  69.110  1.00  0.00     0.000 HD 
ENDBRANCH  27  28
BRANCH  27  32
HETATM   32  C   UNL     1     -10.053   9.583  70.709  1.00  0.00    -0.352 C  
BRANCH  32  33
HETATM   33  C   UNL     1      -9.300   8.546  69.892  1.00  0.00    -0.159 A  
HETATM   34  C   UNL     1      -8.317   7.014  68.480  1.00  0.00    -0.121 A  
HETATM   35  H   UNL     1      -6.806   6.490  69.866  1.00  0.00     0.000 HD 
HETATM   36  C   UNL     1      -8.050   6.224  67.350  1.00  0.00    -0.109 A  
HETATM   37  C   UNL     1      -8.193   7.955  70.497  1.00  0.00    -0.118 A  
HETATM   38  C   UNL     1      -8.919   6.328  66.271  1.00  0.00    -0.164 A  
HETATM   39  N   UNL     1      -7.628   7.055  69.653  1.00  0.00    -0.102 NA 
HETATM   40  C   UNL     1     -10.014   7.189  66.334  1.00  0.00    -0.081 A  
HETATM   41  C   UNL     1     -10.260   7.985  67.473  1.00  0.00    -0.311 A  
HETATM   42  C   UNL     1      -9.395   7.915  68.586  1.00  0.00    -0.145 A  
ENDBRANCH  32  33
ENDBRANCH  27  32
ENDBRANCH  24  27
ENDBRANCH  11  23
ENDBRANCH   7  11
TORSDOF 8
ENDMDL
MODEL       71
REMARK 921   NORMALIZED FREE ENERGY PREDICTED BY IDOCK:   -7.18 KCAL/MOL
REMARK 922        TOTAL FREE ENERGY PREDICTED BY IDOCK:  -12.68 KCAL/MOL
REMARK 923 INTER-LIGAND FREE ENERGY PREDICTED BY IDOCK:  -10.87 KCAL/MOL
REMARK 924 INTRA-LIGAND FREE ENERGY PREDICTED BY IDOCK:   -1.81 KCAL/MOL
REMARK 927      BINDING AFFINITY PREDICTED BY RF-SCORE:    0.00 PKD
ROOT
HETATM    1  C   UNL     1     -14.331  15.192  71.380  1.00  0.00    -0.601 C  
HETATM    2  C   UNL     1     -12.804  15.002  71.467  1.00  0.00    -0.347 C  
HETATM    3  C   UNL     1     -12.054  14.999  69.970  1.00  0.00    -0.337 C  
HETATM    4  N   UNL     1     -12.559  13.688  72.130  1.00  0.00    -0.133 NA 
HETATM    5  C   UNL     1     -12.320  16.094  72.460  1.00  0.00    -0.564 C  
HETATM    6  H2  UNL     1     -13.032  12.912  71.666  1.00  0.00     0.000 HD 
HETATM    7  N   UNL     1     -11.950  13.773  69.302  1.00  0.00    -0.340 N  
HETATM    8  H1  UNL     1     -11.548  13.562  72.187  1.00  0.00     0.000 HD 
HETATM    9  O   UNL     1     -11.646  16.039  69.455  1.00  0.00    -0.330 OA 
HETATM   10  H   UNL     1     -12.195  12.981  69.895  1.00  0.00     0.000 HD 
ENDROOT
BRANCH   7  11
HETATM   11  C   UNL     1     -11.543  13.338  67.850  1.00  0.00    -0.334 C  
BRANCH  11  12
HETATM   12  C   UNL     1     -11.876  11.915  67.199  1.00  0.00    -0.216 C  
BRANCH  12  13
HETATM   13  C   UNL     1     -11.018  10.621  67.600  1.00  0.00    -0.370 A  
HETATM   14  C   UNL     1     -10.226   9.825  66.794  1.00  0.00    -0.233 A  
HETATM   15  C   UNL     1     -11.134   9.446  71.330  1.00  0.00    -0.450 A  
HETATM   16  C   UNL     1     -10.588   8.181  71.126  1.00  0.00    -0.242 A  
HETATM   17  C   UNL     1     -10.124   7.823  69.861  1.00  0.00    -0.203 A  
HETATM   18  N   UNL     1      -9.799   8.705  67.509  1.00  0.00    -0.168 NA 
HETATM   19  C   UNL     1     -11.298  10.346  70.257  1.00  0.00    -0.406 A  
HETATM   20  C   UNL     1     -10.900   9.994  68.939  1.00  0.00    -0.250 A  
HETATM   21  C   UNL     1     -10.260   8.761  68.802  1.00  0.00    -0.206 A  
HETATM   22  H   UNL     1      -9.228   7.953  67.126  1.00  0.00     0.000 HD 
ENDBRANCH  12  13
ENDBRANCH  11  12
BRANCH  11  23
HETATM   23  C   UNL     1     -10.083  13.816  67.628  1.00  0.00    -0.242 C  
HETATM   24  N   UNL     1      -9.180  13.590  68.648  1.00  0.00    -0.379 N  
HETATM   25  H   UNL     1      -9.447  13.007  69.441  1.00  0.00     0.000 HD 
HETATM   26  O   UNL     1      -9.783  14.448  66.611  1.00  0.00    -0.257 OA 
BRANCH  24  27
HETATM   27  C   UNL     1      -7.859  14.173  68.599  1.00  0.00    -0.137 C  
BRANCH  27  28
HETATM   28  N   UNL     1      -7.185  13.688  67.422  1.00  0.00    -0.302 N  
HETATM   29  O   UNL     1      -7.146  11.473  68.081  1.00  0.00    -0.070 OA 
HETATM   30  C   UNL     1      -6.889  12.352  67.273  1.00  0.00    -0.127 C  
HETATM   31  H   UNL     1      -6.922  14.345  66.688  1.00  0.00     0.000 HD 
ENDBRANCH  27  28
BRANCH  27  32
HETATM   32  C   UNL     1      -7.722  15.690  68.848  1.00  0.00    -0.181 C  
BRANCH  32  33
HETATM   33  C   UNL     1      -8.012  16.843  67.901  1.00  0.00    -0.187 A  
HETATM   34  C   UNL     1      -8.590  18.681  66.637  1.00  0.00    -0.297 A  
HETATM   35  H   UNL     1      -7.429  18.080  64.972  1.00  0.00     0.000 HD 
HETATM   36  C   UNL     1      -9.170  19.897  66.243  1.00  0.00    -0.457 A  
HETATM   37  C   UNL     1      -7.395  16.799  66.653  1.00  0.00    -0.262 A  
HETATM   38  C   UNL     1     -10.032  20.520  67.138  1.00  0.00    -0.512 A  
HETATM   39  N   UNL     1      -7.748  17.886  65.921  1.00  0.00    -0.545 NA 
HETATM   40  C   UNL     1     -10.300  19.934  68.375  1.00  0.00    -0.507 A  
HETATM   41  C   UNL     1      -9.698  18.717  68.759  1.00  0.00    -0.407 A  
HETATM   42  C   UNL     1      -8.809  18.058  67.882  1.00  0.00    -0.269 A  
ENDBRANCH  32  33
ENDBRANCH  27  32
ENDBRANCH  24  27
ENDBRANCH  11  23
ENDBRANCH   7  11
TORSDOF 8
ENDMDL
MODEL       72
REMARK 921   NORMALIZED FREE ENERGY PREDICTED BY IDOCK:   -7.17 KCAL/MOL
REMARK 922        TOTAL FREE ENERGY PREDICTED BY IDOCK:  -12.67 KCAL/MOL
REMARK 923 INTER-LIGAND FREE ENERGY PREDICTED BY IDOCK:  -10.68 KCAL/MOL
REMARK 924 INTRA-LIGAND FREE ENERGY PREDICTED BY IDOCK:   -1.99 KCAL/MOL
REMARK 927      BINDING AFFINITY PREDICTED BY RF-SCORE:    0.00 PKD
ROOT
HETATM    1  C   UNL     1     -10.660   8.483  69.350  1.00  0.00    -0.203 C  
HETATM    2  C   UNL     1     -10.533   9.517  70.485  1.00  0.00    -0.296 C  
HETATM    3  C   UNL     1     -11.382  10.929  70.189  1.00  0.00    -0.284 C  
HETATM    4  N   UNL     1      -9.085   9.848  70.623  1.00  0.00    -0.341 NA 
HETATM    5  C   UNL     1     -10.934   8.748  71.774  1.00  0.00    -0.415 C  
HETATM    6  H2  UNL     1      -8.662  10.161  69.749  1.00  0.00     0.000 HD 
HETATM    7  N   UNL     1     -10.723  11.944  69.485  1.00  0.00    -0.439 N  
HETATM    8  H1  UNL     1      -9.001  10.532  71.375  1.00  0.00     0.000 HD 
HETATM    9  O   UNL     1     -12.555  11.057  70.538  1.00  0.00    -0.323 OA 
HETATM   10  H   UNL     1      -9.724  11.766  69.384  1.00  0.00     0.000 HD 
ENDROOT
BRANCH   7  11
HETATM   11  C   UNL     1     -11.168  13.292  68.816  1.00  0.00    -0.276 C  
BRANCH  11  12
HETATM   12  C   UNL     1     -12.256  13.414  67.651  1.00  0.00    -0.202 C  
BRANCH  12  13
HETATM   13  C   UNL     1     -11.810  13.320  66.113  1.00  0.00    -0.437 A  
HETATM   14  C   UNL     1     -12.123  14.168  65.068  1.00  0.00    -0.421 A  
HETATM   15  C   UNL     1      -9.552  10.304  65.057  1.00  0.00    -0.346 A  
HETATM   16  C   UNL     1      -9.728  10.435  63.682  1.00  0.00    -0.338 A  
HETATM   17  C   UNL     1     -10.449  11.515  63.176  1.00  0.00    -0.350 A  
HETATM   18  N   UNL     1     -11.672  13.623  63.866  1.00  0.00    -0.632 NA 
HETATM   19  C   UNL     1     -10.160  11.207  65.955  1.00  0.00    -0.296 A  
HETATM   20  C   UNL     1     -10.959  12.281  65.481  1.00  0.00    -0.337 A  
HETATM   21  C   UNL     1     -11.018  12.437  64.095  1.00  0.00    -0.367 A  
HETATM   22  H   UNL     1     -11.808  14.045  62.948  1.00  0.00     0.000 HD 
ENDBRANCH  12  13
ENDBRANCH  11  12
BRANCH  11  23
HETATM   23  C   UNL     1      -9.880  14.125  68.578  1.00  0.00    -0.230 C  
HETATM   24  N   UNL     1     -10.015  15.498  68.524  1.00  0.00    -0.205 N  
HETATM   25  H   UNL     1     -10.904  15.930  68.774  1.00  0.00     0.000 HD 
HETATM   26  O   UNL     1      -8.805  13.559  68.361  1.00  0.00    -0.182 OA 
BRANCH  24  27
HETATM   27  C   UNL     1      -8.903  16.326  68.115  1.00  0.00    -0.183 C  
BRANCH  27  28
HETATM   28  N   UNL     1      -8.606  16.048  66.733  1.00  0.00    -0.229 N  
HETATM   29  O   UNL     1     -10.529  17.013  65.890  1.00  0.00    -0.361 OA 
HETATM   30  C   UNL     1      -9.467  16.430  65.730  1.00  0.00    -0.156 C  
HETATM   31  H   UNL     1      -7.742  15.560  66.495  1.00  0.00     0.000 HD 
ENDBRANCH  27  28
BRANCH  27  32
HETATM   32  C   UNL     1      -8.935  17.824  68.485  1.00  0.00    -0.288 C  
BRANCH  32  33
HETATM   33  C   UNL     1      -7.876  18.888  68.244  1.00  0.00    -0.340 A  
HETATM   34  C   UNL     1      -6.303  20.461  67.643  1.00  0.00    -0.246 A  
HETATM   35  H   UNL     1      -5.858  20.989  69.644  1.00  0.00     0.000 HD 
HETATM   36  C   UNL     1      -5.473  21.285  66.867  1.00  0.00    -0.332 A  
HETATM   37  C   UNL     1      -7.327  19.493  69.371  1.00  0.00    -0.209 A  
HETATM   38  C   UNL     1      -5.521  21.131  65.487  1.00  0.00    -0.247 A  
HETATM   39  N   UNL     1      -6.401  20.415  69.000  1.00  0.00    -0.309 NA 
HETATM   40  C   UNL     1      -6.367  20.181  64.917  1.00  0.00    -0.329 A  
HETATM   41  C   UNL     1      -7.205  19.370  65.713  1.00  0.00    -0.302 A  
HETATM   42  C   UNL     1      -7.192  19.503  67.118  1.00  0.00    -0.231 A  
ENDBRANCH  32  33
ENDBRANCH  27  32
ENDBRANCH  24  27
ENDBRANCH  11  23
ENDBRANCH   7  11
TORSDOF 8
ENDMDL
MODEL       73
REMARK 921   NORMALIZED FREE ENERGY PREDICTED BY IDOCK:   -7.17 KCAL/MOL
REMARK 922        TOTAL FREE ENERGY PREDICTED BY IDOCK:  -12.67 KCAL/MOL
REMARK 923 INTER-LIGAND FREE ENERGY PREDICTED BY IDOCK:  -10.27 KCAL/MOL
REMARK 924 INTRA-LIGAND FREE ENERGY PREDICTED BY IDOCK:   -2.39 KCAL/MOL
REMARK 927      BINDING AFFINITY PREDICTED BY RF-SCORE:    0.00 PKD
ROOT
HETATM    1  C   UNL     1      -8.712  17.160  66.128  1.00  0.00    -0.223 C  
HETATM    2  C   UNL     1     -10.252  17.212  66.169  1.00  0.00    -0.334 C  
HETATM    3  C   UNL     1     -10.911  16.269  67.386  1.00  0.00    -0.242 C  
HETATM    4  N   UNL     1     -10.747  16.714  64.854  1.00  0.00    -0.717 NA 
HETATM    5  C   UNL     1     -10.600  18.725  66.227  1.00  0.00    -0.429 C  
HETATM    6  H2  UNL     1     -10.384  15.790  64.615  1.00  0.00     0.000 HD 
HETATM    7  N   UNL     1     -11.181  14.928  67.089  1.00  0.00    -0.336 N  
HETATM    8  H1  UNL     1     -11.766  16.748  64.881  1.00  0.00     0.000 HD 
HETATM    9  O   UNL     1     -11.112  16.724  68.511  1.00  0.00    -0.342 OA 
HETATM   10  H   UNL     1     -11.102  14.723  66.094  1.00  0.00     0.000 HD 
ENDROOT
BRANCH   7  11
HETATM   11  C   UNL     1     -11.576  13.668  67.937  1.00  0.00    -0.341 C  
BRANCH  11  12
HETATM   12  C   UNL     1     -11.174  13.437  69.467  1.00  0.00    -0.181 C  
BRANCH  12  13
HETATM   13  C   UNL     1     -12.177  12.678  70.462  1.00  0.00    -0.383 A  
HETATM   14  C   UNL     1     -13.195  13.206  71.234  1.00  0.00    -0.122 A  
HETATM   15  C   UNL     1     -11.759   8.808  70.861  1.00  0.00    -0.299 A  
HETATM   16  C   UNL     1     -12.533   8.672  72.010  1.00  0.00    -0.433 A  
HETATM   17  C   UNL     1     -13.219   9.775  72.518  1.00  0.00    -0.225 A  
HETATM   18  N   UNL     1     -13.704  12.223  72.082  1.00  0.00    -0.368 NA 
HETATM   19  C   UNL     1     -11.591  10.066  70.245  1.00  0.00    -0.354 A  
HETATM   20  C   UNL     1     -12.217  11.227  70.772  1.00  0.00    -0.479 A  
HETATM   21  C   UNL     1     -13.070  11.024  71.858  1.00  0.00    -0.419 A  
HETATM   22  H   UNL     1     -14.442  12.372  72.770  1.00  0.00     0.000 HD 
ENDBRANCH  12  13
ENDBRANCH  11  12
BRANCH  11  23
HETATM   23  C   UNL     1     -11.366  12.428  67.027  1.00  0.00    -0.327 C  
HETATM   24  N   UNL     1     -10.563  12.587  65.915  1.00  0.00    -0.259 N  
HETATM   25  H   UNL     1     -10.029  13.447  65.795  1.00  0.00     0.000 HD 
HETATM   26  O   UNL     1     -11.970  11.377  67.259  1.00  0.00    -0.580 OA 
BRANCH  24  27
HETATM   27  C   UNL     1     -10.475  11.542  64.921  1.00  0.00    -0.291 C  
BRANCH  27  28
HETATM   28  N   UNL     1     -10.862  12.086  63.644  1.00  0.00    -0.407 N  
HETATM   29  O   UNL     1     -13.098  12.335  64.174  1.00  0.00    -0.749 OA 
HETATM   30  C   UNL     1     -12.167  12.441  63.389  1.00  0.00    -0.523 C  
HETATM   31  H   UNL     1     -10.157  12.210  62.918  1.00  0.00     0.000 HD 
ENDBRANCH  27  28
BRANCH  27  32
HETATM   32  C   UNL     1      -9.207  10.663  64.896  1.00  0.00    -0.252 C  
BRANCH  32  33
HETATM   33  C   UNL     1      -8.010  10.690  65.832  1.00  0.00    -0.157 A  
HETATM   34  C   UNL     1      -6.350  10.692  67.431  1.00  0.00    -0.058 A  
HETATM   35  H   UNL     1      -4.802  11.032  66.028  1.00  0.00     0.000 HD 
HETATM   36  C   UNL     1      -5.694  10.614  68.670  1.00  0.00    -0.040 A  
HETATM   37  C   UNL     1      -6.762  10.896  65.249  1.00  0.00     0.217 A  
HETATM   38  C   UNL     1      -6.478  10.429  69.803  1.00  0.00    -0.089 A  
HETATM   39  N   UNL     1      -5.797  10.897  66.204  1.00  0.00    -0.133 NA 
HETATM   40  C   UNL     1      -7.864  10.334  69.688  1.00  0.00    -0.168 A  
HETATM   41  C   UNL     1      -8.505  10.402  68.433  1.00  0.00    -0.124 A  
HETATM   42  C   UNL     1      -7.744  10.579  67.257  1.00  0.00    -0.106 A  
ENDBRANCH  32  33
ENDBRANCH  27  32
ENDBRANCH  24  27
ENDBRANCH  11  23
ENDBRANCH   7  11
TORSDOF 8
ENDMDL
MODEL       74
REMARK 921   NORMALIZED FREE ENERGY PREDICTED BY IDOCK:   -7.17 KCAL/MOL
REMARK 922        TOTAL FREE ENERGY PREDICTED BY IDOCK:  -12.66 KCAL/MOL
REMARK 923 INTER-LIGAND FREE ENERGY PREDICTED BY IDOCK:  -10.70 KCAL/MOL
REMARK 924 INTRA-LIGAND FREE ENERGY PREDICTED BY IDOCK:   -1.96 KCAL/MOL
REMARK 927      BINDING AFFINITY PREDICTED BY RF-SCORE:    0.00 PKD
ROOT
HETATM    1  C   UNL     1     -10.357   7.943  73.113  1.00  0.00    -0.357 C  
HETATM    2  C   UNL     1     -11.632   7.840  72.253  1.00  0.00    -0.338 C  
HETATM    3  C   UNL     1     -11.524   8.681  70.810  1.00  0.00    -0.259 C  
HETATM    4  N   UNL     1     -12.755   8.405  73.056  1.00  0.00    -0.626 NA 
HETATM    5  C   UNL     1     -11.906   6.315  72.126  1.00  0.00    -0.365 C  
HETATM    6  H2  UNL     1     -12.571   9.354  73.386  1.00  0.00     0.000 HD 
HETATM    7  N   UNL     1     -11.901  10.028  70.818  1.00  0.00    -0.321 N  
HETATM    8  H1  UNL     1     -13.598   8.337  72.487  1.00  0.00     0.000 HD 
HETATM    9  O   UNL     1     -11.090   8.148  69.789  1.00  0.00    -0.183 OA 
HETATM   10  H   UNL     1     -12.370  10.300  71.681  1.00  0.00     0.000 HD 
ENDROOT
BRANCH   7  11
HETATM   11  C   UNL     1     -11.767  11.218  69.803  1.00  0.00    -0.349 C  
BRANCH  11  12
HETATM   12  C   UNL     1     -10.531  11.435  68.811  1.00  0.00    -0.228 C  
BRANCH  12  13
HETATM   13  C   UNL     1     -10.781  11.888  67.293  1.00  0.00    -0.276 A  
HETATM   14  C   UNL     1     -11.683  12.814  66.804  1.00  0.00    -0.392 A  
HETATM   15  C   UNL     1      -8.622  10.186  64.509  1.00  0.00    -0.198 A  
HETATM   16  C   UNL     1      -9.395  10.591  63.425  1.00  0.00    -0.335 A  
HETATM   17  C   UNL     1     -10.472  11.454  63.625  1.00  0.00    -0.472 A  
HETATM   18  N   UNL     1     -11.690  12.776  65.410  1.00  0.00    -0.365 NA 
HETATM   19  C   UNL     1      -8.959  10.572  65.824  1.00  0.00    -0.199 A  
HETATM   20  C   UNL     1     -10.089  11.394  66.077  1.00  0.00    -0.275 A  
HETATM   21  C   UNL     1     -10.769  11.864  64.953  1.00  0.00    -0.301 A  
HETATM   22  H   UNL     1     -12.293  13.343  64.815  1.00  0.00     0.000 HD 
ENDBRANCH  12  13
ENDBRANCH  11  12
BRANCH  11  23
HETATM   23  C   UNL     1     -12.220  12.502  70.550  1.00  0.00    -0.297 C  
HETATM   24  N   UNL     1     -11.745  13.710  70.078  1.00  0.00    -0.436 N  
HETATM   25  H   UNL     1     -11.239  13.744  69.193  1.00  0.00     0.000 HD 
HETATM   26  O   UNL     1     -12.905  12.417  71.573  1.00  0.00    -0.366 OA 
BRANCH  24  27
HETATM   27  C   UNL     1     -11.962  14.925  70.830  1.00  0.00    -0.314 C  
BRANCH  27  28
HETATM   28  N   UNL     1     -11.452  14.738  72.164  1.00  0.00    -0.358 N  
HETATM   29  O   UNL     1     -13.093  15.985  73.208  1.00  0.00    -0.521 OA 
HETATM   30  C   UNL     1     -12.084  15.298  73.251  1.00  0.00    -0.437 C  
HETATM   31  H   UNL     1     -10.609  14.182  72.305  1.00  0.00     0.000 HD 
ENDBRANCH  27  28
BRANCH  27  32
HETATM   32  C   UNL     1     -11.583  16.268  70.170  1.00  0.00    -0.149 C  
BRANCH  32  33
HETATM   33  C   UNL     1     -10.421  16.581  69.242  1.00  0.00    -0.326 A  
HETATM   34  C   UNL     1      -8.592  16.826  67.862  1.00  0.00    -0.202 A  
HETATM   35  H   UNL     1      -8.980  18.870  67.473  1.00  0.00     0.000 HD 
HETATM   36  C   UNL     1      -7.434  16.539  67.123  1.00  0.00    -0.217 A  
HETATM   37  C   UNL     1     -10.340  17.883  68.756  1.00  0.00    -0.307 A  
HETATM   38  C   UNL     1      -6.911  15.255  67.217  1.00  0.00    -0.152 A  
HETATM   39  N   UNL     1      -9.257  18.011  67.947  1.00  0.00    -0.263 NA 
HETATM   40  C   UNL     1      -7.530  14.305  68.028  1.00  0.00    -0.144 A  
HETATM   41  C   UNL     1      -8.701  14.607  68.755  1.00  0.00    -0.166 A  
HETATM   42  C   UNL     1      -9.269  15.898  68.678  1.00  0.00    -0.209 A  
ENDBRANCH  32  33
ENDBRANCH  27  32
ENDBRANCH  24  27
ENDBRANCH  11  23
ENDBRANCH   7  11
TORSDOF 8
ENDMDL
MODEL       75
REMARK 921   NORMALIZED FREE ENERGY PREDICTED BY IDOCK:   -7.15 KCAL/MOL
REMARK 922        TOTAL FREE ENERGY PREDICTED BY IDOCK:  -12.64 KCAL/MOL
REMARK 923 INTER-LIGAND FREE ENERGY PREDICTED BY IDOCK:  -10.91 KCAL/MOL
REMARK 924 INTRA-LIGAND FREE ENERGY PREDICTED BY IDOCK:   -1.73 KCAL/MOL
REMARK 927      BINDING AFFINITY PREDICTED BY RF-SCORE:    0.00 PKD
ROOT
HETATM    1  C   UNL     1      -9.241   5.949  68.135  1.00  0.00    -0.116 C  
HETATM    2  C   UNL     1      -9.764   6.846  66.996  1.00  0.00    -0.163 C  
HETATM    3  C   UNL     1      -9.559   8.480  67.297  1.00  0.00    -0.171 C  
HETATM    4  N   UNL     1     -11.221   6.564  66.844  1.00  0.00    -0.776 NA 
HETATM    5  C   UNL     1      -9.074   6.306  65.712  1.00  0.00    -0.039 C  
HETATM    6  H2  UNL     1     -11.742   6.678  67.714  1.00  0.00     0.000 HD 
HETATM    7  N   UNL     1     -10.578   9.141  67.993  1.00  0.00    -0.355 N  
HETATM    8  H1  UNL     1     -11.566   7.158  66.090  1.00  0.00     0.000 HD 
HETATM    9  O   UNL     1      -8.534   9.071  66.959  1.00  0.00    -0.118 OA 
HETATM   10  H   UNL     1     -11.421   8.576  68.085  1.00  0.00     0.000 HD 
ENDROOT
BRANCH   7  11
HETATM   11  C   UNL     1     -10.721  10.553  68.663  1.00  0.00    -0.215 C  
BRANCH  11  12
HETATM   12  C   UNL     1     -11.441  10.827  70.064  1.00  0.00    -0.412 C  
BRANCH  12  13
HETATM   13  C   UNL     1     -11.699   9.622  71.091  1.00  0.00    -0.450 A  
HETATM   14  C   UNL     1     -12.901   9.145  71.580  1.00  0.00    -0.347 A  
HETATM   15  C   UNL     1      -8.577   7.724  72.490  1.00  0.00    -0.184 A  
HETATM   16  C   UNL     1      -9.228   7.075  73.535  1.00  0.00    -0.195 A  
HETATM   17  C   UNL     1     -10.612   7.189  73.667  1.00  0.00    -0.375 A  
HETATM   18  N   UNL     1     -12.663   8.202  72.579  1.00  0.00    -0.580 NA 
HETATM   19  C   UNL     1      -9.286   8.562  71.603  1.00  0.00    -0.311 A  
HETATM   20  C   UNL     1     -10.685   8.759  71.745  1.00  0.00    -0.413 A  
HETATM   21  C   UNL     1     -11.313   8.005  72.739  1.00  0.00    -0.374 A  
HETATM   22  H   UNL     1     -13.388   7.726  73.116  1.00  0.00     0.000 HD 
ENDBRANCH  12  13
ENDBRANCH  11  12
BRANCH  11  23
HETATM   23  C   UNL     1     -11.112  11.549  67.538  1.00  0.00    -0.272 C  
HETATM   24  N   UNL     1     -10.091  12.066  66.765  1.00  0.00    -0.202 N  
HETATM   25  H   UNL     1      -9.148  11.687  66.854  1.00  0.00     0.000 HD 
HETATM   26  O   UNL     1     -12.284  11.918  67.414  1.00  0.00    -0.502 OA 
BRANCH  24  27
HETATM   27  C   UNL     1     -10.350  13.139  65.833  1.00  0.00    -0.290 C  
BRANCH  27  28
HETATM   28  N   UNL     1     -11.331  12.693  64.878  1.00  0.00    -0.302 N  
HETATM   29  O   UNL     1      -9.816  11.697  63.446  1.00  0.00    -0.357 OA 
HETATM   30  C   UNL     1     -10.961  11.995  63.751  1.00  0.00    -0.426 C  
HETATM   31  H   UNL     1     -12.317  12.897  65.040  1.00  0.00     0.000 HD 
ENDBRANCH  27  28
BRANCH  27  32
HETATM   32  C   UNL     1     -10.588  14.555  66.399  1.00  0.00    -0.302 C  
BRANCH  32  33
HETATM   33  C   UNL     1      -9.573  15.554  66.929  1.00  0.00    -0.241 A  
HETATM   34  C   UNL     1      -8.217  17.219  67.765  1.00  0.00    -0.203 A  
HETATM   35  H   UNL     1      -6.449  16.070  67.578  1.00  0.00     0.000 HD 
HETATM   36  C   UNL     1      -7.789  18.442  68.306  1.00  0.00    -0.314 A  
HETATM   37  C   UNL     1      -8.244  15.138  66.965  1.00  0.00    -0.228 A  
HETATM   38  C   UNL     1      -8.747  19.428  68.507  1.00  0.00    -0.407 A  
HETATM   39  N   UNL     1      -7.460  16.131  67.457  1.00  0.00    -0.140 NA 
HETATM   40  C   UNL     1     -10.079  19.190  68.170  1.00  0.00    -0.486 A  
HETATM   41  C   UNL     1     -10.494  17.949  67.640  1.00  0.00    -0.406 A  
HETATM   42  C   UNL     1      -9.552  16.918  67.430  1.00  0.00    -0.241 A  
ENDBRANCH  32  33
ENDBRANCH  27  32
ENDBRANCH  24  27
ENDBRANCH  11  23
ENDBRANCH   7  11
TORSDOF 8
ENDMDL
MODEL       76
REMARK 921   NORMALIZED FREE ENERGY PREDICTED BY IDOCK:   -7.14 KCAL/MOL
REMARK 922        TOTAL FREE ENERGY PREDICTED BY IDOCK:  -12.62 KCAL/MOL
REMARK 923 INTER-LIGAND FREE ENERGY PREDICTED BY IDOCK:  -10.19 KCAL/MOL
REMARK 924 INTRA-LIGAND FREE ENERGY PREDICTED BY IDOCK:   -2.43 KCAL/MOL
REMARK 927      BINDING AFFINITY PREDICTED BY RF-SCORE:    0.00 PKD
ROOT
HETATM    1  C   UNL     1      -7.826   6.641  70.864  1.00  0.00    -0.105 C  
HETATM    2  C   UNL     1      -9.278   6.565  70.353  1.00  0.00    -0.155 C  
HETATM    3  C   UNL     1      -9.640   7.743  69.219  1.00  0.00    -0.159 C  
HETATM    4  N   UNL     1     -10.173   6.743  71.533  1.00  0.00    -0.193 NA 
HETATM    5  C   UNL     1      -9.459   5.096  69.879  1.00  0.00    -0.221 C  
HETATM    6  H2  UNL     1      -9.978   7.597  72.056  1.00  0.00     0.000 HD 
HETATM    7  N   UNL     1     -10.103   8.976  69.694  1.00  0.00    -0.190 N  
HETATM    8  H1  UNL     1     -11.134   6.692  71.194  1.00  0.00     0.000 HD 
HETATM    9  O   UNL     1      -9.468   7.549  68.016  1.00  0.00    -0.141 OA 
HETATM   10  H   UNL     1     -10.333   8.953  70.687  1.00  0.00     0.000 HD 
ENDROOT
BRANCH   7  11
HETATM   11  C   UNL     1     -10.348  10.386  69.049  1.00  0.00    -0.214 C  
BRANCH  11  12
HETATM   12  C   UNL     1      -9.227  11.512  68.868  1.00  0.00     0.005 C  
BRANCH  12  13
HETATM   13  C   UNL     1      -9.260  12.491  67.599  1.00  0.00    -0.190 A  
HETATM   14  C   UNL     1      -8.455  13.581  67.326  1.00  0.00    -0.193 A  
HETATM   15  C   UNL     1     -11.966  11.819  64.854  1.00  0.00    -0.069 A  
HETATM   16  C   UNL     1     -11.855  13.044  64.203  1.00  0.00    -0.478 A  
HETATM   17  C   UNL     1     -10.872  13.951  64.597  1.00  0.00    -0.420 A  
HETATM   18  N   UNL     1      -8.936  14.254  66.203  1.00  0.00    -0.476 NA 
HETATM   19  C   UNL     1     -11.149  11.510  65.962  1.00  0.00    -0.289 A  
HETATM   20  C   UNL     1     -10.182  12.435  66.437  1.00  0.00    -0.253 A  
HETATM   21  C   UNL     1     -10.032  13.603  65.689  1.00  0.00    -0.243 A  
HETATM   22  H   UNL     1      -8.532  15.107  65.818  1.00  0.00     0.000 HD 
ENDBRANCH  12  13
ENDBRANCH  11  12
BRANCH  11  23
HETATM   23  C   UNL     1     -11.696  10.911  69.611  1.00  0.00    -0.331 C  
HETATM   24  N   UNL     1     -11.834  10.959  70.985  1.00  0.00    -0.285 N  
HETATM   25  H   UNL     1     -11.025  10.789  71.581  1.00  0.00     0.000 HD 
HETATM   26  O   UNL     1     -12.624  11.186  68.845  1.00  0.00    -0.358 OA 
BRANCH  24  27
HETATM   27  C   UNL     1     -13.118  11.250  71.581  1.00  0.00    -0.408 C  
BRANCH  27  28
HETATM   28  N   UNL     1     -13.403  10.246  72.574  1.00  0.00    -0.504 N  
HETATM   29  O   UNL     1     -12.888   8.442  71.224  1.00  0.00    -0.275 OA 
HETATM   30  C   UNL     1     -13.254   8.907  72.293  1.00  0.00    -0.447 C  
HETATM   31  H   UNL     1     -13.720  10.533  73.499  1.00  0.00     0.000 HD 
ENDBRANCH  27  28
BRANCH  27  32
HETATM   32  C   UNL     1     -13.406  12.701  72.021  1.00  0.00    -0.555 C  
BRANCH  32  33
HETATM   33  C   UNL     1     -12.682  13.979  71.627  1.00  0.00    -0.422 A  
HETATM   34  C   UNL     1     -11.603  15.840  70.803  1.00  0.00    -0.398 A  
HETATM   35  H   UNL     1     -11.330  16.705  72.716  1.00  0.00     0.000 HD 
HETATM   36  C   UNL     1     -11.029  16.762  69.913  1.00  0.00    -0.063 A  
HETATM   37  C   UNL     1     -12.327  14.842  72.661  1.00  0.00    -0.287 A  
HETATM   38  C   UNL     1     -11.027  16.437  68.562  1.00  0.00    -0.350 A  
HETATM   39  N   UNL     1     -11.690  15.931  72.159  1.00  0.00    -0.465 NA 
HETATM   40  C   UNL     1     -11.575  15.230  68.131  1.00  0.00    -0.344 A  
HETATM   41  C   UNL     1     -12.159  14.320  69.039  1.00  0.00    -0.320 A  
HETATM   42  C   UNL     1     -12.190  14.619  70.419  1.00  0.00    -0.391 A  
ENDBRANCH  32  33
ENDBRANCH  27  32
ENDBRANCH  24  27
ENDBRANCH  11  23
ENDBRANCH   7  11
TORSDOF 8
ENDMDL
MODEL       77
REMARK 921   NORMALIZED FREE ENERGY PREDICTED BY IDOCK:   -7.13 KCAL/MOL
REMARK 922        TOTAL FREE ENERGY PREDICTED BY IDOCK:  -12.60 KCAL/MOL
REMARK 923 INTER-LIGAND FREE ENERGY PREDICTED BY IDOCK:   -8.94 KCAL/MOL
REMARK 924 INTRA-LIGAND FREE ENERGY PREDICTED BY IDOCK:   -3.66 KCAL/MOL
REMARK 927      BINDING AFFINITY PREDICTED BY RF-SCORE:    0.00 PKD
ROOT
HETATM    1  C   UNL     1     -11.443  12.933  63.859  1.00  0.00    -0.504 C  
HETATM    2  C   UNL     1     -11.498  13.628  65.234  1.00  0.00    -0.308 C  
HETATM    3  C   UNL     1     -10.798  12.725  66.457  1.00  0.00    -0.256 C  
HETATM    4  N   UNL     1     -12.937  13.849  65.561  1.00  0.00    -0.697 NA 
HETATM    5  C   UNL     1     -10.880  15.034  64.997  1.00  0.00    -0.439 C  
HETATM    6  H2  UNL     1     -13.490  12.992  65.525  1.00  0.00     0.000 HD 
HETATM    7  N   UNL     1     -11.614  11.809  67.131  1.00  0.00    -0.303 N  
HETATM    8  H1  UNL     1     -12.972  14.309  66.471  1.00  0.00     0.000 HD 
HETATM    9  O   UNL     1      -9.603  12.830  66.728  1.00  0.00    -0.230 OA 
HETATM   10  H   UNL     1     -12.602  11.925  66.908  1.00  0.00     0.000 HD 
ENDROOT
BRANCH   7  11
HETATM   11  C   UNL     1     -11.358  10.644  68.151  1.00  0.00    -0.284 C  
BRANCH  11  12
HETATM   12  C   UNL     1     -11.050  10.848  69.708  1.00  0.00    -0.328 C  
BRANCH  12  13
HETATM   13  C   UNL     1     -11.374   9.679  70.757  1.00  0.00    -0.409 A  
HETATM   14  C   UNL     1     -12.602   9.152  71.113  1.00  0.00    -0.233 A  
HETATM   15  C   UNL     1      -8.364   8.047  72.649  1.00  0.00    -0.221 A  
HETATM   16  C   UNL     1      -9.110   7.410  73.637  1.00  0.00    -0.273 A  
HETATM   17  C   UNL     1     -10.503   7.444  73.582  1.00  0.00    -0.350 A  
HETATM   18  N   UNL     1     -12.446   8.274  72.185  1.00  0.00    -0.359 NA 
HETATM   19  C   UNL     1      -8.995   8.797  71.634  1.00  0.00    -0.301 A  
HETATM   20  C   UNL     1     -10.409   8.913  71.583  1.00  0.00    -0.416 A  
HETATM   21  C   UNL     1     -11.120   8.170  72.528  1.00  0.00    -0.377 A  
HETATM   22  H   UNL     1     -13.208   7.781  72.649  1.00  0.00     0.000 HD 
ENDBRANCH  12  13
ENDBRANCH  11  12
BRANCH  11  23
HETATM   23  C   UNL     1     -10.428   9.621  67.445  1.00  0.00    -0.257 C  
HETATM   24  N   UNL     1      -9.071   9.875  67.471  1.00  0.00    -0.134 N  
HETATM   25  H   UNL     1      -8.708  10.629  68.055  1.00  0.00     0.000 HD 
HETATM   26  O   UNL     1     -10.909   8.673  66.818  1.00  0.00    -0.145 OA 
BRANCH  24  27
HETATM   27  C   UNL     1      -8.163   9.081  66.677  1.00  0.00    -0.118 C  
BRANCH  27  28
HETATM   28  N   UNL     1      -7.601   9.915  65.646  1.00  0.00    -0.113 N  
HETATM   29  O   UNL     1      -9.447   9.831  64.257  1.00  0.00    -0.263 OA 
HETATM   30  C   UNL     1      -8.316  10.219  64.510  1.00  0.00    -0.168 C  
HETATM   31  H   UNL     1      -6.658  10.287  65.760  1.00  0.00     0.000 HD 
ENDBRANCH  27  28
BRANCH  27  32
HETATM   32  C   UNL     1      -7.146   8.181  67.412  1.00  0.00    -0.083 C  
BRANCH  32  33
HETATM   33  C   UNL     1      -7.395   7.161  68.511  1.00  0.00    -0.100 A  
HETATM   34  C   UNL     1      -8.006   5.636  70.126  1.00  0.00    -0.099 A  
HETATM   35  H   UNL     1      -6.015   5.290  70.756  1.00  0.00     0.000 HD 
HETATM   36  C   UNL     1      -8.786   4.801  70.942  1.00  0.00    -0.135 A  
HETATM   37  C   UNL     1      -6.275   6.677  69.182  1.00  0.00    -0.030 A  
HETATM   38  C   UNL     1     -10.165   4.845  70.778  1.00  0.00    -0.276 A  
HETATM   39  N   UNL     1      -6.653   5.782  70.130  1.00  0.00    -0.045 NA 
HETATM   40  C   UNL     1     -10.731   5.700  69.834  1.00  0.00    -0.399 A  
HETATM   41  C   UNL     1      -9.931   6.523  69.012  1.00  0.00    -0.161 A  
HETATM   42  C   UNL     1      -8.525   6.500  69.142  1.00  0.00    -0.126 A  
ENDBRANCH  32  33
ENDBRANCH  27  32
ENDBRANCH  24  27
ENDBRANCH  11  23
ENDBRANCH   7  11
TORSDOF 8
ENDMDL
MODEL       78
REMARK 921   NORMALIZED FREE ENERGY PREDICTED BY IDOCK:   -7.12 KCAL/MOL
REMARK 922        TOTAL FREE ENERGY PREDICTED BY IDOCK:  -12.60 KCAL/MOL
REMARK 923 INTER-LIGAND FREE ENERGY PREDICTED BY IDOCK:  -10.78 KCAL/MOL
REMARK 924 INTRA-LIGAND FREE ENERGY PREDICTED BY IDOCK:   -1.82 KCAL/MOL
REMARK 927      BINDING AFFINITY PREDICTED BY RF-SCORE:    0.00 PKD
ROOT
HETATM    1  C   UNL     1     -14.408  15.094  71.634  1.00  0.00    -0.685 C  
HETATM    2  C   UNL     1     -12.923  14.682  71.633  1.00  0.00    -0.335 C  
HETATM    3  C   UNL     1     -12.093  15.210  70.278  1.00  0.00    -0.341 C  
HETATM    4  N   UNL     1     -12.877  13.191  71.673  1.00  0.00    -0.325 NA 
HETATM    5  C   UNL     1     -12.369  15.177  72.997  1.00  0.00    -0.510 C  
HETATM    6  H2  UNL     1     -13.413  12.755  70.923  1.00  0.00     0.000 HD 
HETATM    7  N   UNL     1     -12.100  14.379  69.152  1.00  0.00    -0.470 N  
HETATM    8  H1  UNL     1     -11.894  12.919  71.673  1.00  0.00     0.000 HD 
HETATM    9  O   UNL     1     -11.533  16.305  70.256  1.00  0.00    -0.341 OA 
HETATM   10  H   UNL     1     -12.473  13.451  69.351  1.00  0.00     0.000 HD 
ENDROOT
BRANCH   7  11
HETATM   11  C   UNL     1     -11.665  14.547  67.653  1.00  0.00    -0.382 C  
BRANCH  11  12
HETATM   12  C   UNL     1     -12.204  13.651  66.443  1.00  0.00    -0.472 C  
BRANCH  12  13
HETATM   13  C   UNL     1     -11.407  12.334  65.992  1.00  0.00    -0.398 A  
HETATM   14  C   UNL     1     -10.954  11.987  64.733  1.00  0.00    -0.311 A  
HETATM   15  C   UNL     1     -10.609   9.662  68.736  1.00  0.00    -0.242 A  
HETATM   16  C   UNL     1     -10.274   8.625  67.869  1.00  0.00    -0.273 A  
HETATM   17  C   UNL     1     -10.216   8.861  66.496  1.00  0.00    -0.319 A  
HETATM   18  N   UNL     1     -10.464  10.681  64.751  1.00  0.00    -0.287 NA 
HETATM   19  C   UNL     1     -10.969  10.933  68.240  1.00  0.00    -0.293 A  
HETATM   20  C   UNL     1     -10.989  11.194  66.844  1.00  0.00    -0.333 A  
HETATM   21  C   UNL     1     -10.542  10.159  66.021  1.00  0.00    -0.001 A  
HETATM   22  H   UNL     1     -10.101  10.183  63.939  1.00  0.00     0.000 HD 
ENDBRANCH  12  13
ENDBRANCH  11  12
BRANCH  11  23
HETATM   23  C   UNL     1     -10.128  14.765  67.651  1.00  0.00    -0.227 C  
HETATM   24  N   UNL     1      -9.417  14.279  68.731  1.00  0.00    -0.324 N  
HETATM   25  H   UNL     1      -9.881  13.683  69.416  1.00  0.00     0.000 HD 
HETATM   26  O   UNL     1      -9.595  15.424  66.753  1.00  0.00    -0.224 OA 
BRANCH  24  27
HETATM   27  C   UNL     1      -8.020  14.610  68.895  1.00  0.00    -0.149 C  
BRANCH  27  28
HETATM   28  N   UNL     1      -7.318  14.258  67.689  1.00  0.00    -0.165 N  
HETATM   29  O   UNL     1      -5.938  12.691  68.680  1.00  0.00    -0.060 OA 
HETATM   30  C   UNL     1      -6.322  13.307  67.698  1.00  0.00    -0.156 C  
HETATM   31  H   UNL     1      -7.562  14.720  66.813  1.00  0.00     0.000 HD 
ENDBRANCH  27  28
BRANCH  27  32
HETATM   32  C   UNL     1      -7.662  15.995  69.477  1.00  0.00    -0.080 C  
BRANCH  32  33
HETATM   33  C   UNL     1      -7.675  17.350  68.788  1.00  0.00    -0.258 A  
HETATM   34  C   UNL     1      -7.934  19.391  67.751  1.00  0.00    -0.286 A  
HETATM   35  H   UNL     1      -5.851  19.734  67.589  1.00  0.00     0.000 HD 
HETATM   36  C   UNL     1      -8.525  20.528  67.178  1.00  0.00    -0.357 A  
HETATM   37  C   UNL     1      -6.437  17.923  68.509  1.00  0.00    -0.211 A  
HETATM   38  C   UNL     1      -9.913  20.567  67.107  1.00  0.00    -0.512 A  
HETATM   39  N   UNL     1      -6.607  19.122  67.896  1.00  0.00    -0.222 NA 
HETATM   40  C   UNL     1     -10.668  19.499  67.590  1.00  0.00    -0.527 A  
HETATM   41  C   UNL     1     -10.057  18.369  68.174  1.00  0.00    -0.408 A  
HETATM   42  C   UNL     1      -8.651  18.296  68.273  1.00  0.00    -0.299 A  
ENDBRANCH  32  33
ENDBRANCH  27  32
ENDBRANCH  24  27
ENDBRANCH  11  23
ENDBRANCH   7  11
TORSDOF 8
ENDMDL
MODEL       79
REMARK 921   NORMALIZED FREE ENERGY PREDICTED BY IDOCK:   -7.11 KCAL/MOL
REMARK 922        TOTAL FREE ENERGY PREDICTED BY IDOCK:  -12.58 KCAL/MOL
REMARK 923 INTER-LIGAND FREE ENERGY PREDICTED BY IDOCK:  -10.71 KCAL/MOL
REMARK 924 INTRA-LIGAND FREE ENERGY PREDICTED BY IDOCK:   -1.87 KCAL/MOL
REMARK 927      BINDING AFFINITY PREDICTED BY RF-SCORE:    0.00 PKD
ROOT
HETATM    1  C   UNL     1      -7.162  13.655  69.012  1.00  0.00    -0.049 C  
HETATM    2  C   UNL     1      -6.982  12.137  68.823  1.00  0.00    -0.101 C  
HETATM    3  C   UNL     1      -8.382  11.364  68.327  1.00  0.00    -0.152 C  
HETATM    4  N   UNL     1      -6.563  11.573  70.139  1.00  0.00    -0.434 NA 
HETATM    5  C   UNL     1      -5.761  11.993  67.873  1.00  0.00    -0.059 C  
HETATM    6  H2  UNL     1      -7.205  11.808  70.897  1.00  0.00     0.000 HD 
HETATM    7  N   UNL     1      -9.260  10.917  69.321  1.00  0.00    -0.397 N  
HETATM    8  H1  UNL     1      -6.445  10.568  70.014  1.00  0.00     0.000 HD 
HETATM    9  O   UNL     1      -8.653  11.231  67.134  1.00  0.00    -0.139 OA 
HETATM   10  H   UNL     1      -8.852  10.962  70.254  1.00  0.00     0.000 HD 
ENDROOT
BRANCH   7  11
HETATM   11  C   UNL     1     -10.728  10.362  69.329  1.00  0.00    -0.237 C  
BRANCH  11  12
HETATM   12  C   UNL     1     -12.042  11.258  69.161  1.00  0.00    -0.348 C  
BRANCH  12  13
HETATM   13  C   UNL     1     -11.950  12.856  69.265  1.00  0.00    -0.313 A  
HETATM   14  C   UNL     1     -11.551  13.764  68.301  1.00  0.00    -0.338 A  
HETATM   15  C   UNL     1     -12.932  14.518  72.668  1.00  0.00    -0.538 A  
HETATM   16  C   UNL     1     -12.378  15.769  72.412  1.00  0.00    -0.548 A  
HETATM   17  C   UNL     1     -11.831  16.041  71.158  1.00  0.00    -0.465 A  
HETATM   18  N   UNL     1     -11.454  15.037  68.863  1.00  0.00    -0.297 NA 
HETATM   19  C   UNL     1     -12.881  13.491  71.702  1.00  0.00    -0.419 A  
HETATM   20  C   UNL     1     -12.272  13.706  70.437  1.00  0.00    -0.434 A  
HETATM   21  C   UNL     1     -11.827  15.005  70.185  1.00  0.00    -0.314 A  
HETATM   22  H   UNL     1     -11.150  15.872  68.363  1.00  0.00     0.000 HD 
ENDBRANCH  12  13
ENDBRANCH  11  12
BRANCH  11  23
HETATM   23  C   UNL     1     -10.810   9.318  70.475  1.00  0.00    -0.263 C  
HETATM   24  N   UNL     1     -11.945   8.534  70.539  1.00  0.00    -0.487 N  
HETATM   25  H   UNL     1     -12.621   8.558  69.776  1.00  0.00     0.000 HD 
HETATM   26  O   UNL     1      -9.925   9.267  71.334  1.00  0.00    -0.306 OA 
BRANCH  24  27
HETATM   27  C   UNL     1     -12.182   7.681  71.681  1.00  0.00    -0.317 C  
BRANCH  27  28
HETATM   28  N   UNL     1     -13.554   7.832  72.093  1.00  0.00    -0.521 N  
HETATM   29  O   UNL     1     -13.493  10.137  72.240  1.00  0.00    -0.398 OA 
HETATM   30  C   UNL     1     -14.090   9.076  72.336  1.00  0.00    -0.404 C  
HETATM   31  H   UNL     1     -14.137   7.003  72.206  1.00  0.00     0.000 HD 
ENDBRANCH  27  28
BRANCH  27  32
HETATM   32  C   UNL     1     -11.677   6.224  71.620  1.00  0.00    -0.342 C  
BRANCH  32  33
HETATM   33  C   UNL     1     -10.764   5.573  70.594  1.00  0.00    -0.303 A  
HETATM   34  C   UNL     1      -9.488   4.723  68.873  1.00  0.00    -0.146 A  
HETATM   35  H   UNL     1      -8.384   3.434  70.138  1.00  0.00     0.000 HD 
HETATM   36  C   UNL     1      -8.962   4.497  67.591  1.00  0.00    -0.129 A  
HETATM   37  C   UNL     1      -9.856   4.631  71.070  1.00  0.00    -0.198 A  
HETATM   38  C   UNL     1      -9.531   5.191  66.530  1.00  0.00    -0.153 A  
HETATM   39  N   UNL     1      -9.115   4.139  70.045  1.00  0.00    -0.102 NA 
HETATM   40  C   UNL     1     -10.589   6.070  66.754  1.00  0.00    -0.359 A  
HETATM   41  C   UNL     1     -11.097   6.295  68.052  1.00  0.00    -0.365 A  
HETATM   42  C   UNL     1     -10.540   5.616  69.158  1.00  0.00    -0.334 A  
ENDBRANCH  32  33
ENDBRANCH  27  32
ENDBRANCH  24  27
ENDBRANCH  11  23
ENDBRANCH   7  11
TORSDOF 8
ENDMDL
MODEL       80
REMARK 921   NORMALIZED FREE ENERGY PREDICTED BY IDOCK:   -7.10 KCAL/MOL
REMARK 922        TOTAL FREE ENERGY PREDICTED BY IDOCK:  -12.56 KCAL/MOL
REMARK 923 INTER-LIGAND FREE ENERGY PREDICTED BY IDOCK:  -10.85 KCAL/MOL
REMARK 924 INTRA-LIGAND FREE ENERGY PREDICTED BY IDOCK:   -1.72 KCAL/MOL
REMARK 927      BINDING AFFINITY PREDICTED BY RF-SCORE:    0.00 PKD
ROOT
HETATM    1  C   UNL     1     -10.390  14.374  64.589  1.00  0.00    -0.215 C  
HETATM    2  C   UNL     1     -11.037  13.013  64.266  1.00  0.00    -0.385 C  
HETATM    3  C   UNL     1     -11.716  12.272  65.605  1.00  0.00    -0.382 C  
HETATM    4  N   UNL     1      -9.963  12.132  63.721  1.00  0.00    -0.545 NA 
HETATM    5  C   UNL     1     -12.010  13.301  63.090  1.00  0.00    -0.179 C  
HETATM    6  H2  UNL     1      -9.157  12.054  64.342  1.00  0.00     0.000 HD 
HETATM    7  N   UNL     1     -10.887  11.450  66.377  1.00  0.00    -0.277 N  
HETATM    8  H1  UNL     1     -10.392  11.231  63.507  1.00  0.00     0.000 HD 
HETATM    9  O   UNL     1     -12.887  12.473  65.924  1.00  0.00    -0.197 OA 
HETATM   10  H   UNL     1      -9.993  11.258  65.926  1.00  0.00     0.000 HD 
ENDROOT
BRANCH   7  11
HETATM   11  C   UNL     1     -11.018  10.754  67.778  1.00  0.00    -0.297 C  
BRANCH  11  12
HETATM   12  C   UNL     1     -10.833  11.496  69.183  1.00  0.00    -0.241 C  
BRANCH  12  13
HETATM   13  C   UNL     1     -11.414  12.975  69.400  1.00  0.00    -0.323 A  
HETATM   14  C   UNL     1     -11.195  14.110  68.643  1.00  0.00    -0.266 A  
HETATM   15  C   UNL     1     -13.754  13.577  72.478  1.00  0.00    -0.664 A  
HETATM   16  C   UNL     1     -13.701  14.968  72.461  1.00  0.00    -0.572 A  
HETATM   17  C   UNL     1     -13.028  15.623  71.430  1.00  0.00    -0.555 A  
HETATM   18  N   UNL     1     -11.750  15.219  69.281  1.00  0.00    -0.320 NA 
HETATM   19  C   UNL     1     -13.070  12.814  71.508  1.00  0.00    -0.380 A  
HETATM   20  C   UNL     1     -12.316  13.442  70.481  1.00  0.00    -0.401 A  
HETATM   21  C   UNL     1     -12.380  14.836  70.440  1.00  0.00    -0.344 A  
HETATM   22  H   UNL     1     -11.695  16.177  68.937  1.00  0.00     0.000 HD 
ENDBRANCH  12  13
ENDBRANCH  11  12
BRANCH  11  23
HETATM   23  C   UNL     1     -10.286   9.389  67.675  1.00  0.00    -0.246 C  
HETATM   24  N   UNL     1     -10.807   8.455  66.802  1.00  0.00    -0.255 N  
HETATM   25  H   UNL     1     -11.553   8.723  66.160  1.00  0.00     0.000 HD 
HETATM   26  O   UNL     1      -9.331   9.138  68.416  1.00  0.00    -0.135 OA 
BRANCH  24  27
HETATM   27  C   UNL     1     -10.302   7.101  66.792  1.00  0.00    -0.227 C  
BRANCH  27  28
HETATM   28  N   UNL     1      -8.863   7.147  66.773  1.00  0.00    -0.125 N  
HETATM   29  O   UNL     1      -8.597   5.296  65.415  1.00  0.00    -0.138 OA 
HETATM   30  C   UNL     1      -8.132   6.218  66.067  1.00  0.00    -0.119 C  
HETATM   31  H   UNL     1      -8.377   7.878  67.292  1.00  0.00     0.000 HD 
ENDBRANCH  27  28
BRANCH  27  32
HETATM   32  C   UNL     1     -10.909   6.089  67.788  1.00  0.00    -0.380 C  
BRANCH  32  33
HETATM   33  C   UNL     1     -10.711   5.995  69.292  1.00  0.00    -0.401 A  
HETATM   34  C   UNL     1     -10.525   6.064  71.587  1.00  0.00    -0.228 A  
HETATM   35  H   UNL     1      -9.499   4.215  71.702  1.00  0.00     0.000 HD 
HETATM   36  C   UNL     1     -10.637   6.489  72.920  1.00  0.00    -0.267 A  
HETATM   37  C   UNL     1     -10.049   4.866  69.768  1.00  0.00    -0.249 A  
HETATM   38  C   UNL     1     -11.245   7.717  73.156  1.00  0.00    -0.311 A  
HETATM   39  N   UNL     1      -9.946   4.924  71.120  1.00  0.00    -0.197 NA 
HETATM   40  C   UNL     1     -11.713   8.483  72.089  1.00  0.00    -0.448 A  
HETATM   41  C   UNL     1     -11.603   8.033  70.756  1.00  0.00    -0.251 A  
HETATM   42  C   UNL     1     -11.001   6.787  70.476  1.00  0.00    -0.327 A  
ENDBRANCH  32  33
ENDBRANCH  27  32
ENDBRANCH  24  27
ENDBRANCH  11  23
ENDBRANCH   7  11
TORSDOF 8
ENDMDL
MODEL       81
REMARK 921   NORMALIZED FREE ENERGY PREDICTED BY IDOCK:   -7.09 KCAL/MOL
REMARK 922        TOTAL FREE ENERGY PREDICTED BY IDOCK:  -12.55 KCAL/MOL
REMARK 923 INTER-LIGAND FREE ENERGY PREDICTED BY IDOCK:  -11.29 KCAL/MOL
REMARK 924 INTRA-LIGAND FREE ENERGY PREDICTED BY IDOCK:   -1.25 KCAL/MOL
REMARK 927      BINDING AFFINITY PREDICTED BY RF-SCORE:    0.00 PKD
ROOT
HETATM    1  C   UNL     1      -5.251  10.240  67.880  1.00  0.00    -0.034 C  
HETATM    2  C   UNL     1      -5.813  11.555  67.307  1.00  0.00    -0.095 C  
HETATM    3  C   UNL     1      -7.472  11.521  67.085  1.00  0.00    -0.142 C  
HETATM    4  N   UNL     1      -5.156  11.781  65.988  1.00  0.00    -0.450 NA 
HETATM    5  C   UNL     1      -5.284  12.664  68.259  1.00  0.00    -0.065 C  
HETATM    6  H2  UNL     1      -5.260  10.991  65.350  1.00  0.00     0.000 HD 
HETATM    7  N   UNL     1      -7.950  11.039  65.861  1.00  0.00    -0.315 N  
HETATM    8  H1  UNL     1      -5.528  12.652  65.609  1.00  0.00     0.000 HD 
HETATM    9  O   UNL     1      -8.246  11.867  67.977  1.00  0.00    -0.140 OA 
HETATM   10  H   UNL     1      -7.210  10.923  65.169  1.00  0.00     0.000 HD 
ENDROOT
BRANCH   7  11
HETATM   11  C   UNL     1      -9.362  10.635  65.309  1.00  0.00    -0.214 C  
BRANCH  11  12
HETATM   12  C   UNL     1     -10.031  11.241  63.989  1.00  0.00    -0.362 C  
BRANCH  12  13
HETATM   13  C   UNL     1     -10.870  12.606  64.061  1.00  0.00    -0.452 A  
HETATM   14  C   UNL     1     -12.093  12.901  63.487  1.00  0.00    -0.555 A  
HETATM   15  C   UNL     1      -9.332  15.583  66.081  1.00  0.00    -0.380 A  
HETATM   16  C   UNL     1     -10.169  16.577  65.581  1.00  0.00    -0.316 A  
HETATM   17  C   UNL     1     -11.221  16.234  64.733  1.00  0.00    -0.267 A  
HETATM   18  N   UNL     1     -12.378  14.256  63.654  1.00  0.00    -1.109 NA 
HETATM   19  C   UNL     1      -9.483  14.239  65.680  1.00  0.00    -0.018 A  
HETATM   20  C   UNL     1     -10.500  13.859  64.764  1.00  0.00    -0.451 A  
HETATM   21  C   UNL     1     -11.381  14.869  64.374  1.00  0.00    -0.201 A  
HETATM   22  H   UNL     1     -13.209  14.725  63.293  1.00  0.00     0.000 HD 
ENDBRANCH  12  13
ENDBRANCH  11  12
BRANCH  11  23
HETATM   23  C   UNL     1     -10.318  10.552  66.529  1.00  0.00    -0.233 C  
HETATM   24  N   UNL     1     -10.792  11.743  67.044  1.00  0.00    -0.249 N  
HETATM   25  H   UNL     1     -10.624  12.614  66.542  1.00  0.00     0.000 HD 
HETATM   26  O   UNL     1     -10.561   9.463  67.056  1.00  0.00    -0.251 OA 
BRANCH  24  27
HETATM   27  C   UNL     1     -11.525  11.760  68.289  1.00  0.00    -0.307 C  
BRANCH  27  28
HETATM   28  N   UNL     1     -10.638  11.361  69.352  1.00  0.00    -0.424 N  
HETATM   29  O   UNL     1     -12.282  10.421  70.676  1.00  0.00    -0.295 OA 
HETATM   30  C   UNL     1     -11.114  10.712  70.468  1.00  0.00    -0.094 C  
HETATM   31  H   UNL     1      -9.641  11.563  69.276  1.00  0.00     0.000 HD 
ENDBRANCH  27  28
BRANCH  27  32
HETATM   32  C   UNL     1     -12.402  12.991  68.602  1.00  0.00     0.165 C  
BRANCH  32  33
HETATM   33  C   UNL     1     -12.129  14.138  69.562  1.00  0.00    -0.388 A  
HETATM   34  C   UNL     1     -11.827  15.745  71.186  1.00  0.00    -0.425 A  
HETATM   35  H   UNL     1     -10.815  17.073  69.885  1.00  0.00     0.000 HD 
HETATM   36  C   UNL     1     -11.854  16.412  72.421  1.00  0.00    -0.548 A  
HETATM   37  C   UNL     1     -11.449  15.238  69.048  1.00  0.00    -0.324 A  
HETATM   38  C   UNL     1     -12.503  15.784  73.478  1.00  0.00    -0.666 A  
HETATM   39  N   UNL     1     -11.281  16.176  70.016  1.00  0.00    -0.354 NA 
HETATM   40  C   UNL     1     -13.102  14.539  73.292  1.00  0.00    -0.440 A  
HETATM   41  C   UNL     1     -13.053  13.877  72.046  1.00  0.00    -0.480 A  
HETATM   42  C   UNL     1     -12.396  14.478  70.950  1.00  0.00    -0.415 A  
ENDBRANCH  32  33
ENDBRANCH  27  32
ENDBRANCH  24  27
ENDBRANCH  11  23
ENDBRANCH   7  11
TORSDOF 8
ENDMDL
MODEL       82
REMARK 921   NORMALIZED FREE ENERGY PREDICTED BY IDOCK:   -7.09 KCAL/MOL
REMARK 922        TOTAL FREE ENERGY PREDICTED BY IDOCK:  -12.54 KCAL/MOL
REMARK 923 INTER-LIGAND FREE ENERGY PREDICTED BY IDOCK:  -10.84 KCAL/MOL
REMARK 924 INTRA-LIGAND FREE ENERGY PREDICTED BY IDOCK:   -1.70 KCAL/MOL
REMARK 927      BINDING AFFINITY PREDICTED BY RF-SCORE:    0.00 PKD
ROOT
HETATM    1  C   UNL     1     -10.787  12.726  63.739  1.00  0.00    -0.416 C  
HETATM    2  C   UNL     1     -11.855  13.274  64.704  1.00  0.00    -0.378 C  
HETATM    3  C   UNL     1     -11.342  13.321  66.297  1.00  0.00    -0.309 C  
HETATM    4  N   UNL     1     -13.042  12.375  64.608  1.00  0.00    -0.786 NA 
HETATM    5  C   UNL     1     -12.284  14.637  64.095  1.00  0.00    -0.343 C  
HETATM    6  H2  UNL     1     -12.815  11.395  64.778  1.00  0.00     0.000 HD 
HETATM    7  N   UNL     1     -11.541  12.174  67.074  1.00  0.00    -0.349 N  
HETATM    8  H1  UNL     1     -13.749  12.738  65.247  1.00  0.00     0.000 HD 
HETATM    9  O   UNL     1     -10.774  14.310  66.759  1.00  0.00    -0.282 OA 
HETATM   10  H   UNL     1     -12.144  11.490  66.617  1.00  0.00     0.000 HD 
ENDROOT
BRANCH   7  11
HETATM   11  C   UNL     1     -11.050  11.698  68.487  1.00  0.00    -0.235 C  
BRANCH  11  12
HETATM   12  C   UNL     1     -11.907  11.807  69.833  1.00  0.00    -0.423 C  
BRANCH  12  13
HETATM   13  C   UNL     1     -12.178  10.504  70.728  1.00  0.00    -0.468 A  
HETATM   14  C   UNL     1     -13.371  10.055  71.262  1.00  0.00    -0.330 A  
HETATM   15  C   UNL     1      -9.116   8.233  71.607  1.00  0.00    -0.242 A  
HETATM   16  C   UNL     1      -9.731   7.506  72.622  1.00  0.00    -0.229 A  
HETATM   17  C   UNL     1     -11.086   7.699  72.890  1.00  0.00    -0.448 A  
HETATM   18  N   UNL     1     -13.130   8.980  72.118  1.00  0.00    -0.402 NA 
HETATM   19  C   UNL     1      -9.824   9.222  70.893  1.00  0.00    -0.363 A  
HETATM   20  C   UNL     1     -11.188   9.497  71.182  1.00  0.00    -0.446 A  
HETATM   21  C   UNL     1     -11.791   8.671  72.131  1.00  0.00    -0.377 A  
HETATM   22  H   UNL     1     -13.846   8.493  72.656  1.00  0.00     0.000 HD 
ENDBRANCH  12  13
ENDBRANCH  11  12
BRANCH  11  23
HETATM   23  C   UNL     1      -9.574  12.157  68.630  1.00  0.00    -0.060 C  
HETATM   24  N   UNL     1      -9.351  13.478  68.964  1.00  0.00    -0.369 N  
HETATM   25  H   UNL     1     -10.135  14.070  69.239  1.00  0.00     0.000 HD 
HETATM   26  O   UNL     1      -8.653  11.379  68.367  1.00  0.00    -0.146 OA 
BRANCH  24  27
HETATM   27  C   UNL     1      -8.015  14.026  68.926  1.00  0.00    -0.025 C  
BRANCH  27  28
HETATM   28  N   UNL     1      -7.501  13.896  67.587  1.00  0.00    -0.163 N  
HETATM   29  O   UNL     1      -5.409  13.145  68.221  1.00  0.00    -0.074 OA 
HETATM   30  C   UNL     1      -6.218  13.454  67.359  1.00  0.00     0.048 C  
HETATM   31  H   UNL     1      -8.098  14.135  66.796  1.00  0.00     0.000 HD 
ENDBRANCH  27  28
BRANCH  27  32
HETATM   32  C   UNL     1      -7.771  15.401  69.586  1.00  0.00    -0.156 C  
BRANCH  32  33
HETATM   33  C   UNL     1      -7.790  16.781  68.950  1.00  0.00    -0.244 A  
HETATM   34  C   UNL     1      -8.057  18.852  67.976  1.00  0.00    -0.292 A  
HETATM   35  H   UNL     1      -5.981  19.265  67.947  1.00  0.00     0.000 HD 
HETATM   36  C   UNL     1      -8.652  19.992  67.413  1.00  0.00    -0.403 A  
HETATM   37  C   UNL     1      -6.558  17.402  68.763  1.00  0.00    -0.206 A  
HETATM   38  C   UNL     1     -10.034  19.991  67.265  1.00  0.00    -0.574 A  
HETATM   39  N   UNL     1      -6.733  18.619  68.187  1.00  0.00    -0.220 NA 
HETATM   40  C   UNL     1     -10.780  18.883  67.663  1.00  0.00    -0.469 A  
HETATM   41  C   UNL     1     -10.166  17.750  68.239  1.00  0.00    -0.382 A  
HETATM   42  C   UNL     1      -8.766  17.716  68.415  1.00  0.00    -0.284 A  
ENDBRANCH  32  33
ENDBRANCH  27  32
ENDBRANCH  24  27
ENDBRANCH  11  23
ENDBRANCH   7  11
TORSDOF 8
ENDMDL
MODEL       83
REMARK 921   NORMALIZED FREE ENERGY PREDICTED BY IDOCK:   -7.07 KCAL/MOL
REMARK 922        TOTAL FREE ENERGY PREDICTED BY IDOCK:  -12.52 KCAL/MOL
REMARK 923 INTER-LIGAND FREE ENERGY PREDICTED BY IDOCK:   -9.44 KCAL/MOL
REMARK 924 INTRA-LIGAND FREE ENERGY PREDICTED BY IDOCK:   -3.08 KCAL/MOL
REMARK 927      BINDING AFFINITY PREDICTED BY RF-SCORE:    0.00 PKD
ROOT
HETATM    1  C   UNL     1     -11.970  10.056  71.044  1.00  0.00    -0.469 C  
HETATM    2  C   UNL     1     -11.047   8.833  70.880  1.00  0.00    -0.268 C  
HETATM    3  C   UNL     1      -9.560   9.214  70.212  1.00  0.00    -0.213 C  
HETATM    4  N   UNL     1     -11.745   7.869  69.980  1.00  0.00    -0.443 NA 
HETATM    5  C   UNL     1     -11.005   8.172  72.286  1.00  0.00    -0.399 C  
HETATM    6  H2  UNL     1     -12.022   8.283  69.090  1.00  0.00     0.000 HD 
HETATM    7  N   UNL     1      -9.458   9.206  68.816  1.00  0.00    -0.146 N  
HETATM    8  H1  UNL     1     -11.134   7.060  69.872  1.00  0.00     0.000 HD 
HETATM    9  O   UNL     1      -8.603   9.531  70.918  1.00  0.00    -0.259 OA 
HETATM   10  H   UNL     1     -10.273   8.792  68.365  1.00  0.00     0.000 HD 
ENDROOT
BRANCH   7  11
HETATM   11  C   UNL     1      -8.377   9.687  67.786  1.00  0.00    -0.121 C  
BRANCH  11  12
HETATM   12  C   UNL     1      -7.447  10.974  67.976  1.00  0.00    -0.090 C  
BRANCH  12  13
HETATM   13  C   UNL     1      -8.098  12.400  68.316  1.00  0.00    -0.166 A  
HETATM   14  C   UNL     1      -7.470  13.562  68.724  1.00  0.00    -0.071 A  
HETATM   15  C   UNL     1     -11.983  12.744  68.013  1.00  0.00    -0.315 A  
HETATM   16  C   UNL     1     -12.102  13.943  68.712  1.00  0.00    -0.344 A  
HETATM   17  C   UNL     1     -10.955  14.614  69.135  1.00  0.00    -0.277 A  
HETATM   18  N   UNL     1      -8.425  14.516  69.076  1.00  0.00    -0.319 NA 
HETATM   19  C   UNL     1     -10.720  12.155  67.794  1.00  0.00    -0.241 A  
HETATM   20  C   UNL     1      -9.533  12.773  68.269  1.00  0.00    -0.203 A  
HETATM   21  C   UNL     1      -9.691  14.024  68.868  1.00  0.00    -0.043 A  
HETATM   22  H   UNL     1      -8.213  15.446  69.437  1.00  0.00     0.000 HD 
ENDBRANCH  12  13
ENDBRANCH  11  12
BRANCH  11  23
HETATM   23  C   UNL     1      -9.010   9.560  66.374  1.00  0.00    -0.154 C  
HETATM   24  N   UNL     1      -8.604  10.465  65.414  1.00  0.00    -0.168 N  
HETATM   25  H   UNL     1      -7.819  11.088  65.604  1.00  0.00     0.000 HD 
HETATM   26  O   UNL     1      -9.901   8.732  66.165  1.00  0.00    -0.267 OA 
BRANCH  24  27
HETATM   27  C   UNL     1      -9.284  10.535  64.141  1.00  0.00    -0.249 C  
BRANCH  27  28
HETATM   28  N   UNL     1      -9.121   9.275  63.462  1.00  0.00    -0.414 N  
HETATM   29  O   UNL     1      -6.865   9.539  63.035  1.00  0.00    -0.098 OA 
HETATM   30  C   UNL     1      -7.897   8.889  62.964  1.00  0.00    -0.133 C  
HETATM   31  H   UNL     1      -9.926   8.660  63.347  1.00  0.00     0.000 HD 
ENDBRANCH  27  28
BRANCH  27  32
HETATM   32  C   UNL     1     -10.715  11.112  64.109  1.00  0.00    -0.415 C  
BRANCH  32  33
HETATM   33  C   UNL     1     -11.159  12.565  64.152  1.00  0.00    -0.426 A  
HETATM   34  C   UNL     1     -11.628  14.814  64.334  1.00  0.00    -0.295 A  
HETATM   35  H   UNL     1     -13.480  14.656  63.321  1.00  0.00     0.000 HD 
HETATM   36  C   UNL     1     -11.512  16.177  64.648  1.00  0.00    -0.225 A  
HETATM   37  C   UNL     1     -12.382  12.865  63.556  1.00  0.00    -0.434 A  
HETATM   38  C   UNL     1     -10.390  16.580  65.364  1.00  0.00    -0.246 A  
HETATM   39  N   UNL     1     -12.643  14.192  63.674  1.00  0.00    -0.778 NA 
HETATM   40  C   UNL     1      -9.432  15.644  65.749  1.00  0.00    -0.338 A  
HETATM   41  C   UNL     1      -9.559  14.279  65.413  1.00  0.00     0.012 A  
HETATM   42  C   UNL     1     -10.679  13.831  64.679  1.00  0.00    -0.427 A  
ENDBRANCH  32  33
ENDBRANCH  27  32
ENDBRANCH  24  27
ENDBRANCH  11  23
ENDBRANCH   7  11
TORSDOF 8
ENDMDL
MODEL       84
REMARK 921   NORMALIZED FREE ENERGY PREDICTED BY IDOCK:   -7.03 KCAL/MOL
REMARK 922        TOTAL FREE ENERGY PREDICTED BY IDOCK:  -12.47 KCAL/MOL
REMARK 923 INTER-LIGAND FREE ENERGY PREDICTED BY IDOCK:  -10.39 KCAL/MOL
REMARK 924 INTRA-LIGAND FREE ENERGY PREDICTED BY IDOCK:   -2.08 KCAL/MOL
REMARK 927      BINDING AFFINITY PREDICTED BY RF-SCORE:    0.00 PKD
ROOT
HETATM    1  C   UNL     1     -11.015   6.054  69.006  1.00  0.00    -0.409 C  
HETATM    2  C   UNL     1     -10.403   6.215  67.601  1.00  0.00    -0.201 C  
HETATM    3  C   UNL     1      -9.052   7.203  67.580  1.00  0.00    -0.123 C  
HETATM    4  N   UNL     1     -11.452   6.816  66.727  1.00  0.00    -0.653 NA 
HETATM    5  C   UNL     1     -10.184   4.763  67.091  1.00  0.00    -0.181 C  
HETATM    6  H2  UNL     1     -11.831   7.688  67.100  1.00  0.00     0.000 HD 
HETATM    7  N   UNL     1      -9.259   8.577  67.409  1.00  0.00    -0.139 N  
HETATM    8  H1  UNL     1     -11.047   6.923  65.797  1.00  0.00     0.000 HD 
HETATM    9  O   UNL     1      -7.922   6.747  67.750  1.00  0.00    -0.110 OA 
HETATM   10  H   UNL     1     -10.217   8.799  67.140  1.00  0.00     0.000 HD 
ENDROOT
BRANCH   7  11
HETATM   11  C   UNL     1      -8.356   9.854  67.537  1.00  0.00    -0.114 C  
BRANCH  11  12
HETATM   12  C   UNL     1      -7.597  10.302  68.871  1.00  0.00    -0.094 C  
BRANCH  12  13
HETATM   13  C   UNL     1      -7.926   9.587  70.269  1.00  0.00    -0.190 A  
HETATM   14  C   UNL     1      -7.048   9.088  71.213  1.00  0.00    -0.079 A  
HETATM   15  C   UNL     1     -11.689   9.107  71.225  1.00  0.00    -0.396 A  
HETATM   16  C   UNL     1     -11.487   8.185  72.249  1.00  0.00    -0.435 A  
HETATM   17  C   UNL     1     -10.190   7.859  72.641  1.00  0.00    -0.361 A  
HETATM   18  N   UNL     1      -7.754   8.395  72.196  1.00  0.00    -0.169 NA 
HETATM   19  C   UNL     1     -10.598   9.660  70.522  1.00  0.00    -0.369 A  
HETATM   20  C   UNL     1      -9.263   9.301  70.846  1.00  0.00    -0.300 A  
HETATM   21  C   UNL     1      -9.104   8.459  71.947  1.00  0.00    -0.221 A  
HETATM   22  H   UNL     1      -7.330   7.910  72.985  1.00  0.00     0.000 HD 
ENDBRANCH  12  13
ENDBRANCH  11  12
BRANCH  11  23
HETATM   23  C   UNL     1      -9.096  11.006  66.806  1.00  0.00    -0.162 C  
HETATM   24  N   UNL     1      -9.172  12.223  67.454  1.00  0.00    -0.176 N  
HETATM   25  H   UNL     1      -8.637  12.375  68.309  1.00  0.00     0.000 HD 
HETATM   26  O   UNL     1      -9.661  10.797  65.728  1.00  0.00    -0.189 OA 
BRANCH  24  27
HETATM   27  C   UNL     1     -10.005  13.280  66.930  1.00  0.00    -0.250 C  
BRANCH  27  28
HETATM   28  N   UNL     1     -10.943  13.676  67.948  1.00  0.00    -0.254 N  
HETATM   29  O   UNL     1     -12.189  11.731  67.875  1.00  0.00    -0.538 OA 
HETATM   30  C   UNL     1     -11.968  12.842  68.334  1.00  0.00    -0.231 C  
HETATM   31  H   UNL     1     -10.847  14.589  68.391  1.00  0.00     0.000 HD 
ENDBRANCH  27  28
BRANCH  27  32
HETATM   32  C   UNL     1      -9.321  14.447  66.186  1.00  0.00    -0.221 C  
BRANCH  32  33
HETATM   33  C   UNL     1      -9.842  15.852  65.931  1.00  0.00    -0.383 A  
HETATM   34  C   UNL     1     -10.494  18.052  65.728  1.00  0.00    -0.198 A  
HETATM   35  H   UNL     1     -11.782  17.669  64.093  1.00  0.00     0.000 HD 
HETATM   36  C   UNL     1     -10.603  19.435  65.948  1.00  0.00    -0.551 A  
HETATM   37  C   UNL     1     -10.748  16.004  64.885  1.00  0.00    -0.316 A  
HETATM   38  C   UNL     1      -9.884  19.978  67.006  1.00  0.00    -0.566 A  
HETATM   39  N   UNL     1     -11.124  17.305  64.781  1.00  0.00    -0.920 NA 
HETATM   40  C   UNL     1      -9.095  19.157  67.811  1.00  0.00    -0.344 A  
HETATM   41  C   UNL     1      -8.987  17.771  67.567  1.00  0.00    -0.244 A  
HETATM   42  C   UNL     1      -9.694  17.183  66.496  1.00  0.00    -0.299 A  
ENDBRANCH  32  33
ENDBRANCH  27  32
ENDBRANCH  24  27
ENDBRANCH  11  23
ENDBRANCH   7  11
TORSDOF 8
ENDMDL
MODEL       85
REMARK 921   NORMALIZED FREE ENERGY PREDICTED BY IDOCK:   -7.01 KCAL/MOL
REMARK 922        TOTAL FREE ENERGY PREDICTED BY IDOCK:  -12.43 KCAL/MOL
REMARK 923 INTER-LIGAND FREE ENERGY PREDICTED BY IDOCK:   -8.53 KCAL/MOL
REMARK 924 INTRA-LIGAND FREE ENERGY PREDICTED BY IDOCK:   -3.91 KCAL/MOL
REMARK 927      BINDING AFFINITY PREDICTED BY RF-SCORE:    0.00 PKD
ROOT
HETATM    1  C   UNL     1     -12.893  15.602  70.398  1.00  0.00    -0.252 C  
HETATM    2  C   UNL     1     -11.636  14.984  69.755  1.00  0.00    -0.304 C  
HETATM    3  C   UNL     1     -11.847  13.388  69.297  1.00  0.00    -0.334 C  
HETATM    4  N   UNL     1     -10.542  15.053  70.767  1.00  0.00    -0.523 NA 
HETATM    5  C   UNL     1     -11.245  15.965  68.615  1.00  0.00    -0.360 C  
HETATM    6  H2  UNL     1     -10.791  14.618  71.655  1.00  0.00     0.000 HD 
HETATM    7  N   UNL     1     -11.578  12.401  70.253  1.00  0.00    -0.530 N  
HETATM    8  H1  UNL     1      -9.710  14.644  70.341  1.00  0.00     0.000 HD 
HETATM    9  O   UNL     1     -12.263  13.091  68.178  1.00  0.00    -0.226 OA 
HETATM   10  H   UNL     1     -11.110  12.772  71.079  1.00  0.00     0.000 HD 
ENDROOT
BRANCH   7  11
HETATM   11  C   UNL     1     -11.831  10.855  70.345  1.00  0.00    -0.357 C  
BRANCH  11  12
HETATM   12  C   UNL     1     -12.303  10.086  71.665  1.00  0.00    -0.486 C  
BRANCH  12  13
HETATM   13  C   UNL     1     -12.040   8.512  71.824  1.00  0.00    -0.391 A  
HETATM   14  C   UNL     1     -12.825   7.457  71.397  1.00  0.00    -0.365 A  
HETATM   15  C   UNL     1      -8.785   7.389  73.681  1.00  0.00    -0.228 A  
HETATM   16  C   UNL     1      -9.155   6.063  73.884  1.00  0.00    -0.127 A  
HETATM   17  C   UNL     1     -10.344   5.584  73.336  1.00  0.00    -0.243 A  
HETATM   18  N   UNL     1     -12.313   6.257  71.891  1.00  0.00    -0.291 NA 
HETATM   19  C   UNL     1      -9.634   8.281  72.993  1.00  0.00    -0.295 A  
HETATM   20  C   UNL     1     -10.885   7.849  72.478  1.00  0.00    -0.403 A  
HETATM   21  C   UNL     1     -11.165   6.489  72.611  1.00  0.00    -0.249 A  
HETATM   22  H   UNL     1     -12.731   5.340  71.740  1.00  0.00     0.000 HD 
ENDBRANCH  12  13
ENDBRANCH  11  12
BRANCH  11  23
HETATM   23  C   UNL     1     -10.671  10.161  69.582  1.00  0.00    -0.264 C  
HETATM   24  N   UNL     1      -9.382  10.473  69.969  1.00  0.00    -0.293 N  
HETATM   25  H   UNL     1      -9.226  11.025  70.812  1.00  0.00     0.000 HD 
HETATM   26  O   UNL     1     -10.910   9.431  68.616  1.00  0.00    -0.195 OA 
BRANCH  24  27
HETATM   27  C   UNL     1      -8.254  10.022  69.187  1.00  0.00    -0.137 C  
BRANCH  27  28
HETATM   28  N   UNL     1      -7.663  11.160  68.531  1.00  0.00    -0.121 N  
HETATM   29  O   UNL     1      -9.000  11.056  66.649  1.00  0.00    -0.159 OA 
HETATM   30  C   UNL     1      -8.106  11.579  67.297  1.00  0.00    -0.153 C  
HETATM   31  H   UNL     1      -6.904  11.664  68.989  1.00  0.00     0.000 HD 
ENDBRANCH  27  28
BRANCH  27  32
HETATM   32  C   UNL     1      -7.248   9.056  69.847  1.00  0.00    -0.058 C  
BRANCH  32  33
HETATM   33  C   UNL     1      -7.414   7.580  70.172  1.00  0.00    -0.086 A  
HETATM   34  C   UNL     1      -7.872   5.352  70.539  1.00  0.00    -0.093 A  
HETATM   35  H   UNL     1      -6.117   5.032  71.678  1.00  0.00     0.000 HD 
HETATM   36  C   UNL     1      -8.508   4.101  70.510  1.00  0.00    -0.095 A  
HETATM   37  C   UNL     1      -6.411   6.989  70.935  1.00  0.00    -0.044 A  
HETATM   38  C   UNL     1      -9.729   4.014  69.852  1.00  0.00    -0.263 A  
HETATM   39  N   UNL     1      -6.697   5.678  71.144  1.00  0.00    -0.051 NA 
HETATM   40  C   UNL     1     -10.285   5.144  69.255  1.00  0.00    -0.276 A  
HETATM   41  C   UNL     1      -9.625   6.391  69.283  1.00  0.00    -0.145 A  
HETATM   42  C   UNL     1      -8.378   6.519  69.933  1.00  0.00    -0.131 A  
ENDBRANCH  32  33
ENDBRANCH  27  32
ENDBRANCH  24  27
ENDBRANCH  11  23
ENDBRANCH   7  11
TORSDOF 8
ENDMDL
MODEL       86
REMARK 921   NORMALIZED FREE ENERGY PREDICTED BY IDOCK:   -7.01 KCAL/MOL
REMARK 922        TOTAL FREE ENERGY PREDICTED BY IDOCK:  -12.43 KCAL/MOL
REMARK 923 INTER-LIGAND FREE ENERGY PREDICTED BY IDOCK:  -10.12 KCAL/MOL
REMARK 924 INTRA-LIGAND FREE ENERGY PREDICTED BY IDOCK:   -2.31 KCAL/MOL
REMARK 927      BINDING AFFINITY PREDICTED BY RF-SCORE:    0.00 PKD
ROOT
HETATM    1  C   UNL     1     -10.505  17.710  68.534  1.00  0.00    -0.337 C  
HETATM    2  C   UNL     1      -9.450  17.138  67.567  1.00  0.00    -0.247 C  
HETATM    3  C   UNL     1      -9.970  15.766  66.762  1.00  0.00    -0.252 C  
HETATM    4  N   UNL     1      -8.248  16.792  68.379  1.00  0.00    -0.215 NA 
HETATM    5  C   UNL     1      -9.043  18.335  66.665  1.00  0.00    -0.294 C  
HETATM    6  H2  UNL     1      -8.458  16.166  69.157  1.00  0.00     0.000 HD 
HETATM    7  N   UNL     1      -9.754  14.530  67.383  1.00  0.00    -0.220 N  
HETATM    8  H1  UNL     1      -7.549  16.413  67.739  1.00  0.00     0.000 HD 
HETATM    9  O   UNL     1     -10.558  15.839  65.683  1.00  0.00    -0.338 OA 
HETATM   10  H   UNL     1      -9.138  14.601  68.193  1.00  0.00     0.000 HD 
ENDROOT
BRANCH   7  11
HETATM   11  C   UNL     1     -10.242  13.062  67.122  1.00  0.00    -0.243 C  
BRANCH  11  12
HETATM   12  C   UNL     1     -11.657  12.477  67.584  1.00  0.00    -0.416 C  
BRANCH  12  13
HETATM   13  C   UNL     1     -12.004  12.335  69.144  1.00  0.00    -0.303 A  
HETATM   14  C   UNL     1     -12.033  11.194  69.923  1.00  0.00    -0.363 A  
HETATM   15  C   UNL     1     -12.940  15.591  71.102  1.00  0.00    -0.560 A  
HETATM   16  C   UNL     1     -13.479  14.965  72.222  1.00  0.00    -0.510 A  
HETATM   17  C   UNL     1     -13.417  13.577  72.337  1.00  0.00    -0.685 A  
HETATM   18  N   UNL     1     -12.551  11.495  71.182  1.00  0.00    -0.390 NA 
HETATM   19  C   UNL     1     -12.399  14.836  70.040  1.00  0.00    -0.365 A  
HETATM   20  C   UNL     1     -12.379  13.416  70.088  1.00  0.00    -0.322 A  
HETATM   21  C   UNL     1     -12.830  12.838  71.275  1.00  0.00    -0.262 A  
HETATM   22  H   UNL     1     -12.701  10.816  71.928  1.00  0.00     0.000 HD 
ENDBRANCH  12  13
ENDBRANCH  11  12
BRANCH  11  23
HETATM   23  C   UNL     1      -9.038  12.127  67.414  1.00  0.00    -0.181 C  
HETATM   24  N   UNL     1      -8.553  12.103  68.707  1.00  0.00    -0.367 N  
HETATM   25  H   UNL     1      -9.067  12.576  69.449  1.00  0.00     0.000 HD 
HETATM   26  O   UNL     1      -8.496  11.505  66.495  1.00  0.00    -0.170 OA 
BRANCH  24  27
HETATM   27  C   UNL     1      -7.322  11.412  69.013  1.00  0.00    -0.108 C  
BRANCH  27  28
HETATM   28  N   UNL     1      -6.554  12.220  69.925  1.00  0.00    -0.357 N  
HETATM   29  O   UNL     1      -6.671  14.154  68.665  1.00  0.00    -0.083 OA 
HETATM   30  C   UNL     1      -6.299  13.546  69.657  1.00  0.00    -0.105 C  
HETATM   31  H   UNL     1      -6.193  11.803  70.783  1.00  0.00     0.000 HD 
ENDBRANCH  27  28
BRANCH  27  32
HETATM   32  C   UNL     1      -7.398   9.913  69.377  1.00  0.00    -0.091 C  
BRANCH  32  33
HETATM   33  C   UNL     1      -7.751   9.272  70.709  1.00  0.00    -0.164 A  
HETATM   34  C   UNL     1      -8.511   8.283  72.647  1.00  0.00    -0.183 A  
HETATM   35  H   UNL     1      -6.613   8.330  73.584  1.00  0.00     0.000 HD 
HETATM   36  C   UNL     1      -9.357   7.682  73.592  1.00  0.00    -0.344 A  
HETATM   37  C   UNL     1      -6.714   9.123  71.627  1.00  0.00     0.032 A  
HETATM   38  C   UNL     1     -10.701   7.551  73.261  1.00  0.00    -0.437 A  
HETATM   39  N   UNL     1      -7.179   8.542  72.763  1.00  0.00    -0.285 NA 
HETATM   40  C   UNL     1     -11.168   8.013  72.032  1.00  0.00    -0.356 A  
HETATM   41  C   UNL     1     -10.300   8.603  71.089  1.00  0.00    -0.294 A  
HETATM   42  C   UNL     1      -8.926   8.746  71.383  1.00  0.00    -0.307 A  
ENDBRANCH  32  33
ENDBRANCH  27  32
ENDBRANCH  24  27
ENDBRANCH  11  23
ENDBRANCH   7  11
TORSDOF 8
ENDMDL
MODEL       87
REMARK 921   NORMALIZED FREE ENERGY PREDICTED BY IDOCK:   -7.00 KCAL/MOL
REMARK 922        TOTAL FREE ENERGY PREDICTED BY IDOCK:  -12.42 KCAL/MOL
REMARK 923 INTER-LIGAND FREE ENERGY PREDICTED BY IDOCK:   -9.81 KCAL/MOL
REMARK 924 INTRA-LIGAND FREE ENERGY PREDICTED BY IDOCK:   -2.61 KCAL/MOL
REMARK 927      BINDING AFFINITY PREDICTED BY RF-SCORE:    0.00 PKD
ROOT
HETATM    1  C   UNL     1     -10.416   7.444  73.310  1.00  0.00    -0.424 C  
HETATM    2  C   UNL     1     -11.486   7.460  72.201  1.00  0.00    -0.282 C  
HETATM    3  C   UNL     1     -10.875   7.885  70.702  1.00  0.00    -0.237 C  
HETATM    4  N   UNL     1     -12.521   8.458  72.599  1.00  0.00    -0.587 NA 
HETATM    5  C   UNL     1     -12.165   6.065  72.280  1.00  0.00    -0.125 C  
HETATM    6  H2  UNL     1     -12.131   9.382  72.792  1.00  0.00     0.000 HD 
HETATM    7  N   UNL     1     -10.836   9.248  70.383  1.00  0.00    -0.238 N  
HETATM    8  H1  UNL     1     -13.229   8.469  71.865  1.00  0.00     0.000 HD 
HETATM    9  O   UNL     1     -10.437   7.038  69.924  1.00  0.00    -0.205 OA 
HETATM   10  H   UNL     1     -11.355   9.821  71.047  1.00  0.00     0.000 HD 
ENDROOT
BRANCH   7  11
HETATM   11  C   UNL     1     -10.177  10.095  69.238  1.00  0.00    -0.223 C  
BRANCH  11  12
HETATM   12  C   UNL     1      -8.654  10.581  69.226  1.00  0.00    -0.136 C  
BRANCH  12  13
HETATM   13  C   UNL     1      -7.800  10.537  67.869  1.00  0.00    -0.105 A  
HETATM   14  C   UNL     1      -6.937  11.488  67.359  1.00  0.00    -0.111 A  
HETATM   15  C   UNL     1      -8.155   7.369  65.600  1.00  0.00    -0.129 A  
HETATM   16  C   UNL     1      -7.571   7.912  64.459  1.00  0.00    -0.111 A  
HETATM   17  C   UNL     1      -7.011   9.188  64.508  1.00  0.00    -0.090 A  
HETATM   18  N   UNL     1      -6.540  11.124  66.072  1.00  0.00    -0.349 NA 
HETATM   19  C   UNL     1      -8.261   8.122  66.788  1.00  0.00    -0.107 A  
HETATM   20  C   UNL     1      -7.764   9.451  66.858  1.00  0.00    -0.091 A  
HETATM   21  C   UNL     1      -7.092   9.914  65.727  1.00  0.00    -0.110 A  
HETATM   22  H   UNL     1      -5.927  11.677  65.473  1.00  0.00     0.000 HD 
ENDBRANCH  12  13
ENDBRANCH  11  12
BRANCH  11  23
HETATM   23  C   UNL     1     -11.201  11.193  68.843  1.00  0.00    -0.256 C  
HETATM   24  N   UNL     1     -10.919  12.490  69.226  1.00  0.00    -0.441 N  
HETATM   25  H   UNL     1     -10.007  12.713  69.623  1.00  0.00     0.000 HD 
HETATM   26  O   UNL     1     -12.259  10.886  68.285  1.00  0.00    -0.526 OA 
BRANCH  24  27
HETATM   27  C   UNL     1     -11.908  13.531  69.068  1.00  0.00    -0.343 C  
BRANCH  27  28
HETATM   28  N   UNL     1     -11.999  14.272  70.299  1.00  0.00    -0.308 N  
HETATM   29  O   UNL     1     -13.089  12.611  71.481  1.00  0.00    -0.373 OA 
HETATM   30  C   UNL     1     -12.593  13.726  71.415  1.00  0.00    -0.348 C  
HETATM   31  H   UNL     1     -11.617  15.216  70.346  1.00  0.00     0.000 HD 
ENDBRANCH  27  28
BRANCH  27  32
HETATM   32  C   UNL     1     -11.859  14.396  67.790  1.00  0.00    -0.402 C  
BRANCH  32  33
HETATM   33  C   UNL     1     -11.930  13.956  66.337  1.00  0.00    -0.467 A  
HETATM   34  C   UNL     1     -11.880  13.118  64.191  1.00  0.00    -0.429 A  
HETATM   35  H   UNL     1     -13.272  14.532  63.453  1.00  0.00     0.000 HD 
HETATM   36  C   UNL     1     -11.563  12.320  63.080  1.00  0.00    -0.283 A  
HETATM   37  C   UNL     1     -12.782  14.677  65.504  1.00  0.00    -0.048 A  
HETATM   38  C   UNL     1     -10.624  11.311  63.258  1.00  0.00    -0.326 A  
HETATM   39  N   UNL     1     -12.738  14.172  64.245  1.00  0.00    -0.629 NA 
HETATM   40  C   UNL     1     -10.028  11.121  64.504  1.00  0.00    -0.350 A  
HETATM   41  C   UNL     1     -10.368  11.924  65.614  1.00  0.00    -0.285 A  
HETATM   42  C   UNL     1     -11.324  12.954  65.476  1.00  0.00    -0.340 A  
ENDBRANCH  32  33
ENDBRANCH  27  32
ENDBRANCH  24  27
ENDBRANCH  11  23
ENDBRANCH   7  11
TORSDOF 8
ENDMDL
MODEL       88
REMARK 921   NORMALIZED FREE ENERGY PREDICTED BY IDOCK:   -6.98 KCAL/MOL
REMARK 922        TOTAL FREE ENERGY PREDICTED BY IDOCK:  -12.38 KCAL/MOL
REMARK 923 INTER-LIGAND FREE ENERGY PREDICTED BY IDOCK:   -9.48 KCAL/MOL
REMARK 924 INTRA-LIGAND FREE ENERGY PREDICTED BY IDOCK:   -2.90 KCAL/MOL
REMARK 927      BINDING AFFINITY PREDICTED BY RF-SCORE:    0.00 PKD
ROOT
HETATM    1  C   UNL     1      -9.783   7.726  73.299  1.00  0.00    -0.357 C  
HETATM    2  C   UNL     1     -10.907   7.236  72.366  1.00  0.00    -0.255 C  
HETATM    3  C   UNL     1     -10.590   7.521  70.747  1.00  0.00    -0.220 C  
HETATM    4  N   UNL     1     -12.150   7.966  72.748  1.00  0.00    -0.614 NA 
HETATM    5  C   UNL     1     -11.132   5.749  72.756  1.00  0.00    -0.327 C  
HETATM    6  H2  UNL     1     -12.036   8.980  72.738  1.00  0.00     0.000 HD 
HETATM    7  N   UNL     1     -10.987   8.755  70.218  1.00  0.00    -0.239 N  
HETATM    8  H1  UNL     1     -12.894   7.642  72.130  1.00  0.00     0.000 HD 
HETATM    9  O   UNL     1      -9.994   6.696  70.055  1.00  0.00    -0.171 OA 
HETATM   10  H   UNL     1     -11.589   9.278  70.853  1.00  0.00     0.000 HD 
ENDROOT
BRANCH   7  11
HETATM   11  C   UNL     1     -10.717   9.518  68.873  1.00  0.00    -0.195 C  
BRANCH  11  12
HETATM   12  C   UNL     1      -9.289   9.635  68.163  1.00  0.00    -0.140 C  
BRANCH  12  13
HETATM   13  C   UNL     1      -8.109  10.474  68.852  1.00  0.00    -0.138 A  
HETATM   14  C   UNL     1      -7.272  10.101  69.887  1.00  0.00    -0.154 A  
HETATM   15  C   UNL     1      -7.436  14.093  67.526  1.00  0.00    -0.192 A  
HETATM   16  C   UNL     1      -6.646  14.519  68.590  1.00  0.00    -0.087 A  
HETATM   17  C   UNL     1      -6.290  13.618  69.593  1.00  0.00    -0.110 A  
HETATM   18  N   UNL     1      -6.505  11.193  70.292  1.00  0.00    -0.373 NA 
HETATM   19  C   UNL     1      -7.949  12.779  67.485  1.00  0.00    -0.177 A  
HETATM   20  C   UNL     1      -7.666  11.851  68.521  1.00  0.00    -0.135 A  
HETATM   21  C   UNL     1      -6.784  12.288  69.511  1.00  0.00    -0.000 A  
HETATM   22  H   UNL     1      -5.833  11.180  71.059  1.00  0.00     0.000 HD 
ENDBRANCH  12  13
ENDBRANCH  11  12
BRANCH  11  23
HETATM   23  C   UNL     1     -11.506  10.853  68.946  1.00  0.00    -0.300 C  
HETATM   24  N   UNL     1     -11.414  11.580  70.117  1.00  0.00    -0.496 N  
HETATM   25  H   UNL     1     -10.741  11.306  70.832  1.00  0.00     0.000 HD 
HETATM   26  O   UNL     1     -12.247  11.189  68.018  1.00  0.00    -0.584 OA 
BRANCH  24  27
HETATM   27  C   UNL     1     -12.265  12.727  70.334  1.00  0.00    -0.293 C  
BRANCH  27  28
HETATM   28  N   UNL     1     -12.913  12.585  71.613  1.00  0.00    -0.357 N  
HETATM   29  O   UNL     1     -13.472  10.359  71.336  1.00  0.00    -0.300 OA 
HETATM   30  C   UNL     1     -13.465  11.385  72.000  1.00  0.00    -0.183 C  
HETATM   31  H   UNL     1     -12.964  13.386  72.241  1.00  0.00     0.000 HD 
ENDBRANCH  27  28
BRANCH  27  32
HETATM   32  C   UNL     1     -11.687  14.130  70.050  1.00  0.00    -0.358 C  
BRANCH  32  33
HETATM   33  C   UNL     1     -11.291  14.746  68.718  1.00  0.00    -0.301 A  
HETATM   34  C   UNL     1     -10.548  15.828  66.824  1.00  0.00    -0.309 A  
HETATM   35  H   UNL     1     -11.723  14.650  65.516  1.00  0.00     0.000 HD 
HETATM   36  C   UNL     1      -9.855  16.710  65.980  1.00  0.00    -0.335 A  
HETATM   37  C   UNL     1     -11.882  14.208  67.578  1.00  0.00    -0.401 A  
HETATM   38  C   UNL     1      -9.018  17.647  66.574  1.00  0.00    -0.283 A  
HETATM   39  N   UNL     1     -11.435  14.858  66.472  1.00  0.00    -0.324 NA 
HETATM   40  C   UNL     1      -8.892  17.694  67.961  1.00  0.00    -0.257 A  
HETATM   41  C   UNL     1      -9.586  16.790  68.794  1.00  0.00    -0.260 A  
HETATM   42  C   UNL     1     -10.439  15.817  68.229  1.00  0.00    -0.259 A  
ENDBRANCH  32  33
ENDBRANCH  27  32
ENDBRANCH  24  27
ENDBRANCH  11  23
ENDBRANCH   7  11
TORSDOF 8
ENDMDL
MODEL       89
REMARK 921   NORMALIZED FREE ENERGY PREDICTED BY IDOCK:   -6.97 KCAL/MOL
REMARK 922        TOTAL FREE ENERGY PREDICTED BY IDOCK:  -12.37 KCAL/MOL
REMARK 923 INTER-LIGAND FREE ENERGY PREDICTED BY IDOCK:  -10.99 KCAL/MOL
REMARK 924 INTRA-LIGAND FREE ENERGY PREDICTED BY IDOCK:   -1.38 KCAL/MOL
REMARK 927      BINDING AFFINITY PREDICTED BY RF-SCORE:    0.00 PKD
ROOT
HETATM    1  C   UNL     1      -8.650  18.934  66.299  1.00  0.00    -0.267 C  
HETATM    2  C   UNL     1     -10.025  18.382  66.722  1.00  0.00    -0.360 C  
HETATM    3  C   UNL     1      -9.929  17.238  67.940  1.00  0.00    -0.297 C  
HETATM    4  N   UNL     1     -10.638  17.751  65.517  1.00  0.00    -0.615 NA 
HETATM    5  C   UNL     1     -10.879  19.640  67.044  1.00  0.00    -0.518 C  
HETATM    6  H2  UNL     1     -10.040  17.045  65.088  1.00  0.00     0.000 HD 
HETATM    7  N   UNL     1      -9.753  15.903  67.560  1.00  0.00    -0.223 N  
HETATM    8  H1  UNL     1     -11.549  17.386  65.798  1.00  0.00     0.000 HD 
HETATM    9  O   UNL     1      -9.970  17.561  69.127  1.00  0.00    -0.281 OA 
HETATM   10  H   UNL     1      -9.879  15.760  66.559  1.00  0.00     0.000 HD 
ENDROOT
BRANCH   7  11
HETATM   11  C   UNL     1      -9.407  14.575  68.321  1.00  0.00    -0.203 C  
BRANCH  11  12
HETATM   12  C   UNL     1      -8.349  13.486  67.817  1.00  0.00    -0.181 C  
BRANCH  12  13
HETATM   13  C   UNL     1      -8.740  12.455  66.652  1.00  0.00    -0.119 A  
HETATM   14  C   UNL     1      -8.097  11.291  66.276  1.00  0.00    -0.108 A  
HETATM   15  C   UNL     1     -11.906  13.261  64.499  1.00  0.00    -0.433 A  
HETATM   16  C   UNL     1     -11.642  12.362  63.469  1.00  0.00    -0.577 A  
HETATM   17  C   UNL     1     -10.556  11.494  63.568  1.00  0.00    -0.487 A  
HETATM   18  N   UNL     1      -8.671  10.791  65.107  1.00  0.00    -0.253 NA 
HETATM   19  C   UNL     1     -11.043  13.362  65.610  1.00  0.00    -0.298 A  
HETATM   20  C   UNL     1      -9.888  12.542  65.716  1.00  0.00    -0.244 A  
HETATM   21  C   UNL     1      -9.724  11.583  64.716  1.00  0.00    -0.219 A  
HETATM   22  H   UNL     1      -8.355   9.957  64.614  1.00  0.00     0.000 HD 
ENDBRANCH  12  13
ENDBRANCH  11  12
BRANCH  11  23
HETATM   23  C   UNL     1     -10.749  13.977  68.821  1.00  0.00    -0.259 C  
HETATM   24  N   UNL     1     -10.748  12.650  69.205  1.00  0.00    -0.436 N  
HETATM   25  H   UNL     1      -9.865  12.146  69.284  1.00  0.00     0.000 HD 
HETATM   26  O   UNL     1     -11.782  14.652  68.786  1.00  0.00    -0.299 OA 
BRANCH  24  27
HETATM   27  C   UNL     1     -11.990  11.972  69.495  1.00  0.00    -0.283 C  
BRANCH  27  28
HETATM   28  N   UNL     1     -12.245  11.010  68.453  1.00  0.00    -0.217 N  
HETATM   29  O   UNL     1     -10.164  10.010  68.557  1.00  0.00    -0.162 OA 
HETATM   30  C   UNL     1     -11.284  10.099  68.078  1.00  0.00    -0.179 C  
HETATM   31  H   UNL     1     -13.151  11.004  67.986  1.00  0.00     0.000 HD 
ENDBRANCH  27  28
BRANCH  27  32
HETATM   32  C   UNL     1     -12.220  11.453  70.930  1.00  0.00    -0.447 C  
BRANCH  32  33
HETATM   33  C   UNL     1     -12.196  10.022  71.442  1.00  0.00    -0.510 A  
HETATM   34  C   UNL     1     -11.920   7.872  72.224  1.00  0.00    -0.337 A  
HETATM   35  H   UNL     1     -13.997   7.464  72.256  1.00  0.00     0.000 HD 
HETATM   36  C   UNL     1     -11.321   6.690  72.687  1.00  0.00    -0.262 A  
HETATM   37  C   UNL     1     -13.428   9.392  71.603  1.00  0.00    -0.394 A  
HETATM   38  C   UNL     1      -9.932   6.649  72.738  1.00  0.00    -0.187 A  
HETATM   39  N   UNL     1     -13.247   8.127  72.061  1.00  0.00    -0.308 NA 
HETATM   40  C   UNL     1      -9.184   7.753  72.333  1.00  0.00    -0.218 A  
HETATM   41  C   UNL     1      -9.804   8.938  71.883  1.00  0.00    -0.364 A  
HETATM   42  C   UNL     1     -11.212   9.023  71.825  1.00  0.00    -0.448 A  
ENDBRANCH  32  33
ENDBRANCH  27  32
ENDBRANCH  24  27
ENDBRANCH  11  23
ENDBRANCH   7  11
TORSDOF 8
ENDMDL
MODEL       90
REMARK 921   NORMALIZED FREE ENERGY PREDICTED BY IDOCK:   -6.96 KCAL/MOL
REMARK 922        TOTAL FREE ENERGY PREDICTED BY IDOCK:  -12.36 KCAL/MOL
REMARK 923 INTER-LIGAND FREE ENERGY PREDICTED BY IDOCK:  -10.07 KCAL/MOL
REMARK 924 INTRA-LIGAND FREE ENERGY PREDICTED BY IDOCK:   -2.29 KCAL/MOL
REMARK 927      BINDING AFFINITY PREDICTED BY RF-SCORE:    0.00 PKD
ROOT
HETATM    1  C   UNL     1      -8.841  14.884  66.513  1.00  0.00    -0.256 C  
HETATM    2  C   UNL     1      -8.035  14.296  67.687  1.00  0.00    -0.180 C  
HETATM    3  C   UNL     1      -7.471  12.748  67.389  1.00  0.00    -0.145 C  
HETATM    4  N   UNL     1      -8.942  14.257  68.871  1.00  0.00    -0.361 NA 
HETATM    5  C   UNL     1      -6.947  15.360  67.999  1.00  0.00    -0.144 C  
HETATM    6  H2  UNL     1      -9.811  13.754  68.692  1.00  0.00     0.000 HD 
HETATM    7  N   UNL     1      -8.313  11.679  67.717  1.00  0.00    -0.136 N  
HETATM    8  H1  UNL     1      -8.408  13.868  69.648  1.00  0.00     0.000 HD 
HETATM    9  O   UNL     1      -6.375  12.555  66.864  1.00  0.00    -0.176 OA 
HETATM   10  H   UNL     1      -9.119  11.970  68.269  1.00  0.00     0.000 HD 
ENDROOT
BRANCH   7  11
HETATM   11  C   UNL     1      -8.302  10.136  67.429  1.00  0.00    -0.118 C  
BRANCH  11  12
HETATM   12  C   UNL     1      -8.938   9.447  66.133  1.00  0.00    -0.197 C  
BRANCH  12  13
HETATM   13  C   UNL     1      -9.697  10.335  65.034  1.00  0.00    -0.370 A  
HETATM   14  C   UNL     1      -9.602  10.273  63.657  1.00  0.00    -0.277 A  
HETATM   15  C   UNL     1     -12.150  13.104  66.310  1.00  0.00    -0.460 A  
HETATM   16  C   UNL     1     -12.264  13.796  65.108  1.00  0.00    -0.453 A  
HETATM   17  C   UNL     1     -11.657  13.292  63.958  1.00  0.00    -0.458 A  
HETATM   18  N   UNL     1     -10.299  11.339  63.087  1.00  0.00    -0.625 NA 
HETATM   19  C   UNL     1     -11.360  11.938  66.404  1.00  0.00    -0.400 A  
HETATM   20  C   UNL     1     -10.669  11.431  65.271  1.00  0.00    -0.326 A  
HETATM   21  C   UNL     1     -10.900  12.094  64.065  1.00  0.00    -0.383 A  
HETATM   22  H   UNL     1     -10.354  11.530  62.087  1.00  0.00     0.000 HD 
ENDBRANCH  12  13
ENDBRANCH  11  12
BRANCH  11  23
HETATM   23  C   UNL     1      -8.647   9.425  68.765  1.00  0.00    -0.127 C  
HETATM   24  N   UNL     1      -9.136   8.135  68.689  1.00  0.00    -0.144 N  
HETATM   25  H   UNL     1      -9.127   7.643  67.796  1.00  0.00     0.000 HD 
HETATM   26  O   UNL     1      -8.563  10.036  69.834  1.00  0.00    -0.194 OA 
BRANCH  24  27
HETATM   27  C   UNL     1      -9.659   7.481  69.865  1.00  0.00    -0.160 C  
BRANCH  27  28
HETATM   28  N   UNL     1      -8.802   7.786  70.982  1.00  0.00    -0.139 N  
HETATM   29  O   UNL     1      -7.279   6.099  70.565  1.00  0.00    -0.078 OA 
HETATM   30  C   UNL     1      -7.666   7.050  71.228  1.00  0.00    -0.091 C  
HETATM   31  H   UNL     1      -9.042   8.561  71.601  1.00  0.00     0.000 HD 
ENDBRANCH  27  28
BRANCH  27  32
HETATM   32  C   UNL     1     -11.171   7.598  70.154  1.00  0.00    -0.193 C  
BRANCH  32  33
HETATM   33  C   UNL     1     -11.925   8.720  70.848  1.00  0.00    -0.235 A  
HETATM   34  C   UNL     1     -12.969  10.570  71.741  1.00  0.00    -0.476 A  
HETATM   35  H   UNL     1     -13.957   9.462  73.251  1.00  0.00     0.000 HD 
HETATM   36  C   UNL     1     -13.384  11.896  71.947  1.00  0.00    -0.405 A  
HETATM   37  C   UNL     1     -12.721   8.363  71.934  1.00  0.00    -0.355 A  
HETATM   38  C   UNL     1     -12.857  12.873  71.111  1.00  0.00    -0.326 A  
HETATM   39  N   UNL     1     -13.326   9.464  72.449  1.00  0.00    -0.455 NA 
HETATM   40  C   UNL     1     -11.945  12.525  70.116  1.00  0.00    -0.377 A  
HETATM   41  C   UNL     1     -11.548  11.185  69.915  1.00  0.00    -0.416 A  
HETATM   42  C   UNL     1     -12.069  10.162  70.737  1.00  0.00    -0.438 A  
ENDBRANCH  32  33
ENDBRANCH  27  32
ENDBRANCH  24  27
ENDBRANCH  11  23
ENDBRANCH   7  11
TORSDOF 8
ENDMDL
MODEL       91
REMARK 921   NORMALIZED FREE ENERGY PREDICTED BY IDOCK:   -6.96 KCAL/MOL
REMARK 922        TOTAL FREE ENERGY PREDICTED BY IDOCK:  -12.36 KCAL/MOL
REMARK 923 INTER-LIGAND FREE ENERGY PREDICTED BY IDOCK:  -10.19 KCAL/MOL
REMARK 924 INTRA-LIGAND FREE ENERGY PREDICTED BY IDOCK:   -2.17 KCAL/MOL
REMARK 927      BINDING AFFINITY PREDICTED BY RF-SCORE:    0.00 PKD
ROOT
HETATM    1  C   UNL     1      -7.023  10.307  70.645  1.00  0.00     0.126 C  
HETATM    2  C   UNL     1      -7.987   9.664  69.630  1.00  0.00    -0.137 C  
HETATM    3  C   UNL     1      -8.500  10.727  68.443  1.00  0.00    -0.137 C  
HETATM    4  N   UNL     1      -9.177   9.184  70.391  1.00  0.00    -0.213 NA 
HETATM    5  C   UNL     1      -7.247   8.395  69.123  1.00  0.00    -0.065 C  
HETATM    6  H2  UNL     1      -9.616   9.917  70.950  1.00  0.00     0.000 HD 
HETATM    7  N   UNL     1      -9.640  11.493  68.710  1.00  0.00    -0.354 N  
HETATM    8  H1  UNL     1      -9.815   8.758  69.719  1.00  0.00     0.000 HD 
HETATM    9  O   UNL     1      -7.876  10.862  67.391  1.00  0.00    -0.108 OA 
HETATM   10  H   UNL     1     -10.135  11.182  69.546  1.00  0.00     0.000 HD 
ENDROOT
BRANCH   7  11
HETATM   11  C   UNL     1     -10.333  12.721  68.020  1.00  0.00    -0.229 C  
BRANCH  11  12
HETATM   12  C   UNL     1     -11.734  13.348  68.470  1.00  0.00    -0.392 C  
BRANCH  12  13
HETATM   13  C   UNL     1     -11.775  14.629  69.434  1.00  0.00    -0.355 A  
HETATM   14  C   UNL     1     -11.264  15.894  69.214  1.00  0.00    -0.335 A  
HETATM   15  C   UNL     1     -13.503  14.226  72.922  1.00  0.00    -0.491 A  
HETATM   16  C   UNL     1     -12.998  15.389  73.496  1.00  0.00    -0.659 A  
HETATM   17  C   UNL     1     -12.242  16.271  72.724  1.00  0.00    -0.592 A  
HETATM   18  N   UNL     1     -11.365  16.654  70.379  1.00  0.00    -0.439 NA 
HETATM   19  C   UNL     1     -13.196  13.884  71.588  1.00  0.00    -0.446 A  
HETATM   20  C   UNL     1     -12.373  14.722  70.789  1.00  0.00    -0.397 A  
HETATM   21  C   UNL     1     -11.980  15.928  71.370  1.00  0.00    -0.457 A  
HETATM   22  H   UNL     1     -11.030  17.612  70.480  1.00  0.00     0.000 HD 
ENDBRANCH  12  13
ENDBRANCH  11  12
BRANCH  11  23
HETATM   23  C   UNL     1     -10.186  12.519  66.488  1.00  0.00    -0.240 C  
HETATM   24  N   UNL     1     -10.927  11.508  65.908  1.00  0.00    -0.272 N  
HETATM   25  H   UNL     1     -11.637  11.023  66.455  1.00  0.00     0.000 HD 
HETATM   26  O   UNL     1      -9.371  13.189  65.848  1.00  0.00    -0.090 OA 
BRANCH  24  27
HETATM   27  C   UNL     1     -10.701  11.134  64.531  1.00  0.00    -0.297 C  
BRANCH  27  28
HETATM   28  N   UNL     1     -10.918  12.288  63.698  1.00  0.00    -0.435 N  
HETATM   29  O   UNL     1     -13.225  12.176  63.755  1.00  0.00    -0.763 OA 
HETATM   30  C   UNL     1     -12.190  12.710  63.385  1.00  0.00    -0.517 C  
HETATM   31  H   UNL     1     -10.116  12.802  63.333  1.00  0.00     0.000 HD 
ENDBRANCH  27  28
BRANCH  27  32
HETATM   32  C   UNL     1      -9.434  10.318  64.195  1.00  0.00    -0.358 C  
BRANCH  32  33
HETATM   33  C   UNL     1      -8.974   8.989  64.773  1.00  0.00    -0.146 A  
HETATM   34  C   UNL     1      -8.461   6.993  65.803  1.00  0.00    -0.149 A  
HETATM   35  H   UNL     1      -6.781   6.623  64.569  1.00  0.00     0.000 HD 
HETATM   36  C   UNL     1      -8.516   5.887  66.666  1.00  0.00    -0.111 A  
HETATM   37  C   UNL     1      -7.850   8.408  64.192  1.00  0.00    -0.145 A  
HETATM   38  C   UNL     1      -9.515   5.873  67.632  1.00  0.00    -0.110 A  
HETATM   39  N   UNL     1      -7.561   7.235  64.811  1.00  0.00    -0.097 NA 
HETATM   40  C   UNL     1     -10.415   6.933  67.725  1.00  0.00    -0.279 A  
HETATM   41  C   UNL     1     -10.353   8.031  66.840  1.00  0.00    -0.408 A  
HETATM   42  C   UNL     1      -9.359   8.078  65.839  1.00  0.00    -0.093 A  
ENDBRANCH  32  33
ENDBRANCH  27  32
ENDBRANCH  24  27
ENDBRANCH  11  23
ENDBRANCH   7  11
TORSDOF 8
ENDMDL
MODEL       92
REMARK 921   NORMALIZED FREE ENERGY PREDICTED BY IDOCK:   -6.95 KCAL/MOL
REMARK 922        TOTAL FREE ENERGY PREDICTED BY IDOCK:  -12.34 KCAL/MOL
REMARK 923 INTER-LIGAND FREE ENERGY PREDICTED BY IDOCK:   -9.49 KCAL/MOL
REMARK 924 INTRA-LIGAND FREE ENERGY PREDICTED BY IDOCK:   -2.85 KCAL/MOL
REMARK 927      BINDING AFFINITY PREDICTED BY RF-SCORE:    0.00 PKD
ROOT
HETATM    1  C   UNL     1      -9.020  18.004  68.546  1.00  0.00    -0.297 C  
HETATM    2  C   UNL     1      -8.228  17.520  67.316  1.00  0.00    -0.208 C  
HETATM    3  C   UNL     1      -8.987  16.277  66.491  1.00  0.00    -0.278 C  
HETATM    4  N   UNL     1      -6.905  17.034  67.805  1.00  0.00    -0.145 NA 
HETATM    5  C   UNL     1      -7.948  18.805  66.489  1.00  0.00    -0.294 C  
HETATM    6  H2  UNL     1      -6.985  16.324  68.534  1.00  0.00     0.000 HD 
HETATM    7  N   UNL     1      -8.720  14.967  66.907  1.00  0.00    -0.242 N  
HETATM    8  H1  UNL     1      -6.380  16.714  66.991  1.00  0.00     0.000 HD 
HETATM    9  O   UNL     1      -9.782  16.504  65.580  1.00  0.00    -0.524 OA 
HETATM   10  H   UNL     1      -7.944  14.916  67.567  1.00  0.00     0.000 HD 
ENDROOT
BRANCH   7  11
HETATM   11  C   UNL     1      -9.340  13.560  66.592  1.00  0.00    -0.245 C  
BRANCH  11  12
HETATM   12  C   UNL     1     -10.875  13.171  66.813  1.00  0.00    -0.289 C  
BRANCH  12  13
HETATM   13  C   UNL     1     -11.629  13.589  68.166  1.00  0.00    -0.368 A  
HETATM   14  C   UNL     1     -12.013  14.848  68.588  1.00  0.00    -0.241 A  
HETATM   15  C   UNL     1     -12.523  10.748  70.703  1.00  0.00    -0.461 A  
HETATM   16  C   UNL     1     -12.799  11.572  71.790  1.00  0.00    -0.441 A  
HETATM   17  C   UNL     1     -12.791  12.957  71.628  1.00  0.00    -0.368 A  
HETATM   18  N   UNL     1     -12.483  14.783  69.900  1.00  0.00    -0.523 NA 
HETATM   19  C   UNL     1     -12.157  11.293  69.454  1.00  0.00    -0.384 A  
HETATM   20  C   UNL     1     -12.072  12.698  69.267  1.00  0.00    -0.218 A  
HETATM   21  C   UNL     1     -12.461  13.486  70.351  1.00  0.00    -0.275 A  
HETATM   22  H   UNL     1     -12.798  15.585  70.446  1.00  0.00     0.000 HD 
ENDBRANCH  12  13
ENDBRANCH  11  12
BRANCH  11  23
HETATM   23  C   UNL     1      -8.331  12.497  67.104  1.00  0.00    -0.179 C  
HETATM   24  N   UNL     1      -8.845  11.286  67.522  1.00  0.00    -0.139 N  
HETATM   25  H   UNL     1      -9.828  11.070  67.360  1.00  0.00     0.000 HD 
HETATM   26  O   UNL     1      -7.133  12.775  67.206  1.00  0.00    -0.148 OA 
BRANCH  24  27
HETATM   27  C   UNL     1      -7.999  10.323  68.189  1.00  0.00    -0.109 C  
BRANCH  27  28
HETATM   28  N   UNL     1      -7.694  10.814  69.509  1.00  0.00    -0.326 N  
HETATM   29  O   UNL     1      -5.417  10.441  69.367  1.00  0.00    -0.038 OA 
HETATM   30  C   UNL     1      -6.401  10.828  69.981  1.00  0.00    -0.137 C  
HETATM   31  H   UNL     1      -8.448  11.156  70.103  1.00  0.00     0.000 HD 
ENDBRANCH  27  28
BRANCH  27  32
HETATM   32  C   UNL     1      -8.396   8.833  68.124  1.00  0.00    -0.122 C  
BRANCH  32  33
HETATM   33  C   UNL     1      -9.491   8.104  68.886  1.00  0.00    -0.151 A  
HETATM   34  C   UNL     1     -11.079   7.122  70.236  1.00  0.00    -0.274 A  
HETATM   35  H   UNL     1     -11.879   5.936  68.675  1.00  0.00     0.000 HD 
HETATM   36  C   UNL     1     -11.855   6.796  71.360  1.00  0.00    -0.385 A  
HETATM   37  C   UNL     1     -10.266   7.203  68.162  1.00  0.00    -0.188 A  
HETATM   38  C   UNL     1     -11.529   7.405  72.566  1.00  0.00    -0.346 A  
HETATM   39  N   UNL     1     -11.194   6.632  68.971  1.00  0.00    -0.252 NA 
HETATM   40  C   UNL     1     -10.461   8.299  72.633  1.00  0.00    -0.373 A  
HETATM   41  C   UNL     1      -9.700   8.625  71.490  1.00  0.00    -0.333 A  
HETATM   42  C   UNL     1     -10.006   8.035  70.244  1.00  0.00    -0.189 A  
ENDBRANCH  32  33
ENDBRANCH  27  32
ENDBRANCH  24  27
ENDBRANCH  11  23
ENDBRANCH   7  11
TORSDOF 8
ENDMDL
MODEL       93
REMARK 921   NORMALIZED FREE ENERGY PREDICTED BY IDOCK:   -6.93 KCAL/MOL
REMARK 922        TOTAL FREE ENERGY PREDICTED BY IDOCK:  -12.31 KCAL/MOL
REMARK 923 INTER-LIGAND FREE ENERGY PREDICTED BY IDOCK:  -10.42 KCAL/MOL
REMARK 924 INTRA-LIGAND FREE ENERGY PREDICTED BY IDOCK:   -1.89 KCAL/MOL
REMARK 927      BINDING AFFINITY PREDICTED BY RF-SCORE:    0.00 PKD
ROOT
HETATM    1  C   UNL     1      -8.626   7.041  70.655  1.00  0.00    -0.147 C  
HETATM    2  C   UNL     1      -8.871   8.468  71.183  1.00  0.00    -0.179 C  
HETATM    3  C   UNL     1      -9.457   9.512  70.014  1.00  0.00    -0.232 C  
HETATM    4  N   UNL     1      -7.563   8.986  71.680  1.00  0.00    -0.333 NA 
HETATM    5  C   UNL     1      -9.775   8.282  72.433  1.00  0.00    -0.373 C  
HETATM    6  H2  UNL     1      -6.824   8.942  70.978  1.00  0.00     0.000 HD 
HETATM    7  N   UNL     1      -8.519  10.197  69.232  1.00  0.00    -0.152 N  
HETATM    8  H1  UNL     1      -7.726   9.930  72.030  1.00  0.00     0.000 HD 
HETATM    9  O   UNL     1     -10.664   9.644  69.818  1.00  0.00    -0.220 OA 
HETATM   10  H   UNL     1      -7.569  10.107  69.590  1.00  0.00     0.000 HD 
ENDROOT
BRANCH   7  11
HETATM   11  C   UNL     1      -8.595  11.072  67.931  1.00  0.00    -0.133 C  
BRANCH  11  12
HETATM   12  C   UNL     1      -8.050  10.620  66.497  1.00  0.00    -0.140 C  
BRANCH  12  13
HETATM   13  C   UNL     1      -9.016  10.653  65.217  1.00  0.00    -0.209 A  
HETATM   14  C   UNL     1      -8.831  10.067  63.979  1.00  0.00    -0.224 A  
HETATM   15  C   UNL     1     -12.362  12.660  65.515  1.00  0.00    -0.455 A  
HETATM   16  C   UNL     1     -12.651  12.709  64.154  1.00  0.00    -0.442 A  
HETATM   17  C   UNL     1     -11.843  12.023  63.249  1.00  0.00    -0.450 A  
HETATM   18  N   UNL     1      -9.832  10.489  63.103  1.00  0.00    -0.479 NA 
HETATM   19  C   UNL     1     -11.214  11.990  65.988  1.00  0.00    -0.385 A  
HETATM   20  C   UNL     1     -10.327  11.336  65.091  1.00  0.00    -0.353 A  
HETATM   21  C   UNL     1     -10.715  11.319  63.750  1.00  0.00    -0.379 A  
HETATM   22  H   UNL     1      -9.898  10.220  62.121  1.00  0.00     0.000 HD 
ENDBRANCH  12  13
ENDBRANCH  11  12
BRANCH  11  23
HETATM   23  C   UNL     1      -8.202  12.519  68.336  1.00  0.00    -0.136 C  
HETATM   24  N   UNL     1      -9.228  13.427  68.512  1.00  0.00    -0.344 N  
HETATM   25  H   UNL     1     -10.195  13.105  68.512  1.00  0.00     0.000 HD 
HETATM   26  O   UNL     1      -7.014  12.844  68.407  1.00  0.00    -0.080 OA 
BRANCH  24  27
HETATM   27  C   UNL     1      -8.937  14.830  68.698  1.00  0.00    -0.185 C  
BRANCH  27  28
HETATM   28  N   UNL     1      -8.341  15.341  67.490  1.00  0.00    -0.163 N  
HETATM   29  O   UNL     1     -10.287  15.299  66.244  1.00  0.00    -0.272 OA 
HETATM   30  C   UNL     1      -9.093  15.534  66.353  1.00  0.00    -0.316 C  
HETATM   31  H   UNL     1      -7.347  15.564  67.477  1.00  0.00     0.000 HD 
ENDBRANCH  27  28
BRANCH  27  32
HETATM   32  C   UNL     1     -10.033  15.727  69.313  1.00  0.00    -0.262 C  
BRANCH  32  33
HETATM   33  C   UNL     1     -11.058  15.383  70.381  1.00  0.00    -0.351 A  
HETATM   34  C   UNL     1     -12.614  14.639  71.909  1.00  0.00    -0.339 A  
HETATM   35  H   UNL     1     -12.777  16.517  72.873  1.00  0.00     0.000 HD 
HETATM   36  C   UNL     1     -13.494  13.802  72.614  1.00  0.00    -0.638 A  
HETATM   37  C   UNL     1     -11.430  16.408  71.246  1.00  0.00    -0.205 A  
HETATM   38  C   UNL     1     -13.628  12.491  72.174  1.00  0.00    -0.458 A  
HETATM   39  N   UNL     1     -12.348  15.954  72.138  1.00  0.00    -0.443 NA 
HETATM   40  C   UNL     1     -12.908  12.048  71.065  1.00  0.00    -0.279 A  
HETATM   41  C   UNL     1     -12.018  12.899  70.376  1.00  0.00    -0.329 A  
HETATM   42  C   UNL     1     -11.847  14.236  70.798  1.00  0.00    -0.336 A  
ENDBRANCH  32  33
ENDBRANCH  27  32
ENDBRANCH  24  27
ENDBRANCH  11  23
ENDBRANCH   7  11
TORSDOF 8
ENDMDL
MODEL       94
REMARK 921   NORMALIZED FREE ENERGY PREDICTED BY IDOCK:   -6.91 KCAL/MOL
REMARK 922        TOTAL FREE ENERGY PREDICTED BY IDOCK:  -12.28 KCAL/MOL
REMARK 923 INTER-LIGAND FREE ENERGY PREDICTED BY IDOCK:  -10.92 KCAL/MOL
REMARK 924 INTRA-LIGAND FREE ENERGY PREDICTED BY IDOCK:   -1.36 KCAL/MOL
REMARK 927      BINDING AFFINITY PREDICTED BY RF-SCORE:    0.00 PKD
ROOT
HETATM    1  C   UNL     1     -12.670  12.225  64.645  1.00  0.00    -0.275 C  
HETATM    2  C   UNL     1     -11.563  13.259  64.364  1.00  0.00    -0.382 C  
HETATM    3  C   UNL     1     -10.859  13.867  65.756  1.00  0.00    -0.289 C  
HETATM    4  N   UNL     1     -12.189  14.384  63.611  1.00  0.00    -1.068 NA 
HETATM    5  C   UNL     1     -10.596  12.551  63.374  1.00  0.00    -0.294 C  
HETATM    6  H2  UNL     1     -12.997  14.784  64.090  1.00  0.00     0.000 HD 
HETATM    7  N   UNL     1     -11.455  14.989  66.344  1.00  0.00    -0.281 N  
HETATM    8  H1  UNL     1     -11.456  15.069  63.424  1.00  0.00     0.000 HD 
HETATM    9  O   UNL     1      -9.880  13.326  66.268  1.00  0.00    -0.277 OA 
HETATM   10  H   UNL     1     -12.162  15.416  65.746  1.00  0.00     0.000 HD 
ENDROOT
BRANCH   7  11
HETATM   11  C   UNL     1     -11.286  15.740  67.711  1.00  0.00    -0.286 C  
BRANCH  11  12
HETATM   12  C   UNL     1     -10.375  17.036  67.931  1.00  0.00    -0.338 C  
BRANCH  12  13
HETATM   13  C   UNL     1      -8.904  17.110  67.296  1.00  0.00    -0.226 A  
HETATM   14  C   UNL     1      -8.105  16.077  66.844  1.00  0.00    -0.247 A  
HETATM   15  C   UNL     1      -7.243  20.636  66.961  1.00  0.00    -0.372 A  
HETATM   16  C   UNL     1      -5.944  20.190  66.731  1.00  0.00    -0.197 A  
HETATM   17  C   UNL     1      -5.696  18.825  66.590  1.00  0.00    -0.168 A  
HETATM   18  N   UNL     1      -6.836  16.564  66.531  1.00  0.00    -0.213 NA 
HETATM   19  C   UNL     1      -8.304  19.722  67.132  1.00  0.00    -0.355 A  
HETATM   20  C   UNL     1      -8.080  18.321  67.064  1.00  0.00    -0.241 A  
HETATM   21  C   UNL     1      -6.785  17.923  66.725  1.00  0.00    -0.184 A  
HETATM   22  H   UNL     1      -6.057  15.992  66.204  1.00  0.00     0.000 HD 
ENDBRANCH  12  13
ENDBRANCH  11  12
BRANCH  11  23
HETATM   23  C   UNL     1     -11.124  14.652  68.807  1.00  0.00    -0.260 C  
HETATM   24  N   UNL     1     -12.252  13.941  69.165  1.00  0.00    -0.438 N  
HETATM   25  H   UNL     1     -13.109  14.043  68.622  1.00  0.00     0.000 HD 
HETATM   26  O   UNL     1     -10.042  14.505  69.383  1.00  0.00    -0.131 OA 
BRANCH  24  27
HETATM   27  C   UNL     1     -12.226  13.053  70.305  1.00  0.00    -0.296 C  
BRANCH  27  28
HETATM   28  N   UNL     1     -13.063  13.605  71.339  1.00  0.00    -0.337 N  
HETATM   29  O   UNL     1     -11.470  15.062  72.165  1.00  0.00    -0.382 OA 
HETATM   30  C   UNL     1     -12.593  14.582  72.188  1.00  0.00    -0.314 C  
HETATM   31  H   UNL     1     -14.019  13.267  71.444  1.00  0.00     0.000 HD 
ENDBRANCH  27  28
BRANCH  27  32
HETATM   32  C   UNL     1     -12.410  11.541  70.057  1.00  0.00    -0.287 C  
BRANCH  32  33
HETATM   33  C   UNL     1     -11.855  10.369  70.850  1.00  0.00    -0.475 A  
HETATM   34  C   UNL     1     -10.807   8.629  71.938  1.00  0.00    -0.348 A  
HETATM   35  H   UNL     1     -12.518   8.120  73.075  1.00  0.00     0.000 HD 
HETATM   36  C   UNL     1      -9.825   7.713  72.346  1.00  0.00    -0.235 A  
HETATM   37  C   UNL     1     -12.724   9.751  71.745  1.00  0.00    -0.426 A  
HETATM   38  C   UNL     1      -8.581   7.783  71.729  1.00  0.00    -0.141 A  
HETATM   39  N   UNL     1     -12.092   8.727  72.375  1.00  0.00    -0.345 NA 
HETATM   40  C   UNL     1      -8.344   8.735  70.738  1.00  0.00    -0.185 A  
HETATM   41  C   UNL     1      -9.339   9.656  70.349  1.00  0.00    -0.268 A  
HETATM   42  C   UNL     1     -10.612   9.624  70.959  1.00  0.00    -0.362 A  
ENDBRANCH  32  33
ENDBRANCH  27  32
ENDBRANCH  24  27
ENDBRANCH  11  23
ENDBRANCH   7  11
TORSDOF 8
ENDMDL
MODEL       95
REMARK 921   NORMALIZED FREE ENERGY PREDICTED BY IDOCK:   -6.91 KCAL/MOL
REMARK 922        TOTAL FREE ENERGY PREDICTED BY IDOCK:  -12.28 KCAL/MOL
REMARK 923 INTER-LIGAND FREE ENERGY PREDICTED BY IDOCK:  -10.67 KCAL/MOL
REMARK 924 INTRA-LIGAND FREE ENERGY PREDICTED BY IDOCK:   -1.62 KCAL/MOL
REMARK 927      BINDING AFFINITY PREDICTED BY RF-SCORE:    0.00 PKD
ROOT
HETATM    1  C   UNL     1     -11.596  15.217  71.887  1.00  0.00    -0.490 C  
HETATM    2  C   UNL     1     -12.781  14.785  71.001  1.00  0.00    -0.345 C  
HETATM    3  C   UNL     1     -12.658  13.205  70.462  1.00  0.00    -0.165 C  
HETATM    4  N   UNL     1     -12.805  15.695  69.820  1.00  0.00    -0.575 NA 
HETATM    5  C   UNL     1     -14.048  15.114  71.838  1.00  0.00    -0.649 C  
HETATM    6  H2  UNL     1     -11.917  15.720  69.316  1.00  0.00     0.000 HD 
HETATM    7  N   UNL     1     -11.965  12.982  69.266  1.00  0.00    -0.302 N  
HETATM    8  H1  UNL     1     -13.589  15.409  69.233  1.00  0.00     0.000 HD 
HETATM    9  O   UNL     1     -13.123  12.268  71.110  1.00  0.00    -0.207 OA 
HETATM   10  H   UNL     1     -11.760  13.846  68.765  1.00  0.00     0.000 HD 
ENDROOT
BRANCH   7  11
HETATM   11  C   UNL     1     -11.431  11.709  68.520  1.00  0.00    -0.298 C  
BRANCH  11  12
HETATM   12  C   UNL     1     -10.176  10.836  68.992  1.00  0.00    -0.229 C  
BRANCH  12  13
HETATM   13  C   UNL     1     -10.295   9.872  70.268  1.00  0.00    -0.339 A  
HETATM   14  C   UNL     1     -11.431   9.466  70.943  1.00  0.00    -0.316 A  
HETATM   15  C   UNL     1      -6.982   8.441  71.780  1.00  0.00    -0.093 A  
HETATM   16  C   UNL     1      -7.521   8.008  72.989  1.00  0.00    -0.163 A  
HETATM   17  C   UNL     1      -8.896   8.095  73.205  1.00  0.00    -0.325 A  
HETATM   18  N   UNL     1     -11.072   8.770  72.097  1.00  0.00    -0.363 NA 
HETATM   19  C   UNL     1      -7.797   9.040  70.797  1.00  0.00    -0.156 A  
HETATM   20  C   UNL     1      -9.191   9.209  71.006  1.00  0.00    -0.321 A  
HETATM   21  C   UNL     1      -9.705   8.664  72.184  1.00  0.00    -0.313 A  
HETATM   22  H   UNL     1     -11.730   8.394  72.779  1.00  0.00     0.000 HD 
ENDBRANCH  12  13
ENDBRANCH  11  12
BRANCH  11  23
HETATM   23  C   UNL     1     -11.448  12.034  67.002  1.00  0.00    -0.338 C  
HETATM   24  N   UNL     1     -10.229  12.128  66.361  1.00  0.00    -0.216 N  
HETATM   25  H   UNL     1      -9.377  11.853  66.849  1.00  0.00     0.000 HD 
HETATM   26  O   UNL     1     -12.515  12.280  66.431  1.00  0.00    -0.377 OA 
BRANCH  24  27
HETATM   27  C   UNL     1     -10.153  12.615  65.003  1.00  0.00    -0.231 C  
BRANCH  27  28
HETATM   28  N   UNL     1     -10.839  11.687  64.141  1.00  0.00    -0.346 N  
HETATM   29  O   UNL     1      -9.061  11.362  62.700  1.00  0.00    -0.344 OA 
HETATM   30  C   UNL     1     -10.210  11.135  63.048  1.00  0.00    -0.214 C  
HETATM   31  H   UNL     1     -11.806  11.435  64.344  1.00  0.00     0.000 HD 
ENDBRANCH  27  28
BRANCH  27  32
HETATM   32  C   UNL     1     -10.473  14.103  64.742  1.00  0.00    -0.432 C  
BRANCH  32  33
HETATM   33  C   UNL     1      -9.983  15.330  65.494  1.00  0.00    -0.383 A  
HETATM   34  C   UNL     1      -9.089  17.043  66.749  1.00  0.00    -0.246 A  
HETATM   35  H   UNL     1     -10.322  18.522  65.870  1.00  0.00     0.000 HD 
HETATM   36  C   UNL     1      -8.295  17.745  67.670  1.00  0.00    -0.228 A  
HETATM   37  C   UNL     1     -10.583  16.544  65.171  1.00  0.00    -0.215 A  
HETATM   38  C   UNL     1      -7.398  17.012  68.438  1.00  0.00    -0.213 A  
HETATM   39  N   UNL     1     -10.047  17.541  65.920  1.00  0.00    -0.552 NA 
HETATM   40  C   UNL     1      -7.312  15.629  68.285  1.00  0.00    -0.117 A  
HETATM   41  C   UNL     1      -8.108  14.941  67.345  1.00  0.00    -0.218 A  
HETATM   42  C   UNL     1      -9.025  15.651  66.539  1.00  0.00    -0.343 A  
ENDBRANCH  32  33
ENDBRANCH  27  32
ENDBRANCH  24  27
ENDBRANCH  11  23
ENDBRANCH   7  11
TORSDOF 8
ENDMDL
MODEL       96
REMARK 921   NORMALIZED FREE ENERGY PREDICTED BY IDOCK:   -6.90 KCAL/MOL
REMARK 922        TOTAL FREE ENERGY PREDICTED BY IDOCK:  -12.27 KCAL/MOL
REMARK 923 INTER-LIGAND FREE ENERGY PREDICTED BY IDOCK:  -10.06 KCAL/MOL
REMARK 924 INTRA-LIGAND FREE ENERGY PREDICTED BY IDOCK:   -2.21 KCAL/MOL
REMARK 927      BINDING AFFINITY PREDICTED BY RF-SCORE:    0.00 PKD
ROOT
HETATM    1  C   UNL     1     -11.263   5.976  69.849  1.00  0.00    -0.438 C  
HETATM    2  C   UNL     1     -10.519   6.384  68.562  1.00  0.00    -0.224 C  
HETATM    3  C   UNL     1      -9.798   7.891  68.667  1.00  0.00    -0.170 C  
HETATM    4  N   UNL     1     -11.523   6.406  67.459  1.00  0.00    -0.675 NA 
HETATM    5  C   UNL     1      -9.560   5.198  68.262  1.00  0.00    -0.178 C  
HETATM    6  H2  UNL     1     -12.325   7.003  67.662  1.00  0.00     0.000 HD 
HETATM    7  N   UNL     1     -10.571   9.003  68.312  1.00  0.00    -0.359 N  
HETATM    8  H1  UNL     1     -11.030   6.676  66.607  1.00  0.00     0.000 HD 
HETATM    9  O   UNL     1      -8.647   8.024  69.080  1.00  0.00    -0.135 OA 
HETATM   10  H   UNL     1     -11.446   8.743  67.858  1.00  0.00     0.000 HD 
ENDROOT
BRANCH   7  11
HETATM   11  C   UNL     1     -10.401  10.556  68.453  1.00  0.00    -0.176 C  
BRANCH  11  12
HETATM   12  C   UNL     1     -11.607  11.594  68.609  1.00  0.00    -0.373 C  
BRANCH  12  13
HETATM   13  C   UNL     1     -12.202  11.932  70.060  1.00  0.00    -0.291 A  
HETATM   14  C   UNL     1     -12.526  11.064  71.085  1.00  0.00    -0.397 A  
HETATM   15  C   UNL     1     -12.897  15.687  70.912  1.00  0.00    -0.498 A  
HETATM   16  C   UNL     1     -13.689  15.462  72.034  1.00  0.00    -0.613 A  
HETATM   17  C   UNL     1     -13.864  14.163  72.509  1.00  0.00    -0.590 A  
HETATM   18  N   UNL     1     -13.173  11.759  72.107  1.00  0.00    -0.526 NA 
HETATM   19  C   UNL     1     -12.329  14.611  70.198  1.00  0.00    -0.390 A  
HETATM   20  C   UNL     1     -12.539  13.268  70.610  1.00  0.00    -0.305 A  
HETATM   21  C   UNL     1     -13.249  13.096  71.800  1.00  0.00    -0.403 A  
HETATM   22  H   UNL     1     -13.538  11.336  72.959  1.00  0.00     0.000 HD 
ENDBRANCH  12  13
ENDBRANCH  11  12
BRANCH  11  23
HETATM   23  C   UNL     1      -9.317  10.987  67.428  1.00  0.00    -0.155 C  
HETATM   24  N   UNL     1      -7.997  10.780  67.777  1.00  0.00    -0.109 N  
HETATM   25  H   UNL     1      -7.773  10.239  68.612  1.00  0.00     0.000 HD 
HETATM   26  O   UNL     1      -9.640  11.567  66.387  1.00  0.00    -0.198 OA 
BRANCH  24  27
HETATM   27  C   UNL     1      -6.932  11.327  66.968  1.00  0.00    -0.126 C  
BRANCH  27  28
HETATM   28  N   UNL     1      -7.189  11.002  65.588  1.00  0.00    -0.369 N  
HETATM   29  O   UNL     1      -6.965   8.717  65.850  1.00  0.00    -0.073 OA 
HETATM   30  C   UNL     1      -7.183   9.696  65.153  1.00  0.00    -0.115 C  
HETATM   31  H   UNL     1      -7.378  11.752  64.923  1.00  0.00     0.000 HD 
ENDBRANCH  27  28
BRANCH  27  32
HETATM   32  C   UNL     1      -6.497  12.786  67.223  1.00  0.00    -0.073 C  
BRANCH  32  33
HETATM   33  C   UNL     1      -7.297  13.927  67.831  1.00  0.00    -0.157 A  
HETATM   34  C   UNL     1      -8.634  15.661  68.548  1.00  0.00    -0.180 A  
HETATM   35  H   UNL     1      -7.671  15.817  70.426  1.00  0.00     0.000 HD 
HETATM   36  C   UNL     1      -9.633  16.648  68.579  1.00  0.00    -0.241 A  
HETATM   37  C   UNL     1      -6.941  14.326  69.117  1.00  0.00    -0.118 A  
HETATM   38  C   UNL     1     -10.416  16.808  67.442  1.00  0.00    -0.310 A  
HETATM   39  N   UNL     1      -7.737  15.349  69.522  1.00  0.00    -0.226 NA 
HETATM   40  C   UNL     1     -10.196  16.008  66.321  1.00  0.00    -0.329 A  
HETATM   41  C   UNL     1      -9.196  15.012  66.312  1.00  0.00    -0.324 A  
HETATM   42  C   UNL     1      -8.385  14.812  67.451  1.00  0.00    -0.218 A  
ENDBRANCH  32  33
ENDBRANCH  27  32
ENDBRANCH  24  27
ENDBRANCH  11  23
ENDBRANCH   7  11
TORSDOF 8
ENDMDL
MODEL       97
REMARK 921   NORMALIZED FREE ENERGY PREDICTED BY IDOCK:   -6.89 KCAL/MOL
REMARK 922        TOTAL FREE ENERGY PREDICTED BY IDOCK:  -12.26 KCAL/MOL
REMARK 923 INTER-LIGAND FREE ENERGY PREDICTED BY IDOCK:  -10.81 KCAL/MOL
REMARK 924 INTRA-LIGAND FREE ENERGY PREDICTED BY IDOCK:   -1.45 KCAL/MOL
REMARK 927      BINDING AFFINITY PREDICTED BY RF-SCORE:    0.00 PKD
ROOT
HETATM    1  C   UNL     1      -8.026   7.917  64.801  1.00  0.00    -0.140 C  
HETATM    2  C   UNL     1      -8.361   7.496  66.245  1.00  0.00    -0.134 C  
HETATM    3  C   UNL     1      -9.535   8.455  66.955  1.00  0.00    -0.174 C  
HETATM    4  N   UNL     1      -7.104   7.606  67.041  1.00  0.00    -0.082 NA 
HETATM    5  C   UNL     1      -8.693   5.981  66.153  1.00  0.00    -0.146 C  
HETATM    6  H2  UNL     1      -6.675   8.530  66.984  1.00  0.00     0.000 HD 
HETATM    7  N   UNL     1      -9.110   9.609  67.622  1.00  0.00    -0.131 N  
HETATM    8  H1  UNL     1      -7.326   7.327  67.997  1.00  0.00     0.000 HD 
HETATM    9  O   UNL     1     -10.731   8.180  66.861  1.00  0.00    -0.309 OA 
HETATM   10  H   UNL     1      -8.098   9.640  67.747  1.00  0.00     0.000 HD 
ENDROOT
BRANCH   7  11
HETATM   11  C   UNL     1      -9.831  10.867  68.223  1.00  0.00    -0.170 C  
BRANCH  11  12
HETATM   12  C   UNL     1     -11.356  10.898  68.704  1.00  0.00    -0.360 C  
BRANCH  12  13
HETATM   13  C   UNL     1     -11.776  10.242  70.106  1.00  0.00    -0.364 A  
HETATM   14  C   UNL     1     -12.652  10.726  71.059  1.00  0.00    -0.420 A  
HETATM   15  C   UNL     1     -10.140   6.823  71.076  1.00  0.00    -0.206 A  
HETATM   16  C   UNL     1     -10.493   6.842  72.422  1.00  0.00    -0.234 A  
HETATM   17  C   UNL     1     -11.307   7.864  72.910  1.00  0.00    -0.399 A  
HETATM   18  N   UNL     1     -12.595   9.927  72.202  1.00  0.00    -0.308 NA 
HETATM   19  C   UNL     1     -10.527   7.867  70.210  1.00  0.00    -0.225 A  
HETATM   20  C   UNL     1     -11.299   8.961  70.683  1.00  0.00    -0.299 A  
HETATM   21  C   UNL     1     -11.721   8.884  72.011  1.00  0.00    -0.367 A  
HETATM   22  H   UNL     1     -13.125  10.095  73.056  1.00  0.00     0.000 HD 
ENDBRANCH  12  13
ENDBRANCH  11  12
BRANCH  11  23
HETATM   23  C   UNL     1      -9.409  12.086  67.358  1.00  0.00    -0.178 C  
HETATM   24  N   UNL     1     -10.415  12.907  66.887  1.00  0.00    -0.245 N  
HETATM   25  H   UNL     1     -11.370  12.781  67.222  1.00  0.00     0.000 HD 
HETATM   26  O   UNL     1      -8.226  12.246  67.045  1.00  0.00    -0.177 OA 
BRANCH  24  27
HETATM   27  C   UNL     1     -10.122  13.942  65.922  1.00  0.00    -0.317 C  
BRANCH  27  28
HETATM   28  N   UNL     1     -10.127  13.359  64.605  1.00  0.00    -0.622 N  
HETATM   29  O   UNL     1     -12.231  12.420  64.782  1.00  0.00    -0.429 OA 
HETATM   30  C   UNL     1     -11.209  12.639  64.151  1.00  0.00    -0.386 C  
HETATM   31  H   UNL     1      -9.316  13.481  63.999  1.00  0.00     0.000 HD 
ENDBRANCH  27  28
BRANCH  27  32
HETATM   32  C   UNL     1     -10.873  15.285  66.043  1.00  0.00    -0.331 C  
BRANCH  32  33
HETATM   33  C   UNL     1     -10.631  16.429  67.013  1.00  0.00    -0.260 A  
HETATM   34  C   UNL     1     -10.259  18.308  68.294  1.00  0.00    -0.385 A  
HETATM   35  H   UNL     1     -10.259  17.239  70.121  1.00  0.00     0.000 HD 
HETATM   36  C   UNL     1     -10.046  19.645  68.667  1.00  0.00    -0.547 A  
HETATM   37  C   UNL     1     -10.569  16.102  68.365  1.00  0.00    -0.286 A  
HETATM   38  C   UNL     1      -9.959  20.591  67.652  1.00  0.00    -0.454 A  
HETATM   39  N   UNL     1     -10.347  17.219  69.105  1.00  0.00    -0.328 NA 
HETATM   40  C   UNL     1     -10.074  20.201  66.319  1.00  0.00    -0.552 A  
HETATM   41  C   UNL     1     -10.301  18.854  65.963  1.00  0.00    -0.485 A  
HETATM   42  C   UNL     1     -10.405  17.864  66.965  1.00  0.00    -0.366 A  
ENDBRANCH  32  33
ENDBRANCH  27  32
ENDBRANCH  24  27
ENDBRANCH  11  23
ENDBRANCH   7  11
TORSDOF 8
ENDMDL
MODEL       98
REMARK 921   NORMALIZED FREE ENERGY PREDICTED BY IDOCK:   -6.89 KCAL/MOL
REMARK 922        TOTAL FREE ENERGY PREDICTED BY IDOCK:  -12.25 KCAL/MOL
REMARK 923 INTER-LIGAND FREE ENERGY PREDICTED BY IDOCK:  -10.29 KCAL/MOL
REMARK 924 INTRA-LIGAND FREE ENERGY PREDICTED BY IDOCK:   -1.96 KCAL/MOL
REMARK 927      BINDING AFFINITY PREDICTED BY RF-SCORE:    0.00 PKD
ROOT
HETATM    1  C   UNL     1      -6.920  13.081  68.208  1.00  0.00    -0.101 C  
HETATM    2  C   UNL     1      -6.775  11.646  68.751  1.00  0.00    -0.077 C  
HETATM    3  C   UNL     1      -8.125  10.697  68.474  1.00  0.00    -0.125 C  
HETATM    4  N   UNL     1      -6.553  11.750  70.222  1.00  0.00    -0.491 NA 
HETATM    5  C   UNL     1      -5.445  11.120  68.141  1.00  0.00    -0.042 C  
HETATM    6  H2  UNL     1      -7.280  12.285  70.698  1.00  0.00     0.000 HD 
HETATM    7  N   UNL     1      -9.142  10.724  69.435  1.00  0.00    -0.397 N  
HETATM    8  H1  UNL     1      -6.457  10.800  70.582  1.00  0.00     0.000 HD 
HETATM    9  O   UNL     1      -8.241  10.031  67.446  1.00  0.00    -0.117 OA 
HETATM   10  H   UNL     1      -8.859  11.197  70.293  1.00  0.00     0.000 HD 
ENDROOT
BRANCH   7  11
HETATM   11  C   UNL     1     -10.618  10.195  69.497  1.00  0.00    -0.245 C  
BRANCH  11  12
HETATM   12  C   UNL     1     -11.920  11.104  69.310  1.00  0.00    -0.421 C  
BRANCH  12  13
HETATM   13  C   UNL     1     -11.849  12.453  68.444  1.00  0.00    -0.361 A  
HETATM   14  C   UNL     1     -12.090  13.753  68.847  1.00  0.00    -0.313 A  
HETATM   15  C   UNL     1     -10.902  12.136  64.661  1.00  0.00    -0.351 A  
HETATM   16  C   UNL     1     -11.305  13.413  64.279  1.00  0.00    -0.420 A  
HETATM   17  C   UNL     1     -11.743  14.319  65.244  1.00  0.00    -0.357 A  
HETATM   18  N   UNL     1     -12.085  14.599  67.738  1.00  0.00    -0.587 NA 
HETATM   19  C   UNL     1     -11.004  11.716  66.004  1.00  0.00    -0.338 A  
HETATM   20  C   UNL     1     -11.509  12.586  67.006  1.00  0.00    -0.419 A  
HETATM   21  C   UNL     1     -11.799  13.889  66.597  1.00  0.00    -0.420 A  
HETATM   22  H   UNL     1     -12.269  15.601  67.770  1.00  0.00     0.000 HD 
ENDBRANCH  12  13
ENDBRANCH  11  12
BRANCH  11  23
HETATM   23  C   UNL     1     -10.695   9.208  70.693  1.00  0.00    -0.254 C  
HETATM   24  N   UNL     1     -11.820   8.413  70.787  1.00  0.00    -0.447 N  
HETATM   25  H   UNL     1     -12.490   8.389  70.018  1.00  0.00     0.000 HD 
HETATM   26  O   UNL     1      -9.816   9.212  71.560  1.00  0.00    -0.304 OA 
BRANCH  24  27
HETATM   27  C   UNL     1     -12.054   7.614  71.968  1.00  0.00    -0.299 C  
BRANCH  27  28
HETATM   28  N   UNL     1     -13.426   7.781  72.373  1.00  0.00    -0.498 N  
HETATM   29  O   UNL     1     -13.375  10.092  72.391  1.00  0.00    -0.368 OA 
HETATM   30  C   UNL     1     -13.968   9.035  72.547  1.00  0.00    -0.401 C  
HETATM   31  H   UNL     1     -14.005   6.958  72.534  1.00  0.00     0.000 HD 
ENDBRANCH  27  28
BRANCH  27  32
HETATM   32  C   UNL     1     -11.547   6.156  71.975  1.00  0.00    -0.364 C  
BRANCH  32  33
HETATM   33  C   UNL     1     -10.571   5.481  71.025  1.00  0.00    -0.300 A  
HETATM   34  C   UNL     1      -9.216   4.558  69.406  1.00  0.00    -0.129 A  
HETATM   35  H   UNL     1      -7.967   3.578  70.806  1.00  0.00     0.000 HD 
HETATM   36  C   UNL     1      -8.673   4.225  68.154  1.00  0.00    -0.118 A  
HETATM   37  C   UNL     1      -9.560   4.717  71.603  1.00  0.00    -0.158 A  
HETATM   38  C   UNL     1      -9.321   4.706  67.023  1.00  0.00    -0.153 A  
HETATM   39  N   UNL     1      -8.773   4.180  70.636  1.00  0.00    -0.074 NA 
HETATM   40  C   UNL     1     -10.471   5.484  67.151  1.00  0.00    -0.321 A  
HETATM   41  C   UNL     1     -10.995   5.820  68.418  1.00  0.00    -0.159 A  
HETATM   42  C   UNL     1     -10.360   5.359  69.592  1.00  0.00    -0.361 A  
ENDBRANCH  32  33
ENDBRANCH  27  32
ENDBRANCH  24  27
ENDBRANCH  11  23
ENDBRANCH   7  11
TORSDOF 8
ENDMDL
MODEL       99
REMARK 921   NORMALIZED FREE ENERGY PREDICTED BY IDOCK:   -6.87 KCAL/MOL
REMARK 922        TOTAL FREE ENERGY PREDICTED BY IDOCK:  -12.23 KCAL/MOL
REMARK 923 INTER-LIGAND FREE ENERGY PREDICTED BY IDOCK:  -10.91 KCAL/MOL
REMARK 924 INTRA-LIGAND FREE ENERGY PREDICTED BY IDOCK:   -1.32 KCAL/MOL
REMARK 927      BINDING AFFINITY PREDICTED BY RF-SCORE:    0.00 PKD
ROOT
HETATM    1  C   UNL     1     -12.248  14.139  64.178  1.00  0.00    -0.423 C  
HETATM    2  C   UNL     1     -11.706  12.700  64.077  1.00  0.00    -0.424 C  
HETATM    3  C   UNL     1     -10.971  12.172  65.485  1.00  0.00    -0.301 C  
HETATM    4  N   UNL     1     -10.701  12.682  62.974  1.00  0.00    -0.471 NA 
HETATM    5  C   UNL     1     -12.912  11.851  63.588  1.00  0.00    -0.317 C  
HETATM    6  H2  UNL     1      -9.965  13.378  63.094  1.00  0.00     0.000 HD 
HETATM    7  N   UNL     1      -9.606  12.442  65.642  1.00  0.00    -0.411 N  
HETATM    8  H1  UNL     1     -10.343  11.729  62.907  1.00  0.00     0.000 HD 
HETATM    9  O   UNL     1     -11.612  11.604  66.369  1.00  0.00    -0.447 OA 
HETATM   10  H   UNL     1      -9.173  12.785  64.785  1.00  0.00     0.000 HD 
ENDROOT
BRANCH   7  11
HETATM   11  C   UNL     1      -8.590  12.339  66.834  1.00  0.00    -0.182 C  
BRANCH  11  12
HETATM   12  C   UNL     1      -8.389  11.043  67.749  1.00  0.00    -0.118 C  
BRANCH  12  13
HETATM   13  C   UNL     1      -8.865   9.602  67.229  1.00  0.00    -0.139 A  
HETATM   14  C   UNL     1      -8.712   9.042  65.974  1.00  0.00    -0.160 A  
HETATM   15  C   UNL     1     -10.754   7.288  69.756  1.00  0.00    -0.253 A  
HETATM   16  C   UNL     1     -11.253   6.387  68.819  1.00  0.00    -0.358 A  
HETATM   17  C   UNL     1     -10.879   6.501  67.481  1.00  0.00    -0.433 A  
HETATM   18  N   UNL     1      -9.424   7.845  65.902  1.00  0.00    -0.423 NA 
HETATM   19  C   UNL     1      -9.935   8.367  69.359  1.00  0.00    -0.191 A  
HETATM   20  C   UNL     1      -9.587   8.557  67.995  1.00  0.00    -0.168 A  
HETATM   21  C   UNL     1     -10.020   7.570  67.109  1.00  0.00    -0.220 A  
HETATM   22  H   UNL     1      -9.493   7.258  65.071  1.00  0.00     0.000 HD 
ENDBRANCH  12  13
ENDBRANCH  11  12
BRANCH  11  23
HETATM   23  C   UNL     1      -8.685  13.671  67.625  1.00  0.00    -0.182 C  
HETATM   24  N   UNL     1      -9.499  14.659  67.107  1.00  0.00    -0.221 N  
HETATM   25  H   UNL     1     -10.110  14.450  66.318  1.00  0.00     0.000 HD 
HETATM   26  O   UNL     1      -7.985  13.851  68.626  1.00  0.00    -0.138 OA 
BRANCH  24  27
HETATM   27  C   UNL     1      -9.489  15.988  67.675  1.00  0.00    -0.216 C  
BRANCH  27  28
HETATM   28  N   UNL     1      -9.125  16.927  66.646  1.00  0.00    -0.241 N  
HETATM   29  O   UNL     1      -7.857  18.286  68.020  1.00  0.00    -0.251 OA 
HETATM   30  C   UNL     1      -8.322  18.010  66.924  1.00  0.00    -0.247 C  
HETATM   31  H   UNL     1      -9.467  16.787  65.696  1.00  0.00     0.000 HD 
ENDBRANCH  27  28
BRANCH  27  32
HETATM   32  C   UNL     1     -10.685  16.415  68.552  1.00  0.00    -0.320 C  
BRANCH  32  33
HETATM   33  C   UNL     1     -11.497  15.581  69.530  1.00  0.00    -0.341 A  
HETATM   34  C   UNL     1     -12.689  14.490  71.173  1.00  0.00    -0.338 A  
HETATM   35  H   UNL     1     -13.151  12.834  69.939  1.00  0.00     0.000 HD 
HETATM   36  C   UNL     1     -13.302  14.198  72.402  1.00  0.00    -0.591 A  
HETATM   37  C   UNL     1     -11.995  14.369  69.058  1.00  0.00    -0.307 A  
HETATM   38  C   UNL     1     -13.134  15.108  73.439  1.00  0.00    -0.588 A  
HETATM   39  N   UNL     1     -12.692  13.739  70.038  1.00  0.00    -0.135 NA 
HETATM   40  C   UNL     1     -12.373  16.260  73.243  1.00  0.00    -0.615 A  
HETATM   41  C   UNL     1     -11.774  16.544  71.997  1.00  0.00    -0.301 A  
HETATM   42  C   UNL     1     -11.930  15.649  70.916  1.00  0.00    -0.440 A  
ENDBRANCH  32  33
ENDBRANCH  27  32
ENDBRANCH  24  27
ENDBRANCH  11  23
ENDBRANCH   7  11
TORSDOF 8
ENDMDL
MODEL      100
REMARK 921   NORMALIZED FREE ENERGY PREDICTED BY IDOCK:   -6.87 KCAL/MOL
REMARK 922        TOTAL FREE ENERGY PREDICTED BY IDOCK:  -12.23 KCAL/MOL
REMARK 923 INTER-LIGAND FREE ENERGY PREDICTED BY IDOCK:  -10.65 KCAL/MOL
REMARK 924 INTRA-LIGAND FREE ENERGY PREDICTED BY IDOCK:   -1.58 KCAL/MOL
REMARK 927      BINDING AFFINITY PREDICTED BY RF-SCORE:    0.00 PKD
ROOT
HETATM    1  C   UNL     1     -12.237  14.371  64.212  1.00  0.00    -0.450 C  
HETATM    2  C   UNL     1     -11.514  13.018  64.358  1.00  0.00    -0.365 C  
HETATM    3  C   UNL     1     -11.133  12.642  65.944  1.00  0.00    -0.289 C  
HETATM    4  N   UNL     1     -10.251  13.103  63.568  1.00  0.00    -0.501 NA 
HETATM    5  C   UNL     1     -12.425  11.996  63.623  1.00  0.00    -0.637 C  
HETATM    6  H2  UNL     1      -9.668  13.898  63.832  1.00  0.00     0.000 HD 
HETATM    7  N   UNL     1      -9.909  13.102  66.441  1.00  0.00    -0.274 N  
HETATM    8  H1  UNL     1      -9.773  12.207  63.664  1.00  0.00     0.000 HD 
HETATM    9  O   UNL     1     -11.917  12.020  66.661  1.00  0.00    -0.614 OA 
HETATM   10  H   UNL     1      -9.303  13.474  65.710  1.00  0.00     0.000 HD 
ENDROOT
BRANCH   7  11
HETATM   11  C   UNL     1      -9.253  13.178  67.865  1.00  0.00    -0.207 C  
BRANCH  11  12
HETATM   12  C   UNL     1      -8.461  14.445  68.436  1.00  0.00    -0.165 C  
BRANCH  12  13
HETATM   13  C   UNL     1      -9.221  15.837  68.673  1.00  0.00    -0.207 A  
HETATM   14  C   UNL     1     -10.226  16.131  69.576  1.00  0.00    -0.261 A  
HETATM   15  C   UNL     1      -8.199  18.873  66.427  1.00  0.00    -0.306 A  
HETATM   16  C   UNL     1      -9.298  19.676  66.718  1.00  0.00    -0.451 A  
HETATM   17  C   UNL     1     -10.225  19.262  67.673  1.00  0.00    -0.507 A  
HETATM   18  N   UNL     1     -10.723  17.411  69.330  1.00  0.00    -0.352 NA 
HETATM   19  C   UNL     1      -8.048  17.605  67.028  1.00  0.00    -0.243 A  
HETATM   20  C   UNL     1      -9.007  17.118  67.956  1.00  0.00    -0.233 A  
HETATM   21  C   UNL     1     -10.032  18.000  68.298  1.00  0.00    -0.371 A  
HETATM   22  H   UNL     1     -11.489  17.846  69.842  1.00  0.00     0.000 HD 
ENDBRANCH  12  13
ENDBRANCH  11  12
BRANCH  11  23
HETATM   23  C   UNL     1      -8.546  11.818  68.110  1.00  0.00    -0.160 C  
HETATM   24  N   UNL     1      -9.204  10.895  68.899  1.00  0.00    -0.264 N  
HETATM   25  H   UNL     1     -10.170  11.065  69.178  1.00  0.00     0.000 HD 
HETATM   26  O   UNL     1      -7.405  11.624  67.680  1.00  0.00    -0.095 OA 
BRANCH  24  27
HETATM   27  C   UNL     1      -8.532   9.691  69.330  1.00  0.00    -0.156 C  
BRANCH  27  28
HETATM   28  N   UNL     1      -7.921   9.938  70.611  1.00  0.00    -0.129 N  
HETATM   29  O   UNL     1      -5.758   9.516  69.915  1.00  0.00    -0.035 OA 
HETATM   30  C   UNL     1      -6.560   9.826  70.783  1.00  0.00    -0.088 C  
HETATM   31  H   UNL     1      -8.507  10.200  71.404  1.00  0.00     0.000 HD 
ENDBRANCH  27  28
BRANCH  27  32
HETATM   32  C   UNL     1      -9.291   8.352  69.218  1.00  0.00    -0.154 C  
BRANCH  32  33
HETATM   33  C   UNL     1     -10.552   7.907  69.941  1.00  0.00    -0.242 A  
HETATM   34  C   UNL     1     -12.495   7.462  71.097  1.00  0.00    -0.308 A  
HETATM   35  H   UNL     1     -12.427   5.385  70.698  1.00  0.00     0.000 HD 
HETATM   36  C   UNL     1     -13.662   7.638  71.858  1.00  0.00    -0.337 A  
HETATM   37  C   UNL     1     -10.854   6.548  69.896  1.00  0.00    -0.286 A  
HETATM   38  C   UNL     1     -13.951   8.921  72.306  1.00  0.00    -0.531 A  
HETATM   39  N   UNL     1     -12.000   6.304  70.583  1.00  0.00    -0.163 NA 
HETATM   40  C   UNL     1     -13.095   9.979  72.003  1.00  0.00    -0.541 A  
HETATM   41  C   UNL     1     -11.933   9.786  71.226  1.00  0.00    -0.471 A  
HETATM   42  C   UNL     1     -11.609   8.499  70.744  1.00  0.00    -0.257 A  
ENDBRANCH  32  33
ENDBRANCH  27  32
ENDBRANCH  24  27
ENDBRANCH  11  23
ENDBRANCH   7  11
TORSDOF 8
ENDMDL
MODEL      101
REMARK 921   NORMALIZED FREE ENERGY PREDICTED BY IDOCK:   -6.86 KCAL/MOL
REMARK 922        TOTAL FREE ENERGY PREDICTED BY IDOCK:  -12.21 KCAL/MOL
REMARK 923 INTER-LIGAND FREE ENERGY PREDICTED BY IDOCK:   -9.93 KCAL/MOL
REMARK 924 INTRA-LIGAND FREE ENERGY PREDICTED BY IDOCK:   -2.27 KCAL/MOL
REMARK 927      BINDING AFFINITY PREDICTED BY RF-SCORE:    0.00 PKD
ROOT
HETATM    1  C   UNL     1      -6.451   9.873  63.958  1.00  0.00    -0.126 C  
HETATM    2  C   UNL     1      -7.562   8.944  64.483  1.00  0.00    -0.109 C  
HETATM    3  C   UNL     1      -8.817   9.769  65.221  1.00  0.00    -0.175 C  
HETATM    4  N   UNL     1      -6.937   8.027  65.480  1.00  0.00    -0.059 NA 
HETATM    5  C   UNL     1      -7.958   8.065  63.264  1.00  0.00    -0.143 C  
HETATM    6  H2  UNL     1      -6.446   8.522  66.225  1.00  0.00     0.000 HD 
HETATM    7  N   UNL     1      -8.697  10.038  66.589  1.00  0.00    -0.128 N  
HETATM    8  H1  UNL     1      -7.673   7.411  65.827  1.00  0.00     0.000 HD 
HETATM    9  O   UNL     1      -9.791  10.162  64.580  1.00  0.00    -0.324 OA 
HETATM   10  H   UNL     1      -7.920   9.538  67.021  1.00  0.00     0.000 HD 
ENDROOT
BRANCH   7  11
HETATM   11  C   UNL     1      -9.483  10.933  67.612  1.00  0.00    -0.159 C  
BRANCH  11  12
HETATM   12  C   UNL     1     -10.857  10.516  68.317  1.00  0.00    -0.293 C  
BRANCH  12  13
HETATM   13  C   UNL     1     -10.976   9.119  69.095  1.00  0.00    -0.057 A  
HETATM   14  C   UNL     1     -11.274   8.892  70.426  1.00  0.00    -0.230 A  
HETATM   15  C   UNL     1     -10.330   5.842  67.057  1.00  0.00    -0.303 A  
HETATM   16  C   UNL     1     -10.187   4.990  68.148  1.00  0.00    -0.141 A  
HETATM   17  C   UNL     1     -10.408   5.472  69.438  1.00  0.00    -0.348 A  
HETATM   18  N   UNL     1     -11.104   7.540  70.724  1.00  0.00    -0.260 NA 
HETATM   19  C   UNL     1     -10.618   7.211  67.240  1.00  0.00    -0.398 A  
HETATM   20  C   UNL     1     -10.783   7.756  68.541  1.00  0.00    -0.080 A  
HETATM   21  C   UNL     1     -10.739   6.845  69.597  1.00  0.00    -0.245 A  
HETATM   22  H   UNL     1     -11.233   7.127  71.647  1.00  0.00     0.000 HD 
ENDBRANCH  12  13
ENDBRANCH  11  12
BRANCH  11  23
HETATM   23  C   UNL     1      -9.465  12.381  67.053  1.00  0.00    -0.211 C  
HETATM   24  N   UNL     1     -10.489  12.743  66.200  1.00  0.00    -0.263 N  
HETATM   25  H   UNL     1     -11.286  12.119  66.071  1.00  0.00     0.000 HD 
HETATM   26  O   UNL     1      -8.519  13.133  67.304  1.00  0.00    -0.189 OA 
BRANCH  24  27
HETATM   27  C   UNL     1     -10.439  14.000  65.490  1.00  0.00    -0.327 C  
BRANCH  27  28
HETATM   28  N   UNL     1     -10.798  13.767  64.114  1.00  0.00    -0.568 N  
HETATM   29  O   UNL     1     -12.874  12.861  64.574  1.00  0.00    -0.697 OA 
HETATM   30  C   UNL     1     -12.012  13.209  63.782  1.00  0.00    -0.508 C  
HETATM   31  H   UNL     1     -10.143  14.020  63.375  1.00  0.00     0.000 HD 
ENDBRANCH  27  28
BRANCH  27  32
HETATM   32  C   UNL     1     -11.107  15.232  66.137  1.00  0.00    -0.280 C  
BRANCH  32  33
HETATM   33  C   UNL     1     -11.124  15.649  67.599  1.00  0.00    -0.305 A  
HETATM   34  C   UNL     1     -11.248  16.069  69.861  1.00  0.00    -0.361 A  
HETATM   35  H   UNL     1     -10.386  17.995  69.696  1.00  0.00     0.000 HD 
HETATM   36  C   UNL     1     -11.497  15.909  71.233  1.00  0.00    -0.489 A  
HETATM   37  C   UNL     1     -10.611  16.909  67.897  1.00  0.00    -0.361 A  
HETATM   38  C   UNL     1     -12.108  14.730  71.644  1.00  0.00    -0.414 A  
HETATM   39  N   UNL     1     -10.694  17.141  69.232  1.00  0.00    -0.245 NA 
HETATM   40  C   UNL     1     -12.458  13.759  70.707  1.00  0.00    -0.441 A  
HETATM   41  C   UNL     1     -12.189  13.932  69.332  1.00  0.00    -0.338 A  
HETATM   42  C   UNL     1     -11.561  15.111  68.876  1.00  0.00    -0.361 A  
ENDBRANCH  32  33
ENDBRANCH  27  32
ENDBRANCH  24  27
ENDBRANCH  11  23
ENDBRANCH   7  11
TORSDOF 8
ENDMDL
MODEL      102
REMARK 921   NORMALIZED FREE ENERGY PREDICTED BY IDOCK:   -6.85 KCAL/MOL
REMARK 922        TOTAL FREE ENERGY PREDICTED BY IDOCK:  -12.20 KCAL/MOL
REMARK 923 INTER-LIGAND FREE ENERGY PREDICTED BY IDOCK:  -10.12 KCAL/MOL
REMARK 924 INTRA-LIGAND FREE ENERGY PREDICTED BY IDOCK:   -2.08 KCAL/MOL
REMARK 927      BINDING AFFINITY PREDICTED BY RF-SCORE:    0.00 PKD
ROOT
HETATM    1  C   UNL     1     -12.754   7.011  71.123  1.00  0.00    -0.361 C  
HETATM    2  C   UNL     1     -11.292   7.117  70.646  1.00  0.00    -0.292 C  
HETATM    3  C   UNL     1     -10.719   8.690  70.620  1.00  0.00    -0.222 C  
HETATM    4  N   UNL     1     -11.237   6.562  69.263  1.00  0.00    -0.501 NA 
HETATM    5  C   UNL     1     -10.504   6.128  71.549  1.00  0.00    -0.268 C  
HETATM    6  H2  UNL     1     -11.898   7.009  68.627  1.00  0.00     0.000 HD 
HETATM    7  N   UNL     1     -10.926   9.433  69.451  1.00  0.00    -0.377 N  
HETATM    8  H1  UNL     1     -10.269   6.632  68.947  1.00  0.00     0.000 HD 
HETATM    9  O   UNL     1     -10.175   9.190  71.603  1.00  0.00    -0.336 OA 
HETATM   10  H   UNL     1     -11.256   8.860  68.675  1.00  0.00     0.000 HD 
ENDROOT
BRANCH   7  11
HETATM   11  C   UNL     1     -10.766  10.944  69.062  1.00  0.00    -0.224 C  
BRANCH  11  12
HETATM   12  C   UNL     1     -11.941  11.865  68.485  1.00  0.00    -0.273 C  
BRANCH  12  13
HETATM   13  C   UNL     1     -12.114  13.373  69.001  1.00  0.00    -0.299 A  
HETATM   14  C   UNL     1     -11.865  14.553  68.325  1.00  0.00    -0.312 A  
HETATM   15  C   UNL     1     -13.380  13.909  72.665  1.00  0.00    -0.640 A  
HETATM   16  C   UNL     1     -13.037  15.254  72.767  1.00  0.00    -0.561 A  
HETATM   17  C   UNL     1     -12.535  15.927  71.654  1.00  0.00    -0.502 A  
HETATM   18  N   UNL     1     -11.983  15.633  69.200  1.00  0.00    -0.519 NA 
HETATM   19  C   UNL     1     -13.153  13.192  71.471  1.00  0.00    -0.404 A  
HETATM   20  C   UNL     1     -12.580  13.825  70.336  1.00  0.00    -0.325 A  
HETATM   21  C   UNL     1     -12.353  15.197  70.449  1.00  0.00    -0.363 A  
HETATM   22  H   UNL     1     -11.817  16.607  68.948  1.00  0.00     0.000 HD 
ENDBRANCH  12  13
ENDBRANCH  11  12
BRANCH  11  23
HETATM   23  C   UNL     1      -9.420  11.075  68.300  1.00  0.00    -0.172 C  
HETATM   24  N   UNL     1      -8.287  11.317  69.053  1.00  0.00    -0.355 N  
HETATM   25  H   UNL     1      -8.335  11.266  70.070  1.00  0.00     0.000 HD 
HETATM   26  O   UNL     1      -9.398  11.047  67.066  1.00  0.00    -0.169 OA 
BRANCH  24  27
HETATM   27  C   UNL     1      -7.037  11.642  68.407  1.00  0.00    -0.083 C  
BRANCH  27  28
HETATM   28  N   UNL     1      -6.558  10.474  67.714  1.00  0.00    -0.061 N  
HETATM   29  O   UNL     1      -5.498   9.544  69.546  1.00  0.00    -0.034 OA 
HETATM   30  C   UNL     1      -5.819   9.513  68.367  1.00  0.00    -0.040 C  
HETATM   31  H   UNL     1      -6.770  10.356  66.724  1.00  0.00     0.000 HD 
ENDBRANCH  27  28
BRANCH  27  32
HETATM   32  C   UNL     1      -6.951  12.957  67.602  1.00  0.00    -0.152 C  
BRANCH  32  33
HETATM   33  C   UNL     1      -7.565  14.311  67.918  1.00  0.00    -0.159 A  
HETATM   34  C   UNL     1      -8.614  16.344  68.189  1.00  0.00    -0.193 A  
HETATM   35  H   UNL     1      -7.695  16.731  70.056  1.00  0.00     0.000 HD 
HETATM   36  C   UNL     1      -9.433  17.461  67.960  1.00  0.00    -0.281 A  
HETATM   37  C   UNL     1      -7.186  14.906  69.118  1.00  0.00    -0.153 A  
HETATM   38  C   UNL     1     -10.145  17.504  66.767  1.00  0.00    -0.320 A  
HETATM   39  N   UNL     1      -7.811  16.103  69.261  1.00  0.00    -0.234 NA 
HETATM   40  C   UNL     1     -10.029  16.466  65.844  1.00  0.00    -0.358 A  
HETATM   41  C   UNL     1      -9.210  15.344  66.097  1.00  0.00    -0.362 A  
HETATM   42  C   UNL     1      -8.479  15.259  67.302  1.00  0.00    -0.216 A  
ENDBRANCH  32  33
ENDBRANCH  27  32
ENDBRANCH  24  27
ENDBRANCH  11  23
ENDBRANCH   7  11
TORSDOF 8
ENDMDL
MODEL      103
REMARK 921   NORMALIZED FREE ENERGY PREDICTED BY IDOCK:   -6.84 KCAL/MOL
REMARK 922        TOTAL FREE ENERGY PREDICTED BY IDOCK:  -12.19 KCAL/MOL
REMARK 923 INTER-LIGAND FREE ENERGY PREDICTED BY IDOCK:  -10.44 KCAL/MOL
REMARK 924 INTRA-LIGAND FREE ENERGY PREDICTED BY IDOCK:   -1.75 KCAL/MOL
REMARK 927      BINDING AFFINITY PREDICTED BY RF-SCORE:    0.00 PKD
ROOT
HETATM    1  C   UNL     1      -9.544   6.778  71.151  1.00  0.00    -0.177 C  
HETATM    2  C   UNL     1      -9.983   8.064  71.878  1.00  0.00    -0.195 C  
HETATM    3  C   UNL     1     -10.859   9.106  70.904  1.00  0.00    -0.278 C  
HETATM    4  N   UNL     1      -8.745   8.760  72.334  1.00  0.00    -0.403 NA 
HETATM    5  C   UNL     1     -10.709   7.571  73.160  1.00  0.00    -0.452 C  
HETATM    6  H2  UNL     1      -8.084   8.935  71.577  1.00  0.00     0.000 HD 
HETATM    7  N   UNL     1     -10.141  10.039  70.146  1.00  0.00    -0.361 N  
HETATM    8  H1  UNL     1      -9.036   9.611  72.815  1.00  0.00     0.000 HD 
HETATM    9  O   UNL     1     -12.084   9.029  70.822  1.00  0.00    -0.242 OA 
HETATM   10  H   UNL     1      -9.159  10.089  70.414  1.00  0.00     0.000 HD 
ENDROOT
BRANCH   7  11
HETATM   11  C   UNL     1     -10.501  11.026  68.980  1.00  0.00    -0.216 C  
BRANCH  11  12
HETATM   12  C   UNL     1     -11.268  10.609  67.639  1.00  0.00    -0.361 C  
BRANCH  12  13
HETATM   13  C   UNL     1     -10.482   9.865  66.456  1.00  0.00    -0.213 A  
HETATM   14  C   UNL     1      -9.920   8.602  66.451  1.00  0.00    -0.260 A  
HETATM   15  C   UNL     1     -10.005  11.802  63.090  1.00  0.00    -0.373 A  
HETATM   16  C   UNL     1      -9.026  10.970  62.553  1.00  0.00    -0.366 A  
HETATM   17  C   UNL     1      -8.660   9.806  63.228  1.00  0.00    -0.200 A  
HETATM   18  N   UNL     1      -9.184   8.417  65.281  1.00  0.00    -0.410 NA 
HETATM   19  C   UNL     1     -10.580  11.527  64.349  1.00  0.00    -0.392 A  
HETATM   20  C   UNL     1     -10.184  10.388  65.099  1.00  0.00    -0.326 A  
HETATM   21  C   UNL     1      -9.281   9.526  64.475  1.00  0.00    -0.162 A  
HETATM   22  H   UNL     1      -8.651   7.578  65.055  1.00  0.00     0.000 HD 
ENDBRANCH  12  13
ENDBRANCH  11  12
BRANCH  11  23
HETATM   23  C   UNL     1      -9.259  11.928  68.752  1.00  0.00     0.034 C  
HETATM   24  N   UNL     1      -9.440  13.293  68.850  1.00  0.00    -0.396 N  
HETATM   25  H   UNL     1     -10.325  13.663  69.198  1.00  0.00     0.000 HD 
HETATM   26  O   UNL     1      -8.182  11.429  68.411  1.00  0.00    -0.137 OA 
BRANCH  24  27
HETATM   27  C   UNL     1      -8.385  14.201  68.463  1.00  0.00    -0.155 C  
BRANCH  27  28
HETATM   28  N   UNL     1      -8.422  14.368  67.033  1.00  0.00    -0.318 N  
HETATM   29  O   UNL     1     -10.672  14.886  66.925  1.00  0.00    -0.295 OA 
HETATM   30  C   UNL     1      -9.590  14.705  66.387  1.00  0.00    -0.301 C  
HETATM   31  H   UNL     1      -7.570  14.233  66.490  1.00  0.00     0.000 HD 
ENDBRANCH  27  28
BRANCH  27  32
HETATM   32  C   UNL     1      -8.216  15.508  69.266  1.00  0.00    -0.255 C  
BRANCH  32  33
HETATM   33  C   UNL     1      -8.035  16.927  68.752  1.00  0.00    -0.254 A  
HETATM   34  C   UNL     1      -7.998  19.082  67.937  1.00  0.00    -0.277 A  
HETATM   35  H   UNL     1      -5.902  19.282  68.156  1.00  0.00     0.000 HD 
HETATM   36  C   UNL     1      -8.419  20.316  67.417  1.00  0.00    -0.405 A  
HETATM   37  C   UNL     1      -6.737  17.431  68.747  1.00  0.00    -0.219 A  
HETATM   38  C   UNL     1      -9.770  20.467  67.128  1.00  0.00    -0.581 A  
HETATM   39  N   UNL     1      -6.733  18.700  68.262  1.00  0.00    -0.220 NA 
HETATM   40  C   UNL     1     -10.656  19.414  67.352  1.00  0.00    -0.603 A  
HETATM   41  C   UNL     1     -10.217  18.184  67.888  1.00  0.00    -0.391 A  
HETATM   42  C   UNL     1      -8.854  17.995  68.203  1.00  0.00    -0.277 A  
ENDBRANCH  32  33
ENDBRANCH  27  32
ENDBRANCH  24  27
ENDBRANCH  11  23
ENDBRANCH   7  11
TORSDOF 8
ENDMDL
MODEL      104
REMARK 921   NORMALIZED FREE ENERGY PREDICTED BY IDOCK:   -6.83 KCAL/MOL
REMARK 922        TOTAL FREE ENERGY PREDICTED BY IDOCK:  -12.17 KCAL/MOL
REMARK 923 INTER-LIGAND FREE ENERGY PREDICTED BY IDOCK:   -8.45 KCAL/MOL
REMARK 924 INTRA-LIGAND FREE ENERGY PREDICTED BY IDOCK:   -3.73 KCAL/MOL
REMARK 927      BINDING AFFINITY PREDICTED BY RF-SCORE:    0.00 PKD
ROOT
HETATM    1  C   UNL     1     -10.231  14.579  65.568  1.00  0.00    -0.394 C  
HETATM    2  C   UNL     1     -10.895  13.371  64.879  1.00  0.00    -0.352 C  
HETATM    3  C   UNL     1     -11.048  12.041  65.884  1.00  0.00    -0.324 C  
HETATM    4  N   UNL     1     -10.040  12.998  63.716  1.00  0.00    -0.744 NA 
HETATM    5  C   UNL     1     -12.222  13.926  64.290  1.00  0.00    -0.447 C  
HETATM    6  H2  UNL     1      -9.068  12.826  63.975  1.00  0.00     0.000 HD 
HETATM    7  N   UNL     1      -9.975  11.144  65.936  1.00  0.00    -0.228 N  
HETATM    8  H1  UNL     1     -10.480  12.199  63.260  1.00  0.00     0.000 HD 
HETATM    9  O   UNL     1     -12.047  11.878  66.584  1.00  0.00    -0.587 OA 
HETATM   10  H   UNL     1      -9.282  11.319  65.210  1.00  0.00     0.000 HD 
ENDROOT
BRANCH   7  11
HETATM   11  C   UNL     1      -9.594   9.931  66.856  1.00  0.00    -0.179 C  
BRANCH  11  12
HETATM   12  C   UNL     1      -9.999   8.410  66.571  1.00  0.00    -0.335 C  
BRANCH  12  13
HETATM   13  C   UNL     1      -8.913   7.240  66.731  1.00  0.00    -0.154 A  
HETATM   14  C   UNL     1      -8.644   6.188  65.876  1.00  0.00    -0.147 A  
HETATM   15  C   UNL     1      -6.695   7.245  69.954  1.00  0.00    -0.051 A  
HETATM   16  C   UNL     1      -6.216   5.944  69.832  1.00  0.00    -0.027 A  
HETATM   17  C   UNL     1      -6.532   5.193  68.700  1.00  0.00    -0.040 A  
HETATM   18  N   UNL     1      -7.746   5.307  66.480  1.00  0.00    -0.095 NA 
HETATM   19  C   UNL     1      -7.563   7.792  68.985  1.00  0.00    -0.100 A  
HETATM   20  C   UNL     1      -7.963   7.036  67.852  1.00  0.00    -0.115 A  
HETATM   21  C   UNL     1      -7.373   5.778  67.716  1.00  0.00    -0.077 A  
HETATM   22  H   UNL     1      -7.414   4.438  66.063  1.00  0.00     0.000 HD 
ENDBRANCH  12  13
ENDBRANCH  11  12
BRANCH  11  23
HETATM   23  C   UNL     1      -9.818  10.387  68.322  1.00  0.00    -0.154 C  
HETATM   24  N   UNL     1     -11.012  10.033  68.921  1.00  0.00    -0.301 N  
HETATM   25  H   UNL     1     -11.639   9.381  68.451  1.00  0.00     0.000 HD 
HETATM   26  O   UNL     1      -8.989  11.110  68.883  1.00  0.00    -0.156 OA 
BRANCH  24  27
HETATM   27  C   UNL     1     -11.376  10.581  70.207  1.00  0.00    -0.327 C  
BRANCH  27  28
HETATM   28  N   UNL     1     -12.472  11.497  70.024  1.00  0.00    -0.172 N  
HETATM   29  O   UNL     1     -11.157  13.310  69.451  1.00  0.00    -0.197 OA 
HETATM   30  C   UNL     1     -12.251  12.804  69.652  1.00  0.00    -0.126 C  
HETATM   31  H   UNL     1     -13.427  11.173  70.173  1.00  0.00     0.000 HD 
ENDBRANCH  27  28
BRANCH  27  32
HETATM   32  C   UNL     1     -11.531   9.609  71.397  1.00  0.00    -0.455 C  
BRANCH  32  33
HETATM   33  C   UNL     1     -10.804   8.301  71.660  1.00  0.00    -0.320 A  
HETATM   34  C   UNL     1      -9.781   6.244  71.844  1.00  0.00    -0.152 A  
HETATM   35  H   UNL     1      -8.979   6.655  73.760  1.00  0.00     0.000 HD 
HETATM   36  C   UNL     1      -9.339   4.946  71.547  1.00  0.00    -0.196 A  
HETATM   37  C   UNL     1     -10.127   8.193  72.872  1.00  0.00    -0.278 A  
HETATM   38  C   UNL     1      -9.751   4.384  70.344  1.00  0.00    -0.284 A  
HETATM   39  N   UNL     1      -9.532   6.976  72.965  1.00  0.00    -0.144 NA 
HETATM   40  C   UNL     1     -10.578   5.103  69.483  1.00  0.00    -0.130 A  
HETATM   41  C   UNL     1     -11.003   6.413  69.792  1.00  0.00    -0.417 A  
HETATM   42  C   UNL     1     -10.598   7.022  71.000  1.00  0.00    -0.239 A  
ENDBRANCH  32  33
ENDBRANCH  27  32
ENDBRANCH  24  27
ENDBRANCH  11  23
ENDBRANCH   7  11
TORSDOF 8
ENDMDL
MODEL      105
REMARK 921   NORMALIZED FREE ENERGY PREDICTED BY IDOCK:   -6.83 KCAL/MOL
REMARK 922        TOTAL FREE ENERGY PREDICTED BY IDOCK:  -12.16 KCAL/MOL
REMARK 923 INTER-LIGAND FREE ENERGY PREDICTED BY IDOCK:  -10.54 KCAL/MOL
REMARK 924 INTRA-LIGAND FREE ENERGY PREDICTED BY IDOCK:   -1.62 KCAL/MOL
REMARK 927      BINDING AFFINITY PREDICTED BY RF-SCORE:    0.00 PKD
ROOT
HETATM    1  C   UNL     1      -7.801   3.847  66.100  1.00  0.00    -0.090 C  
HETATM    2  C   UNL     1      -8.701   4.578  65.085  1.00  0.00    -0.135 C  
HETATM    3  C   UNL     1      -8.626   6.245  65.219  1.00  0.00    -0.061 C  
HETATM    4  N   UNL     1     -10.103   4.138  65.340  1.00  0.00    -0.323 NA 
HETATM    5  C   UNL     1      -8.301   3.995  63.701  1.00  0.00    -0.094 C  
HETATM    6  H2  UNL     1     -10.396   4.278  66.308  1.00  0.00     0.000 HD 
HETATM    7  N   UNL     1      -9.507   6.861  66.116  1.00  0.00    -0.380 N  
HETATM    8  H1  UNL     1     -10.699   4.622  64.668  1.00  0.00     0.000 HD 
HETATM    9  O   UNL     1      -7.801   6.903  64.586  1.00  0.00    -0.107 OA 
HETATM   10  H   UNL     1     -10.224   6.224  66.462  1.00  0.00     0.000 HD 
ENDROOT
BRANCH   7  11
HETATM   11  C   UNL     1      -9.645   8.307  66.710  1.00  0.00    -0.224 C  
BRANCH  11  12
HETATM   12  C   UNL     1      -8.508   9.430  66.648  1.00  0.00    -0.130 C  
BRANCH  12  13
HETATM   13  C   UNL     1      -8.901  10.970  66.439  1.00  0.00    -0.182 A  
HETATM   14  C   UNL     1      -8.438  12.081  67.119  1.00  0.00    -0.180 A  
HETATM   15  C   UNL     1     -11.544  11.815  63.680  1.00  0.00    -0.521 A  
HETATM   16  C   UNL     1     -11.813  13.115  64.097  1.00  0.00    -0.487 A  
HETATM   17  C   UNL     1     -11.077  13.675  65.140  1.00  0.00    -0.324 A  
HETATM   18  N   UNL     1      -9.168  13.207  66.738  1.00  0.00    -0.255 NA 
HETATM   19  C   UNL     1     -10.588  11.022  64.350  1.00  0.00    -0.395 A  
HETATM   20  C   UNL     1      -9.865  11.533  65.461  1.00  0.00    -0.269 A  
HETATM   21  C   UNL     1     -10.090  12.874  65.775  1.00  0.00    -0.287 A  
HETATM   22  H   UNL     1      -9.037  14.143  67.120  1.00  0.00     0.000 HD 
ENDBRANCH  12  13
ENDBRANCH  11  12
BRANCH  11  23
HETATM   23  C   UNL     1     -10.324   8.162  68.099  1.00  0.00    -0.201 C  
HETATM   24  N   UNL     1     -10.745   9.320  68.723  1.00  0.00    -0.362 N  
HETATM   25  H   UNL     1     -10.731  10.203  68.213  1.00  0.00     0.000 HD 
HETATM   26  O   UNL     1     -10.395   7.056  68.644  1.00  0.00    -0.173 OA 
BRANCH  24  27
HETATM   27  C   UNL     1     -11.206   9.287  70.091  1.00  0.00    -0.208 C  
BRANCH  27  28
HETATM   28  N   UNL     1     -10.065   9.146  70.959  1.00  0.00    -0.278 N  
HETATM   29  O   UNL     1     -10.997   7.506  72.293  1.00  0.00    -0.232 OA 
HETATM   30  C   UNL     1     -10.070   8.245  72.000  1.00  0.00    -0.261 C  
HETATM   31  H   UNL     1      -9.240   9.723  70.799  1.00  0.00     0.000 HD 
ENDBRANCH  27  28
BRANCH  27  32
HETATM   32  C   UNL     1     -12.238  10.344  70.540  1.00  0.00    -0.412 C  
BRANCH  32  33
HETATM   33  C   UNL     1     -12.164  11.858  70.424  1.00  0.00    -0.399 A  
HETATM   34  C   UNL     1     -12.179  14.162  70.451  1.00  0.00    -0.356 A  
HETATM   35  H   UNL     1     -11.060  14.333  68.662  1.00  0.00     0.000 HD 
HETATM   36  C   UNL     1     -12.417  15.487  70.847  1.00  0.00    -0.494 A  
HETATM   37  C   UNL     1     -11.474  12.370  69.328  1.00  0.00    -0.288 A  
HETATM   38  C   UNL     1     -13.178  15.691  71.993  1.00  0.00    -0.541 A  
HETATM   39  N   UNL     1     -11.495  13.727  69.358  1.00  0.00    -0.277 NA 
HETATM   40  C   UNL     1     -13.680  14.601  72.702  1.00  0.00    -0.545 A  
HETATM   41  C   UNL     1     -13.420  13.274  72.296  1.00  0.00    -0.679 A  
HETATM   42  C   UNL     1     -12.644  13.026  71.143  1.00  0.00    -0.388 A  
ENDBRANCH  32  33
ENDBRANCH  27  32
ENDBRANCH  24  27
ENDBRANCH  11  23
ENDBRANCH   7  11
TORSDOF 8
ENDMDL
MODEL      106
REMARK 921   NORMALIZED FREE ENERGY PREDICTED BY IDOCK:   -6.81 KCAL/MOL
REMARK 922        TOTAL FREE ENERGY PREDICTED BY IDOCK:  -12.14 KCAL/MOL
REMARK 923 INTER-LIGAND FREE ENERGY PREDICTED BY IDOCK:  -10.30 KCAL/MOL
REMARK 924 INTRA-LIGAND FREE ENERGY PREDICTED BY IDOCK:   -1.84 KCAL/MOL
REMARK 927      BINDING AFFINITY PREDICTED BY RF-SCORE:    0.00 PKD
ROOT
HETATM    1  C   UNL     1     -10.826   8.582  72.279  1.00  0.00    -0.418 C  
HETATM    2  C   UNL     1     -11.819   8.169  71.175  1.00  0.00    -0.279 C  
HETATM    3  C   UNL     1     -11.114   8.065  69.660  1.00  0.00    -0.015 C  
HETATM    4  N   UNL     1     -12.893   9.204  71.136  1.00  0.00    -0.491 NA 
HETATM    5  C   UNL     1     -12.482   6.865  71.700  1.00  0.00    -0.418 C  
HETATM    6  H2  UNL     1     -12.531  10.150  71.014  1.00  0.00     0.000 HD 
HETATM    7  N   UNL     1     -11.074   9.230  68.885  1.00  0.00    -0.447 N  
HETATM    8  H1  UNL     1     -13.550   8.930  70.405  1.00  0.00     0.000 HD 
HETATM    9  O   UNL     1     -10.613   7.016  69.257  1.00  0.00    -0.210 OA 
HETATM   10  H   UNL     1     -11.645   9.980  69.274  1.00  0.00     0.000 HD 
ENDROOT
BRANCH   7  11
HETATM   11  C   UNL     1     -10.352   9.647  67.556  1.00  0.00    -0.241 C  
BRANCH  11  12
HETATM   12  C   UNL     1      -8.767   9.637  67.339  1.00  0.00    -0.130 C  
BRANCH  12  13
HETATM   13  C   UNL     1      -7.818  10.541  68.263  1.00  0.00    -0.111 A  
HETATM   14  C   UNL     1      -7.424  11.852  68.076  1.00  0.00    -0.107 A  
HETATM   15  C   UNL     1      -6.333   8.906  71.493  1.00  0.00    -0.075 A  
HETATM   16  C   UNL     1      -5.360   9.871  71.739  1.00  0.00    -0.048 A  
HETATM   17  C   UNL     1      -5.304  11.016  70.945  1.00  0.00    -0.118 A  
HETATM   18  N   UNL     1      -6.459  12.195  69.024  1.00  0.00    -0.085 NA 
HETATM   19  C   UNL     1      -7.217   9.030  70.400  1.00  0.00    -0.069 A  
HETATM   20  C   UNL     1      -7.148  10.148  69.527  1.00  0.00    -0.101 A  
HETATM   21  C   UNL     1      -6.231  11.142  69.876  1.00  0.00    -0.133 A  
HETATM   22  H   UNL     1      -5.991  13.099  69.076  1.00  0.00     0.000 HD 
ENDBRANCH  12  13
ENDBRANCH  11  12
BRANCH  11  23
HETATM   23  C   UNL     1     -11.059  10.928  67.040  1.00  0.00    -0.202 C  
HETATM   24  N   UNL     1     -10.454  11.613  66.004  1.00  0.00    -0.243 N  
HETATM   25  H   UNL     1      -9.657  11.199  65.521  1.00  0.00     0.000 HD 
HETATM   26  O   UNL     1     -12.073  11.349  67.605  1.00  0.00    -0.630 OA 
BRANCH  24  27
HETATM   27  C   UNL     1     -10.944  12.911  65.601  1.00  0.00    -0.271 C  
BRANCH  27  28
HETATM   28  N   UNL     1     -12.321  12.780  65.199  1.00  0.00    -0.484 N  
HETATM   29  O   UNL     1     -11.874  11.663  63.226  1.00  0.00    -0.359 OA 
HETATM   30  C   UNL     1     -12.661  12.151  64.023  1.00  0.00    -0.403 C  
HETATM   31  H   UNL     1     -13.056  13.159  65.796  1.00  0.00     0.000 HD 
ENDBRANCH  27  28
BRANCH  27  32
HETATM   32  C   UNL     1     -10.645  14.119  66.514  1.00  0.00    -0.282 C  
BRANCH  32  33
HETATM   33  C   UNL     1     -10.629  15.598  66.164  1.00  0.00    -0.325 A  
HETATM   34  C   UNL     1     -10.531  17.880  65.858  1.00  0.00    -0.253 A  
HETATM   35  H   UNL     1     -11.172  17.781  63.843  1.00  0.00     0.000 HD 
HETATM   36  C   UNL     1     -10.331  19.249  66.099  1.00  0.00    -0.578 A  
HETATM   37  C   UNL     1     -11.003  15.940  64.867  1.00  0.00    -0.411 A  
HETATM   38  C   UNL     1      -9.937  19.627  67.377  1.00  0.00    -0.510 A  
HETATM   39  N   UNL     1     -10.942  17.286  64.704  1.00  0.00    -0.853 NA 
HETATM   40  C   UNL     1      -9.759  18.664  68.369  1.00  0.00    -0.405 A  
HETATM   41  C   UNL     1      -9.952  17.291  68.105  1.00  0.00    -0.303 A  
HETATM   42  C   UNL     1     -10.343  16.865  66.817  1.00  0.00    -0.298 A  
ENDBRANCH  32  33
ENDBRANCH  27  32
ENDBRANCH  24  27
ENDBRANCH  11  23
ENDBRANCH   7  11
TORSDOF 8
ENDMDL
MODEL      107
REMARK 921   NORMALIZED FREE ENERGY PREDICTED BY IDOCK:   -6.81 KCAL/MOL
REMARK 922        TOTAL FREE ENERGY PREDICTED BY IDOCK:  -12.14 KCAL/MOL
REMARK 923 INTER-LIGAND FREE ENERGY PREDICTED BY IDOCK:  -10.52 KCAL/MOL
REMARK 924 INTRA-LIGAND FREE ENERGY PREDICTED BY IDOCK:   -1.62 KCAL/MOL
REMARK 927      BINDING AFFINITY PREDICTED BY RF-SCORE:    0.00 PKD
ROOT
HETATM    1  C   UNL     1     -13.215  15.249  70.198  1.00  0.00     0.078 C  
HETATM    2  C   UNL     1     -11.862  14.768  70.756  1.00  0.00    -0.312 C  
HETATM    3  C   UNL     1     -10.574  15.102  69.741  1.00  0.00    -0.252 C  
HETATM    4  N   UNL     1     -11.959  13.291  70.940  1.00  0.00    -0.474 NA 
HETATM    5  C   UNL     1     -11.774  15.385  72.180  1.00  0.00    -0.551 C  
HETATM    6  H2  UNL     1     -12.237  12.800  70.090  1.00  0.00     0.000 HD 
HETATM    7  N   UNL     1     -10.260  14.152  68.761  1.00  0.00    -0.271 N  
HETATM    8  H1  UNL     1     -11.063  12.973  71.310  1.00  0.00     0.000 HD 
HETATM    9  O   UNL     1      -9.950  16.160  69.822  1.00  0.00    -0.230 OA 
HETATM   10  H   UNL     1     -10.756  13.271  68.896  1.00  0.00     0.000 HD 
ENDROOT
BRANCH   7  11
HETATM   11  C   UNL     1      -9.321  14.131  67.504  1.00  0.00    -0.204 C  
BRANCH  11  12
HETATM   12  C   UNL     1      -9.366  15.201  66.316  1.00  0.00    -0.348 C  
BRANCH  12  13
HETATM   13  C   UNL     1      -8.600  16.603  66.461  1.00  0.00    -0.320 A  
HETATM   14  C   UNL     1      -7.241  16.844  66.522  1.00  0.00    -0.262 A  
HETATM   15  C   UNL     1     -10.776  19.846  66.713  1.00  0.00    -0.464 A  
HETATM   16  C   UNL     1      -9.767  20.691  67.166  1.00  0.00    -0.530 A  
HETATM   17  C   UNL     1      -8.458  20.220  67.259  1.00  0.00    -0.415 A  
HETATM   18  N   UNL     1      -7.011  18.187  66.821  1.00  0.00    -0.188 NA 
HETATM   19  C   UNL     1     -10.509  18.492  66.420  1.00  0.00    -0.443 A  
HETATM   20  C   UNL     1      -9.202  17.955  66.567  1.00  0.00    -0.286 A  
HETATM   21  C   UNL     1      -8.203  18.864  66.919  1.00  0.00    -0.268 A  
HETATM   22  H   UNL     1      -6.091  18.606  66.950  1.00  0.00     0.000 HD 
ENDBRANCH  12  13
ENDBRANCH  11  12
BRANCH  11  23
HETATM   23  C   UNL     1      -9.232  12.656  67.031  1.00  0.00    -0.212 C  
HETATM   24  N   UNL     1     -10.420  11.972  66.861  1.00  0.00    -0.219 N  
HETATM   25  H   UNL     1     -11.306  12.476  66.910  1.00  0.00     0.000 HD 
HETATM   26  O   UNL     1      -8.133  12.109  66.903  1.00  0.00    -0.168 OA 
BRANCH  24  27
HETATM   27  C   UNL     1     -10.416  10.549  66.612  1.00  0.00    -0.228 C  
BRANCH  27  28
HETATM   28  N   UNL     1      -9.854  10.310  65.308  1.00  0.00    -0.286 N  
HETATM   29  O   UNL     1     -11.325  11.686  64.174  1.00  0.00    -0.352 OA 
HETATM   30  C   UNL     1     -10.374  10.919  64.188  1.00  0.00    -0.364 C  
HETATM   31  H   UNL     1      -9.058   9.680  65.212  1.00  0.00     0.000 HD 
ENDBRANCH  27  28
BRANCH  27  32
HETATM   32  C   UNL     1      -9.895   9.615  67.726  1.00  0.00    -0.192 C  
BRANCH  32  33
HETATM   33  C   UNL     1     -10.527   9.288  69.069  1.00  0.00    -0.233 A  
HETATM   34  C   UNL     1     -11.438   8.562  71.057  1.00  0.00    -0.273 A  
HETATM   35  H   UNL     1     -11.947  10.513  71.702  1.00  0.00     0.000 HD 
HETATM   36  C   UNL     1     -11.863   7.723  72.099  1.00  0.00    -0.370 A  
HETATM   37  C   UNL     1     -10.998  10.363  69.819  1.00  0.00    -0.293 A  
HETATM   38  C   UNL     1     -11.690   6.354  71.935  1.00  0.00    -0.378 A  
HETATM   39  N   UNL     1     -11.533   9.918  70.984  1.00  0.00    -0.363 NA 
HETATM   40  C   UNL     1     -11.118   5.855  70.766  1.00  0.00    -0.324 A  
HETATM   41  C   UNL     1     -10.685   6.715  69.733  1.00  0.00    -0.304 A  
HETATM   42  C   UNL     1     -10.835   8.112  69.866  1.00  0.00    -0.215 A  
ENDBRANCH  32  33
ENDBRANCH  27  32
ENDBRANCH  24  27
ENDBRANCH  11  23
ENDBRANCH   7  11
TORSDOF 8
ENDMDL
MODEL      108
REMARK 921   NORMALIZED FREE ENERGY PREDICTED BY IDOCK:   -6.80 KCAL/MOL
REMARK 922        TOTAL FREE ENERGY PREDICTED BY IDOCK:  -12.13 KCAL/MOL
REMARK 923 INTER-LIGAND FREE ENERGY PREDICTED BY IDOCK:  -10.27 KCAL/MOL
REMARK 924 INTRA-LIGAND FREE ENERGY PREDICTED BY IDOCK:   -1.86 KCAL/MOL
REMARK 927      BINDING AFFINITY PREDICTED BY RF-SCORE:    0.00 PKD
ROOT
HETATM    1  C   UNL     1      -8.853  14.791  66.668  1.00  0.00    -0.262 C  
HETATM    2  C   UNL     1      -8.096  14.047  67.785  1.00  0.00    -0.167 C  
HETATM    3  C   UNL     1      -7.804  12.438  67.426  1.00  0.00    -0.174 C  
HETATM    4  N   UNL     1      -8.937  14.121  69.015  1.00  0.00    -0.385 NA 
HETATM    5  C   UNL     1      -6.836  14.915  68.061  1.00  0.00    -0.147 C  
HETATM    6  H2  UNL     1      -9.884  13.769  68.871  1.00  0.00     0.000 HD 
HETATM    7  N   UNL     1      -8.791  11.510  67.776  1.00  0.00    -0.148 N  
HETATM    8  H1  UNL     1      -8.436  13.629  69.754  1.00  0.00     0.000 HD 
HETATM    9  O   UNL     1      -6.781  12.087  66.840  1.00  0.00    -0.129 OA 
HETATM   10  H   UNL     1      -9.512  11.910  68.377  1.00  0.00     0.000 HD 
ENDROOT
BRANCH   7  11
HETATM   11  C   UNL     1      -9.044   9.994  67.457  1.00  0.00    -0.134 C  
BRANCH  11  12
HETATM   12  C   UNL     1      -9.449   9.422  66.019  1.00  0.00    -0.304 C  
BRANCH  12  13
HETATM   13  C   UNL     1     -10.063  10.396  64.904  1.00  0.00    -0.382 A  
HETATM   14  C   UNL     1      -9.898  10.353  63.532  1.00  0.00    -0.205 A  
HETATM   15  C   UNL     1     -12.327  13.348  66.115  1.00  0.00    -0.440 A  
HETATM   16  C   UNL     1     -12.313  14.071  64.926  1.00  0.00    -0.447 A  
HETATM   17  C   UNL     1     -11.690  13.538  63.798  1.00  0.00    -0.367 A  
HETATM   18  N   UNL     1     -10.464  11.488  62.952  1.00  0.00    -0.658 NA 
HETATM   19  C   UNL     1     -11.651  12.115  66.222  1.00  0.00    -0.424 A  
HETATM   20  C   UNL     1     -10.946  11.570  65.116  1.00  0.00    -0.298 A  
HETATM   21  C   UNL     1     -11.050  12.275  63.915  1.00  0.00    -0.412 A  
HETATM   22  H   UNL     1     -10.447  11.704  61.956  1.00  0.00     0.000 HD 
ENDBRANCH  12  13
ENDBRANCH  11  12
BRANCH  11  23
HETATM   23  C   UNL     1      -9.879   9.418  68.632  1.00  0.00    -0.163 C  
HETATM   24  N   UNL     1     -10.089  10.239  69.722  1.00  0.00    -0.343 N  
HETATM   25  H   UNL     1      -9.822  11.222  69.675  1.00  0.00     0.000 HD 
HETATM   26  O   UNL     1     -10.255   8.242  68.610  1.00  0.00    -0.197 OA 
BRANCH  24  27
HETATM   27  C   UNL     1     -10.686   9.714  70.929  1.00  0.00    -0.332 C  
BRANCH  27  28
HETATM   28  N   UNL     1     -11.977   9.165  70.604  1.00  0.00    -0.461 N  
HETATM   29  O   UNL     1     -13.107  10.210  72.327  1.00  0.00    -0.405 OA 
HETATM   30  C   UNL     1     -13.090   9.476  71.351  1.00  0.00    -0.370 C  
HETATM   31  H   UNL     1     -12.068   8.536  69.806  1.00  0.00     0.000 HD 
ENDBRANCH  27  28
BRANCH  27  32
HETATM   32  C   UNL     1      -9.816   8.831  71.848  1.00  0.00    -0.395 C  
BRANCH  32  33
HETATM   33  C   UNL     1     -10.001   7.369  72.220  1.00  0.00    -0.206 A  
HETATM   34  C   UNL     1     -10.196   5.099  72.566  1.00  0.00    -0.194 A  
HETATM   35  H   UNL     1     -10.972   5.319  74.523  1.00  0.00     0.000 HD 
HETATM   36  C   UNL     1     -10.142   3.711  72.361  1.00  0.00    -0.233 A  
HETATM   37  C   UNL     1     -10.510   7.104  73.489  1.00  0.00    -0.380 A  
HETATM   38  C   UNL     1      -9.699   3.260  71.123  1.00  0.00    -0.212 A  
HETATM   39  N   UNL     1     -10.621   5.764  73.675  1.00  0.00    -0.265 NA 
HETATM   40  C   UNL     1      -9.334   4.172  70.134  1.00  0.00    -0.234 A  
HETATM   41  C   UNL     1      -9.383   5.564  70.362  1.00  0.00    -0.198 A  
HETATM   42  C   UNL     1      -9.818   6.062  71.610  1.00  0.00    -0.196 A  
ENDBRANCH  32  33
ENDBRANCH  27  32
ENDBRANCH  24  27
ENDBRANCH  11  23
ENDBRANCH   7  11
TORSDOF 8
ENDMDL
MODEL      109
REMARK 921   NORMALIZED FREE ENERGY PREDICTED BY IDOCK:   -6.80 KCAL/MOL
REMARK 922        TOTAL FREE ENERGY PREDICTED BY IDOCK:  -12.13 KCAL/MOL
REMARK 923 INTER-LIGAND FREE ENERGY PREDICTED BY IDOCK:  -10.74 KCAL/MOL
REMARK 924 INTRA-LIGAND FREE ENERGY PREDICTED BY IDOCK:   -1.39 KCAL/MOL
REMARK 927      BINDING AFFINITY PREDICTED BY RF-SCORE:    0.00 PKD
ROOT
HETATM    1  C   UNL     1     -11.392  15.408  64.045  1.00  0.00     0.253 C  
HETATM    2  C   UNL     1     -11.472  13.925  64.455  1.00  0.00    -0.381 C  
HETATM    3  C   UNL     1     -12.267  13.684  65.909  1.00  0.00    -0.461 C  
HETATM    4  N   UNL     1     -10.072  13.425  64.584  1.00  0.00    -0.622 NA 
HETATM    5  C   UNL     1     -12.086  13.202  63.224  1.00  0.00    -0.460 C  
HETATM    6  H2  UNL     1      -9.506  13.986  65.222  1.00  0.00     0.000 HD 
HETATM    7  N   UNL     1     -11.503  13.741  67.080  1.00  0.00    -0.324 N  
HETATM    8  H1  UNL     1     -10.125  12.443  64.856  1.00  0.00     0.000 HD 
HETATM    9  O   UNL     1     -13.483  13.505  65.952  1.00  0.00    -0.134 OA 
HETATM   10  H   UNL     1     -10.500  13.752  66.895  1.00  0.00     0.000 HD 
ENDROOT
BRANCH   7  11
HETATM   11  C   UNL     1     -11.834  13.793  68.613  1.00  0.00    -0.374 C  
BRANCH  11  12
HETATM   12  C   UNL     1     -11.071  14.709  69.679  1.00  0.00    -0.284 C  
BRANCH  12  13
HETATM   13  C   UNL     1      -9.859  15.651  69.216  1.00  0.00    -0.269 A  
HETATM   14  C   UNL     1      -8.506  15.502  69.460  1.00  0.00    -0.211 A  
HETATM   15  C   UNL     1     -10.731  18.849  67.138  1.00  0.00    -0.506 A  
HETATM   16  C   UNL     1      -9.502  19.486  67.284  1.00  0.00    -0.422 A  
HETATM   17  C   UNL     1      -8.454  18.830  67.928  1.00  0.00    -0.316 A  
HETATM   18  N   UNL     1      -7.820  16.637  69.026  1.00  0.00    -0.236 NA 
HETATM   19  C   UNL     1     -10.959  17.576  67.702  1.00  0.00    -0.111 A  
HETATM   20  C   UNL     1      -9.938  16.903  68.424  1.00  0.00    -0.275 A  
HETATM   21  C   UNL     1      -8.692  17.531  68.452  1.00  0.00    -0.276 A  
HETATM   22  H   UNL     1      -6.816  16.782  69.122  1.00  0.00     0.000 HD 
ENDBRANCH  12  13
ENDBRANCH  11  12
BRANCH  11  23
HETATM   23  C   UNL     1     -12.060  12.328  69.076  1.00  0.00    -0.145 C  
HETATM   24  N   UNL     1     -11.993  12.074  70.432  1.00  0.00    -0.476 N  
HETATM   25  H   UNL     1     -11.938  12.851  71.090  1.00  0.00     0.000 HD 
HETATM   26  O   UNL     1     -12.206  11.428  68.243  1.00  0.00    -0.588 OA 
BRANCH  24  27
HETATM   27  C   UNL     1     -11.999  10.715  70.922  1.00  0.00    -0.363 C  
BRANCH  27  28
HETATM   28  N   UNL     1     -13.253  10.102  70.566  1.00  0.00    -0.575 N  
HETATM   29  O   UNL     1     -13.506   8.940  72.547  1.00  0.00    -0.438 OA 
HETATM   30  C   UNL     1     -13.902   9.255  71.435  1.00  0.00    -0.209 C  
HETATM   31  H   UNL     1     -13.666  10.299  69.655  1.00  0.00     0.000 HD 
ENDBRANCH  27  28
BRANCH  27  32
HETATM   32  C   UNL     1     -10.752   9.842  70.667  1.00  0.00    -0.394 C  
BRANCH  32  33
HETATM   33  C   UNL     1     -10.622   8.328  70.715  1.00  0.00    -0.236 A  
HETATM   34  C   UNL     1     -10.404   6.055  71.025  1.00  0.00    -0.216 A  
HETATM   35  H   UNL     1     -10.567   5.614  68.961  1.00  0.00     0.000 HD 
HETATM   36  C   UNL     1     -10.248   4.805  71.643  1.00  0.00    -0.249 A  
HETATM   37  C   UNL     1     -10.688   7.655  69.498  1.00  0.00    -0.209 A  
HETATM   38  C   UNL     1     -10.075   4.784  73.022  1.00  0.00    -0.201 A  
HETATM   39  N   UNL     1     -10.555   6.318  69.698  1.00  0.00    -0.234 NA 
HETATM   40  C   UNL     1     -10.055   5.977  73.743  1.00  0.00    -0.232 A  
HETATM   41  C   UNL     1     -10.226   7.225  73.106  1.00  0.00    -0.344 A  
HETATM   42  C   UNL     1     -10.414   7.287  71.708  1.00  0.00    -0.218 A  
ENDBRANCH  32  33
ENDBRANCH  27  32
ENDBRANCH  24  27
ENDBRANCH  11  23
ENDBRANCH   7  11
TORSDOF 8
ENDMDL
MODEL      110
REMARK 921   NORMALIZED FREE ENERGY PREDICTED BY IDOCK:   -6.80 KCAL/MOL
REMARK 922        TOTAL FREE ENERGY PREDICTED BY IDOCK:  -12.12 KCAL/MOL
REMARK 923 INTER-LIGAND FREE ENERGY PREDICTED BY IDOCK:   -9.78 KCAL/MOL
REMARK 924 INTRA-LIGAND FREE ENERGY PREDICTED BY IDOCK:   -2.34 KCAL/MOL
REMARK 927      BINDING AFFINITY PREDICTED BY RF-SCORE:    0.00 PKD
ROOT
HETATM    1  C   UNL     1     -10.815  14.478  65.698  1.00  0.00    -0.329 C  
HETATM    2  C   UNL     1     -10.856  14.382  67.236  1.00  0.00    -0.290 C  
HETATM    3  C   UNL     1     -10.000  13.076  67.838  1.00  0.00    -0.230 C  
HETATM    4  N   UNL     1     -12.287  14.244  67.633  1.00  0.00    -0.582 NA 
HETATM    5  C   UNL     1     -10.393  15.779  67.736  1.00  0.00    -0.275 C  
HETATM    6  H2  UNL     1     -12.756  13.463  67.172  1.00  0.00     0.000 HD 
HETATM    7  N   UNL     1     -10.682  11.859  67.962  1.00  0.00    -0.200 N  
HETATM    8  H1  UNL     1     -12.314  14.181  68.651  1.00  0.00     0.000 HD 
HETATM    9  O   UNL     1      -8.807  13.167  68.122  1.00  0.00    -0.185 OA 
HETATM   10  H   UNL     1     -11.688  11.957  67.829  1.00  0.00     0.000 HD 
ENDROOT
BRANCH   7  11
HETATM   11  C   UNL     1     -10.253  10.379  68.258  1.00  0.00    -0.160 C  
BRANCH  11  12
HETATM   12  C   UNL     1     -10.579   9.130  67.313  1.00  0.00    -0.303 C  
BRANCH  12  13
HETATM   13  C   UNL     1      -9.744   8.896  65.964  1.00  0.00    -0.308 A  
HETATM   14  C   UNL     1      -8.935   7.828  65.622  1.00  0.00    -0.005 A  
HETATM   15  C   UNL     1      -9.920  11.670  63.210  1.00  0.00    -0.442 A  
HETATM   16  C   UNL     1      -8.832  11.233  62.460  1.00  0.00    -0.273 A  
HETATM   17  C   UNL     1      -8.186  10.046  62.803  1.00  0.00    -0.154 A  
HETATM   18  N   UNL     1      -8.263   8.107  64.432  1.00  0.00    -0.286 NA 
HETATM   19  C   UNL     1     -10.334  10.970  64.363  1.00  0.00    -0.424 A  
HETATM   20  C   UNL     1      -9.659   9.794  64.785  1.00  0.00    -0.284 A  
HETATM   21  C   UNL     1      -8.644   9.334  63.944  1.00  0.00    -0.192 A  
HETATM   22  H   UNL     1      -7.585   7.489  63.987  1.00  0.00     0.000 HD 
ENDBRANCH  12  13
ENDBRANCH  11  12
BRANCH  11  23
HETATM   23  C   UNL     1     -10.517  10.124  69.766  1.00  0.00    -0.263 C  
HETATM   24  N   UNL     1     -11.817  10.258  70.213  1.00  0.00    -0.298 N  
HETATM   25  H   UNL     1     -12.574  10.378  69.540  1.00  0.00     0.000 HD 
HETATM   26  O   UNL     1      -9.576   9.899  70.533  1.00  0.00    -0.180 OA 
BRANCH  24  27
HETATM   27  C   UNL     1     -12.111  10.229  71.627  1.00  0.00    -0.228 C  
BRANCH  27  28
HETATM   28  N   UNL     1     -13.098  11.238  71.913  1.00  0.00    -0.477 N  
HETATM   29  O   UNL     1     -12.177  12.851  70.539  1.00  0.00    -0.368 OA 
HETATM   30  C   UNL     1     -13.036  12.481  71.325  1.00  0.00    -0.208 C  
HETATM   31  H   UNL     1     -13.856  11.028  72.563  1.00  0.00     0.000 HD 
ENDBRANCH  27  28
BRANCH  27  32
HETATM   32  C   UNL     1     -12.369   8.859  72.291  1.00  0.00    -0.430 C  
BRANCH  32  33
HETATM   33  C   UNL     1     -11.486   7.621  72.297  1.00  0.00    -0.366 A  
HETATM   34  C   UNL     1     -10.182   5.736  72.069  1.00  0.00    -0.201 A  
HETATM   35  H   UNL     1      -9.746   5.613  74.136  1.00  0.00     0.000 HD 
HETATM   36  C   UNL     1      -9.497   4.651  71.498  1.00  0.00    -0.214 A  
HETATM   37  C   UNL     1     -10.984   7.215  73.530  1.00  0.00    -0.144 A  
HETATM   38  C   UNL     1      -9.632   4.452  70.129  1.00  0.00    -0.263 A  
HETATM   39  N   UNL     1     -10.221   6.103  73.379  1.00  0.00    -0.201 NA 
HETATM   40  C   UNL     1     -10.431   5.309  69.372  1.00  0.00    -0.284 A  
HETATM   41  C   UNL     1     -11.102   6.402  69.961  1.00  0.00    -0.442 A  
HETATM   42  C   UNL     1     -10.982   6.643  71.347  1.00  0.00    -0.291 A  
ENDBRANCH  32  33
ENDBRANCH  27  32
ENDBRANCH  24  27
ENDBRANCH  11  23
ENDBRANCH   7  11
TORSDOF 8
ENDMDL
MODEL      111
REMARK 921   NORMALIZED FREE ENERGY PREDICTED BY IDOCK:   -6.79 KCAL/MOL
REMARK 922        TOTAL FREE ENERGY PREDICTED BY IDOCK:  -12.11 KCAL/MOL
REMARK 923 INTER-LIGAND FREE ENERGY PREDICTED BY IDOCK:  -10.35 KCAL/MOL
REMARK 924 INTRA-LIGAND FREE ENERGY PREDICTED BY IDOCK:   -1.76 KCAL/MOL
REMARK 927      BINDING AFFINITY PREDICTED BY RF-SCORE:    0.00 PKD
ROOT
HETATM    1  C   UNL     1      -8.625  16.717  66.442  1.00  0.00    -0.338 C  
HETATM    2  C   UNL     1     -10.114  16.510  66.107  1.00  0.00    -0.348 C  
HETATM    3  C   UNL     1     -10.893  15.480  67.173  1.00  0.00    -0.316 C  
HETATM    4  N   UNL     1     -10.183  15.924  64.736  1.00  0.00    -0.483 NA 
HETATM    5  C   UNL     1     -10.705  17.943  66.003  1.00  0.00    -0.129 C  
HETATM    6  H2  UNL     1      -9.629  15.073  64.638  1.00  0.00     0.000 HD 
HETATM    7  N   UNL     1     -10.862  14.110  66.886  1.00  0.00    -0.293 N  
HETATM    8  H1  UNL     1     -11.169  15.787  64.515  1.00  0.00     0.000 HD 
HETATM    9  O   UNL     1     -11.436  15.904  68.192  1.00  0.00    -0.350 OA 
HETATM   10  H   UNL     1     -10.508  13.913  65.950  1.00  0.00     0.000 HD 
ENDROOT
BRANCH   7  11
HETATM   11  C   UNL     1     -11.246  12.808  67.674  1.00  0.00    -0.280 C  
BRANCH  11  12
HETATM   12  C   UNL     1     -10.755  12.463  69.156  1.00  0.00    -0.081 C  
BRANCH  12  13
HETATM   13  C   UNL     1     -11.796  12.472  70.377  1.00  0.00    -0.246 A  
HETATM   14  C   UNL     1     -12.491  11.413  70.929  1.00  0.00    -0.379 A  
HETATM   15  C   UNL     1     -12.573  15.909  72.078  1.00  0.00    -0.517 A  
HETATM   16  C   UNL     1     -13.712  15.503  72.768  1.00  0.00    -0.642 A  
HETATM   17  C   UNL     1     -14.097  14.163  72.741  1.00  0.00    -0.065 A  
HETATM   18  N   UNL     1     -13.418  11.888  71.857  1.00  0.00    -0.307 NA 
HETATM   19  C   UNL     1     -11.843  14.999  71.285  1.00  0.00    -0.389 A  
HETATM   20  C   UNL     1     -12.242  13.640  71.176  1.00  0.00    -0.326 A  
HETATM   21  C   UNL     1     -13.324  13.254  71.969  1.00  0.00    -0.489 A  
HETATM   22  H   UNL     1     -14.072  11.304  72.378  1.00  0.00     0.000 HD 
ENDBRANCH  12  13
ENDBRANCH  11  12
BRANCH  11  23
HETATM   23  C   UNL     1     -11.138  11.626  66.674  1.00  0.00    -0.307 C  
HETATM   24  N   UNL     1     -10.688  11.914  65.400  1.00  0.00    -0.275 N  
HETATM   25  H   UNL     1     -10.314  12.839  65.192  1.00  0.00     0.000 HD 
HETATM   26  O   UNL     1     -11.526  10.500  66.997  1.00  0.00    -0.250 OA 
BRANCH  24  27
HETATM   27  C   UNL     1     -10.744  10.911  64.361  1.00  0.00    -0.180 C  
BRANCH  27  28
HETATM   28  N   UNL     1     -11.347  11.493  63.190  1.00  0.00    -0.848 N  
HETATM   29  O   UNL     1     -13.370  11.978  64.196  1.00  0.00    -0.725 OA 
HETATM   30  C   UNL     1     -12.632  11.985  63.222  1.00  0.00    -0.385 C  
HETATM   31  H   UNL     1     -10.813  11.541  62.323  1.00  0.00     0.000 HD 
ENDBRANCH  27  28
BRANCH  27  32
HETATM   32  C   UNL     1      -9.478  10.069  64.092  1.00  0.00    -0.314 C  
BRANCH  32  33
HETATM   33  C   UNL     1      -8.483   9.497  65.088  1.00  0.00    -0.160 A  
HETATM   34  C   UNL     1      -7.150   8.485  66.672  1.00  0.00    -0.077 A  
HETATM   35  H   UNL     1      -5.453   9.660  66.201  1.00  0.00     0.000 HD 
HETATM   36  C   UNL     1      -6.717   7.635  67.702  1.00  0.00    -0.067 A  
HETATM   37  C   UNL     1      -7.201  10.040  65.075  1.00  0.00    -0.139 A  
HETATM   38  C   UNL     1      -7.648   6.760  68.248  1.00  0.00    -0.107 A  
HETATM   39  N   UNL     1      -6.430   9.435  66.015  1.00  0.00    -0.068 NA 
HETATM   40  C   UNL     1      -8.960   6.749  67.778  1.00  0.00    -0.116 A  
HETATM   41  C   UNL     1      -9.374   7.602  66.733  1.00  0.00    -0.218 A  
HETATM   42  C   UNL     1      -8.456   8.499  66.145  1.00  0.00    -0.139 A  
ENDBRANCH  32  33
ENDBRANCH  27  32
ENDBRANCH  24  27
ENDBRANCH  11  23
ENDBRANCH   7  11
TORSDOF 8
ENDMDL
MODEL      112
REMARK 921   NORMALIZED FREE ENERGY PREDICTED BY IDOCK:   -6.79 KCAL/MOL
REMARK 922        TOTAL FREE ENERGY PREDICTED BY IDOCK:  -12.11 KCAL/MOL
REMARK 923 INTER-LIGAND FREE ENERGY PREDICTED BY IDOCK:   -9.52 KCAL/MOL
REMARK 924 INTRA-LIGAND FREE ENERGY PREDICTED BY IDOCK:   -2.59 KCAL/MOL
REMARK 927      BINDING AFFINITY PREDICTED BY RF-SCORE:    0.00 PKD
ROOT
HETATM    1  C   UNL     1      -6.872  13.526  69.027  1.00  0.00    -0.107 C  
HETATM    2  C   UNL     1      -6.728  12.009  68.795  1.00  0.00    -0.087 C  
HETATM    3  C   UNL     1      -7.210  11.528  67.266  1.00  0.00    -0.132 C  
HETATM    4  N   UNL     1      -7.583  11.323  69.807  1.00  0.00    -0.303 NA 
HETATM    5  C   UNL     1      -5.255  11.685  69.170  1.00  0.00    -0.047 C  
HETATM    6  H2  UNL     1      -8.553  11.639  69.790  1.00  0.00     0.000 HD 
HETATM    7  N   UNL     1      -8.561  11.206  67.086  1.00  0.00    -0.136 N  
HETATM    8  H1  UNL     1      -7.487  10.319  69.653  1.00  0.00     0.000 HD 
HETATM    9  O   UNL     1      -6.419  11.497  66.324  1.00  0.00    -0.046 OA 
HETATM   10  H   UNL     1      -9.069  11.136  67.967  1.00  0.00     0.000 HD 
ENDROOT
BRANCH   7  11
HETATM   11  C   UNL     1      -9.473  10.929  65.839  1.00  0.00    -0.207 C  
BRANCH  11  12
HETATM   12  C   UNL     1     -10.844  11.690  65.527  1.00  0.00    -0.334 C  
BRANCH  12  13
HETATM   13  C   UNL     1     -11.441  12.746  66.577  1.00  0.00    -0.409 A  
HETATM   14  C   UNL     1     -11.766  14.075  66.377  1.00  0.00    -0.391 A  
HETATM   15  C   UNL     1     -12.074  11.514  70.236  1.00  0.00    -0.444 A  
HETATM   16  C   UNL     1     -12.221  12.772  70.815  1.00  0.00    -0.338 A  
HETATM   17  C   UNL     1     -12.220  13.910  70.009  1.00  0.00    -0.408 A  
HETATM   18  N   UNL     1     -12.089  14.670  67.596  1.00  0.00    -0.584 NA 
HETATM   19  C   UNL     1     -11.844  11.376  68.851  1.00  0.00    -0.413 A  
HETATM   20  C   UNL     1     -11.767  12.515  68.006  1.00  0.00    -0.410 A  
HETATM   21  C   UNL     1     -12.028  13.745  68.610  1.00  0.00    -0.366 A  
HETATM   22  H   UNL     1     -12.335  15.652  67.717  1.00  0.00     0.000 HD 
ENDBRANCH  12  13
ENDBRANCH  11  12
BRANCH  11  23
HETATM   23  C   UNL     1      -9.544   9.388  65.665  1.00  0.00    -0.274 C  
HETATM   24  N   UNL     1     -10.134   8.662  66.681  1.00  0.00    -0.287 N  
HETATM   25  H   UNL     1     -10.622   9.148  67.433  1.00  0.00     0.000 HD 
HETATM   26  O   UNL     1      -9.010   8.847  64.692  1.00  0.00    -0.134 OA 
BRANCH  24  27
HETATM   27  C   UNL     1     -10.065   7.219  66.684  1.00  0.00    -0.168 C  
BRANCH  27  28
HETATM   28  N   UNL     1      -8.681   6.824  66.724  1.00  0.00    -0.118 N  
HETATM   29  O   UNL     1      -8.099   8.220  68.472  1.00  0.00    -0.120 OA 
HETATM   30  C   UNL     1      -7.811   7.374  67.638  1.00  0.00    -0.113 C  
HETATM   31  H   UNL     1      -8.339   6.125  66.065  1.00  0.00     0.000 HD 
ENDBRANCH  27  28
BRANCH  27  32
HETATM   32  C   UNL     1     -10.991   6.446  67.648  1.00  0.00    -0.441 C  
BRANCH  32  33
HETATM   33  C   UNL     1     -10.784   6.127  69.119  1.00  0.00    -0.381 A  
HETATM   34  C   UNL     1     -10.558   5.862  71.397  1.00  0.00    -0.252 A  
HETATM   35  H   UNL     1      -9.745   3.914  71.234  1.00  0.00     0.000 HD 
HETATM   36  C   UNL     1     -10.603   6.112  72.778  1.00  0.00    -0.254 A  
HETATM   37  C   UNL     1     -10.246   4.879  69.420  1.00  0.00    -0.159 A  
HETATM   38  C   UNL     1     -11.065   7.355  73.193  1.00  0.00    -0.357 A  
HETATM   39  N   UNL     1     -10.118   4.740  70.765  1.00  0.00    -0.230 NA 
HETATM   40  C   UNL     1     -11.460   8.306  72.252  1.00  0.00    -0.452 A  
HETATM   41  C   UNL     1     -11.420   8.032  70.868  1.00  0.00    -0.291 A  
HETATM   42  C   UNL     1     -10.965   6.778  70.407  1.00  0.00    -0.330 A  
ENDBRANCH  32  33
ENDBRANCH  27  32
ENDBRANCH  24  27
ENDBRANCH  11  23
ENDBRANCH   7  11
TORSDOF 8
ENDMDL
MODEL      113
REMARK 921   NORMALIZED FREE ENERGY PREDICTED BY IDOCK:   -6.79 KCAL/MOL
REMARK 922        TOTAL FREE ENERGY PREDICTED BY IDOCK:  -12.10 KCAL/MOL
REMARK 923 INTER-LIGAND FREE ENERGY PREDICTED BY IDOCK:  -10.73 KCAL/MOL
REMARK 924 INTRA-LIGAND FREE ENERGY PREDICTED BY IDOCK:   -1.38 KCAL/MOL
REMARK 927      BINDING AFFINITY PREDICTED BY RF-SCORE:    0.00 PKD
ROOT
HETATM    1  C   UNL     1     -14.390  15.248  71.496  1.00  0.00    -0.633 C  
HETATM    2  C   UNL     1     -12.984  15.009  72.080  1.00  0.00    -0.342 C  
HETATM    3  C   UNL     1     -11.756  15.281  70.976  1.00  0.00    -0.348 C  
HETATM    4  N   UNL     1     -12.925  13.586  72.524  1.00  0.00    -0.318 NA 
HETATM    5  C   UNL     1     -12.934  15.875  73.370  1.00  0.00    -0.693 C  
HETATM    6  H2  UNL     1     -13.167  12.927  71.783  1.00  0.00     0.000 HD 
HETATM    7  N   UNL     1     -11.364  14.207  70.168  1.00  0.00    -0.470 N  
HETATM    8  H1  UNL     1     -11.995  13.428  72.911  1.00  0.00     0.000 HD 
HETATM    9  O   UNL     1     -11.243  16.392  70.848  1.00  0.00    -0.332 OA 
HETATM   10  H   UNL     1     -11.765  13.320  70.473  1.00  0.00     0.000 HD 
ENDROOT
BRANCH   7  11
HETATM   11  C   UNL     1     -10.452  14.054  68.900  1.00  0.00    -0.200 C  
BRANCH  11  12
HETATM   12  C   UNL     1     -10.341  15.130  67.723  1.00  0.00    -0.243 C  
BRANCH  12  13
HETATM   13  C   UNL     1      -9.310  16.354  67.839  1.00  0.00    -0.214 A  
HETATM   14  C   UNL     1      -8.064  16.382  68.438  1.00  0.00    -0.188 A  
HETATM   15  C   UNL     1     -10.373  19.782  66.281  1.00  0.00    -0.626 A  
HETATM   16  C   UNL     1      -9.405  20.560  66.909  1.00  0.00    -0.435 A  
HETATM   17  C   UNL     1      -8.424  19.950  67.690  1.00  0.00    -0.374 A  
HETATM   18  N   UNL     1      -7.582  17.690  68.464  1.00  0.00    -0.263 NA 
HETATM   19  C   UNL     1     -10.425  18.386  66.484  1.00  0.00    -0.411 A  
HETATM   20  C   UNL     1      -9.485  17.735  67.326  1.00  0.00    -0.255 A  
HETATM   21  C   UNL     1      -8.470  18.539  67.848  1.00  0.00    -0.275 A  
HETATM   22  H   UNL     1      -6.696  17.976  68.880  1.00  0.00     0.000 HD 
ENDBRANCH  12  13
ENDBRANCH  11  12
BRANCH  11  23
HETATM   23  C   UNL     1     -10.597  12.587  68.413  1.00  0.00    -0.242 C  
HETATM   24  N   UNL     1     -10.014  11.602  69.185  1.00  0.00    -0.418 N  
HETATM   25  H   UNL     1      -9.634  11.836  70.102  1.00  0.00     0.000 HD 
HETATM   26  O   UNL     1     -11.141  12.342  67.332  1.00  0.00    -0.253 OA 
BRANCH  24  27
HETATM   27  C   UNL     1      -9.938  10.242  68.702  1.00  0.00    -0.173 C  
BRANCH  27  28
HETATM   28  N   UNL     1      -8.581   9.779  68.838  1.00  0.00    -0.128 N  
HETATM   29  O   UNL     1      -7.857  10.602  66.803  1.00  0.00    -0.116 OA 
HETATM   30  C   UNL     1      -7.649  10.012  67.852  1.00  0.00    -0.089 C  
HETATM   31  H   UNL     1      -8.307   9.271  69.678  1.00  0.00     0.000 HD 
ENDBRANCH  27  28
BRANCH  27  32
HETATM   32  C   UNL     1     -11.017   9.242  69.167  1.00  0.00    -0.083 C  
BRANCH  32  33
HETATM   33  C   UNL     1     -10.840   7.914  69.885  1.00  0.00    -0.221 A  
HETATM   34  C   UNL     1     -10.587   6.025  71.180  1.00  0.00    -0.246 A  
HETATM   35  H   UNL     1     -10.428   4.730  69.513  1.00  0.00     0.000 HD 
HETATM   36  C   UNL     1     -10.477   5.179  72.295  1.00  0.00    -0.277 A  
HETATM   37  C   UNL     1     -10.702   6.782  69.086  1.00  0.00    -0.253 A  
HETATM   38  C   UNL     1     -10.509   5.767  73.554  1.00  0.00    -0.276 A  
HETATM   39  N   UNL     1     -10.551   5.679  69.864  1.00  0.00    -0.309 NA 
HETATM   40  C   UNL     1     -10.639   7.150  73.679  1.00  0.00    -0.375 A  
HETATM   41  C   UNL     1     -10.760   7.983  72.546  1.00  0.00    -0.407 A  
HETATM   42  C   UNL     1     -10.742   7.423  71.250  1.00  0.00    -0.238 A  
ENDBRANCH  32  33
ENDBRANCH  27  32
ENDBRANCH  24  27
ENDBRANCH  11  23
ENDBRANCH   7  11
TORSDOF 8
ENDMDL
MODEL      114
REMARK 921   NORMALIZED FREE ENERGY PREDICTED BY IDOCK:   -6.78 KCAL/MOL
REMARK 922        TOTAL FREE ENERGY PREDICTED BY IDOCK:  -12.10 KCAL/MOL
REMARK 923 INTER-LIGAND FREE ENERGY PREDICTED BY IDOCK:   -9.90 KCAL/MOL
REMARK 924 INTRA-LIGAND FREE ENERGY PREDICTED BY IDOCK:   -2.19 KCAL/MOL
REMARK 927      BINDING AFFINITY PREDICTED BY RF-SCORE:    0.00 PKD
ROOT
HETATM    1  C   UNL     1     -12.360   7.133  71.042  1.00  0.00    -0.376 C  
HETATM    2  C   UNL     1     -12.275   8.433  71.865  1.00  0.00    -0.343 C  
HETATM    3  C   UNL     1     -12.238   9.812  70.917  1.00  0.00    -0.302 C  
HETATM    4  N   UNL     1     -11.020   8.367  72.668  1.00  0.00    -0.322 NA 
HETATM    5  C   UNL     1     -13.451   8.343  72.877  1.00  0.00     0.156 C  
HETATM    6  H2  UNL     1     -10.190   8.200  72.097  1.00  0.00     0.000 HD 
HETATM    7  N   UNL     1     -10.987  10.263  70.482  1.00  0.00    -0.380 N  
HETATM    8  H1  UNL     1     -10.964   9.228  73.213  1.00  0.00     0.000 HD 
HETATM    9  O   UNL     1     -13.273  10.386  70.579  1.00  0.00    -0.300 OA 
HETATM   10  H   UNL     1     -10.214   9.786  70.946  1.00  0.00     0.000 HD 
ENDROOT
BRANCH   7  11
HETATM   11  C   UNL     1     -10.499  11.334  69.443  1.00  0.00    -0.050 C  
BRANCH  11  12
HETATM   12  C   UNL     1     -11.451  12.387  68.706  1.00  0.00    -0.350 C  
BRANCH  12  13
HETATM   13  C   UNL     1     -11.673  13.850  69.326  1.00  0.00    -0.381 A  
HETATM   14  C   UNL     1     -11.409  15.080  68.754  1.00  0.00    -0.291 A  
HETATM   15  C   UNL     1     -13.123  14.089  72.952  1.00  0.00    -0.481 A  
HETATM   16  C   UNL     1     -12.807  15.427  73.172  1.00  0.00    -0.606 A  
HETATM   17  C   UNL     1     -12.261  16.189  72.140  1.00  0.00    -0.549 A  
HETATM   18  N   UNL     1     -11.586  16.089  69.700  1.00  0.00    -0.320 NA 
HETATM   19  C   UNL     1     -12.828  13.468  71.720  1.00  0.00    -0.399 A  
HETATM   20  C   UNL     1     -12.210  14.192  70.666  1.00  0.00    -0.432 A  
HETATM   21  C   UNL     1     -12.010  15.555  70.893  1.00  0.00    -0.375 A  
HETATM   22  H   UNL     1     -11.424  17.081  69.531  1.00  0.00     0.000 HD 
ENDBRANCH  12  13
ENDBRANCH  11  12
BRANCH  11  23
HETATM   23  C   UNL     1      -9.484  10.626  68.507  1.00  0.00    -0.176 C  
HETATM   24  N   UNL     1      -8.533  11.415  67.891  1.00  0.00    -0.134 N  
HETATM   25  H   UNL     1      -8.431  12.392  68.165  1.00  0.00     0.000 HD 
HETATM   26  O   UNL     1      -9.595   9.420  68.268  1.00  0.00    -0.141 OA 
BRANCH  24  27
HETATM   27  C   UNL     1      -7.681  10.865  66.861  1.00  0.00    -0.135 C  
BRANCH  27  28
HETATM   28  N   UNL     1      -6.943   9.760  67.416  1.00  0.00    -0.083 N  
HETATM   29  O   UNL     1      -5.835  11.009  69.014  1.00  0.00    -0.040 OA 
HETATM   30  C   UNL     1      -6.072   9.943  68.466  1.00  0.00    -0.045 C  
HETATM   31  H   UNL     1      -7.067   8.827  67.024  1.00  0.00     0.000 HD 
ENDBRANCH  27  28
BRANCH  27  32
HETATM   32  C   UNL     1      -8.295  10.604  65.469  1.00  0.00    -0.158 C  
BRANCH  32  33
HETATM   33  C   UNL     1      -9.492  11.274  64.814  1.00  0.00    -0.221 A  
HETATM   34  C   UNL     1     -11.256  12.481  63.955  1.00  0.00    -0.436 A  
HETATM   35  H   UNL     1     -11.897  10.913  62.685  1.00  0.00     0.000 HD 
HETATM   36  C   UNL     1     -12.160  13.527  63.709  1.00  0.00    -0.482 A  
HETATM   37  C   UNL     1     -10.196  10.522  63.877  1.00  0.00    -0.129 A  
HETATM   38  C   UNL     1     -12.006  14.697  64.443  1.00  0.00    -0.454 A  
HETATM   39  N   UNL     1     -11.232  11.246  63.383  1.00  0.00    -0.188 NA 
HETATM   40  C   UNL     1     -10.988  14.802  65.389  1.00  0.00    -0.365 A  
HETATM   41  C   UNL     1     -10.081  13.744  65.614  1.00  0.00    -0.315 A  
HETATM   42  C   UNL     1     -10.197  12.543  64.882  1.00  0.00    -0.301 A  
ENDBRANCH  32  33
ENDBRANCH  27  32
ENDBRANCH  24  27
ENDBRANCH  11  23
ENDBRANCH   7  11
TORSDOF 8
ENDMDL
MODEL      115
REMARK 921   NORMALIZED FREE ENERGY PREDICTED BY IDOCK:   -6.77 KCAL/MOL
REMARK 922        TOTAL FREE ENERGY PREDICTED BY IDOCK:  -12.08 KCAL/MOL
REMARK 923 INTER-LIGAND FREE ENERGY PREDICTED BY IDOCK:   -9.39 KCAL/MOL
REMARK 924 INTRA-LIGAND FREE ENERGY PREDICTED BY IDOCK:   -2.69 KCAL/MOL
REMARK 927      BINDING AFFINITY PREDICTED BY RF-SCORE:    0.00 PKD
ROOT
HETATM    1  C   UNL     1     -10.835  12.648  63.807  1.00  0.00    -0.466 C  
HETATM    2  C   UNL     1     -11.721  13.354  64.852  1.00  0.00    -0.351 C  
HETATM    3  C   UNL     1     -11.034  13.399  66.377  1.00  0.00    -0.289 C  
HETATM    4  N   UNL     1     -13.006  12.599  64.925  1.00  0.00    -0.850 NA 
HETATM    5  C   UNL     1     -12.057  14.735  64.224  1.00  0.00    -0.415 C  
HETATM    6  H2  UNL     1     -12.874  11.606  65.119  1.00  0.00     0.000 HD 
HETATM    7  N   UNL     1     -11.275  12.312  67.227  1.00  0.00    -0.281 N  
HETATM    8  H1  UNL     1     -13.592  13.066  65.617  1.00  0.00     0.000 HD 
HETATM    9  O   UNL     1     -10.309  14.329  66.727  1.00  0.00    -0.268 OA 
HETATM   10  H   UNL     1     -11.998  11.688  66.870  1.00  0.00     0.000 HD 
ENDROOT
BRANCH   7  11
HETATM   11  C   UNL     1     -10.688  11.834  68.602  1.00  0.00    -0.220 C  
BRANCH  11  12
HETATM   12  C   UNL     1      -9.396  10.907  68.767  1.00  0.00    -0.190 C  
BRANCH  12  13
HETATM   13  C   UNL     1      -9.111   9.722  67.725  1.00  0.00    -0.138 A  
HETATM   14  C   UNL     1      -8.282   9.723  66.619  1.00  0.00    -0.120 A  
HETATM   15  C   UNL     1     -10.986   6.331  68.270  1.00  0.00    -0.408 A  
HETATM   16  C   UNL     1     -10.729   5.792  67.013  1.00  0.00    -0.369 A  
HETATM   17  C   UNL     1      -9.901   6.474  66.123  1.00  0.00     0.066 A  
HETATM   18  N   UNL     1      -8.461   8.546  65.893  1.00  0.00    -0.143 NA 
HETATM   19  C   UNL     1     -10.484   7.600  68.631  1.00  0.00    -0.203 A  
HETATM   20  C   UNL     1      -9.693   8.357  67.727  1.00  0.00    -0.199 A  
HETATM   21  C   UNL     1      -9.371   7.731  66.522  1.00  0.00    -0.189 A  
HETATM   22  H   UNL     1      -7.985   8.322  65.019  1.00  0.00     0.000 HD 
ENDBRANCH  12  13
ENDBRANCH  11  12
BRANCH  11  23
HETATM   23  C   UNL     1     -11.893  11.413  69.485  1.00  0.00    -0.357 C  
HETATM   24  N   UNL     1     -11.772  11.591  70.849  1.00  0.00    -0.271 N  
HETATM   25  H   UNL     1     -10.977  12.108  71.223  1.00  0.00     0.000 HD 
HETATM   26  O   UNL     1     -12.875  10.863  68.976  1.00  0.00    -0.082 OA 
BRANCH  24  27
HETATM   27  C   UNL     1     -12.764  11.048  71.748  1.00  0.00    -0.303 C  
BRANCH  27  28
HETATM   28  N   UNL     1     -13.893  11.942  71.783  1.00  0.00     0.340 N  
HETATM   29  O   UNL     1     -12.735  13.730  72.681  1.00  0.00    -0.227 OA 
HETATM   30  C   UNL     1     -13.765  13.229  72.255  1.00  0.00    -0.589 C  
HETATM   31  H   UNL     1     -14.801  11.617  71.453  1.00  0.00     0.000 HD 
ENDBRANCH  27  28
BRANCH  27  32
HETATM   32  C   UNL     1     -13.123   9.552  71.622  1.00  0.00    -0.486 C  
BRANCH  32  33
HETATM   33  C   UNL     1     -12.216   8.339  71.755  1.00  0.00    -0.367 A  
HETATM   34  C   UNL     1     -10.659   6.656  71.978  1.00  0.00    -0.211 A  
HETATM   35  H   UNL     1     -12.097   5.110  71.822  1.00  0.00     0.000 HD 
HETATM   36  C   UNL     1      -9.437   5.986  72.150  1.00  0.00    -0.158 A  
HETATM   37  C   UNL     1     -12.828   7.090  71.702  1.00  0.00    -0.364 A  
HETATM   38  C   UNL     1      -8.286   6.759  72.244  1.00  0.00    -0.106 A  
HETATM   39  N   UNL     1     -11.897   6.110  71.832  1.00  0.00    -0.298 NA 
HETATM   40  C   UNL     1      -8.367   8.149  72.163  1.00  0.00    -0.209 A  
HETATM   41  C   UNL     1      -9.606   8.806  72.003  1.00  0.00    -0.356 A  
HETATM   42  C   UNL     1     -10.799   8.056  71.912  1.00  0.00    -0.316 A  
ENDBRANCH  32  33
ENDBRANCH  27  32
ENDBRANCH  24  27
ENDBRANCH  11  23
ENDBRANCH   7  11
TORSDOF 8
ENDMDL
MODEL      116
REMARK 921   NORMALIZED FREE ENERGY PREDICTED BY IDOCK:   -6.76 KCAL/MOL
REMARK 922        TOTAL FREE ENERGY PREDICTED BY IDOCK:  -12.07 KCAL/MOL
REMARK 923 INTER-LIGAND FREE ENERGY PREDICTED BY IDOCK:  -10.66 KCAL/MOL
REMARK 924 INTRA-LIGAND FREE ENERGY PREDICTED BY IDOCK:   -1.41 KCAL/MOL
REMARK 927      BINDING AFFINITY PREDICTED BY RF-SCORE:    0.00 PKD
ROOT
HETATM    1  C   UNL     1     -10.460  18.198  67.001  1.00  0.00    -0.385 C  
HETATM    2  C   UNL     1      -9.740  17.363  68.077  1.00  0.00    -0.281 C  
HETATM    3  C   UNL     1      -9.585  15.748  67.663  1.00  0.00    -0.220 C  
HETATM    4  N   UNL     1     -10.546  17.463  69.328  1.00  0.00    -0.381 NA 
HETATM    5  C   UNL     1      -8.410  18.119  68.347  1.00  0.00    -0.311 C  
HETATM    6  H2  UNL     1     -11.521  17.191  69.197  1.00  0.00     0.000 HD 
HETATM    7  N   UNL     1     -10.635  14.889  68.009  1.00  0.00    -0.245 N  
HETATM    8  H1  UNL     1     -10.069  16.910  70.040  1.00  0.00     0.000 HD 
HETATM    9  O   UNL     1      -8.606  15.336  67.041  1.00  0.00    -0.194 OA 
HETATM   10  H   UNL     1     -11.308  15.325  68.638  1.00  0.00     0.000 HD 
ENDROOT
BRANCH   7  11
HETATM   11  C   UNL     1     -11.014  13.409  67.651  1.00  0.00    -0.259 C  
BRANCH  11  12
HETATM   12  C   UNL     1     -12.006  12.983  66.471  1.00  0.00    -0.457 C  
BRANCH  12  13
HETATM   13  C   UNL     1     -11.439  12.252  65.161  1.00  0.00    -0.390 A  
HETATM   14  C   UNL     1     -11.999  12.181  63.899  1.00  0.00    -0.486 A  
HETATM   15  C   UNL     1      -8.032  10.353  65.468  1.00  0.00    -0.153 A  
HETATM   16  C   UNL     1      -8.135   9.628  64.284  1.00  0.00    -0.146 A  
HETATM   17  C   UNL     1      -9.204   9.860  63.421  1.00  0.00    -0.278 A  
HETATM   18  N   UNL     1     -11.263  11.303  63.104  1.00  0.00    -0.845 NA 
HETATM   19  C   UNL     1      -9.038  11.266  65.849  1.00  0.00    -0.217 A  
HETATM   20  C   UNL     1     -10.178  11.480  65.030  1.00  0.00    -0.328 A  
HETATM   21  C   UNL     1     -10.185  10.814  63.803  1.00  0.00    -0.288 A  
HETATM   22  H   UNL     1     -11.492  11.058  62.141  1.00  0.00     0.000 HD 
ENDBRANCH  12  13
ENDBRANCH  11  12
BRANCH  11  23
HETATM   23  C   UNL     1     -11.263  12.669  68.992  1.00  0.00    -0.269 C  
HETATM   24  N   UNL     1     -10.775  11.382  69.106  1.00  0.00    -0.306 N  
HETATM   25  H   UNL     1     -10.159  11.008  68.384  1.00  0.00     0.000 HD 
HETATM   26  O   UNL     1     -11.946  13.195  69.876  1.00  0.00    -0.317 OA 
BRANCH  24  27
HETATM   27  C   UNL     1     -11.131  10.563  70.242  1.00  0.00    -0.285 C  
BRANCH  27  28
HETATM   28  N   UNL     1     -12.506  10.156  70.103  1.00  0.00    -0.523 N  
HETATM   29  O   UNL     1     -12.998  10.253  72.359  1.00  0.00    -0.295 OA 
HETATM   30  C   UNL     1     -13.327  10.040  71.202  1.00  0.00    -0.305 C  
HETATM   31  H   UNL     1     -12.877   9.950  69.176  1.00  0.00     0.000 HD 
ENDBRANCH  27  28
BRANCH  27  32
HETATM   32  C   UNL     1     -10.159   9.440  70.665  1.00  0.00    -0.356 C  
BRANCH  32  33
HETATM   33  C   UNL     1     -10.466   7.989  70.997  1.00  0.00    -0.229 A  
HETATM   34  C   UNL     1     -10.906   5.850  71.732  1.00  0.00    -0.260 A  
HETATM   35  H   UNL     1     -11.163   5.078  69.777  1.00  0.00     0.000 HD 
HETATM   36  C   UNL     1     -11.120   4.750  72.577  1.00  0.00    -0.124 A  
HETATM   37  C   UNL     1     -10.705   7.137  69.922  1.00  0.00    -0.239 A  
HETATM   38  C   UNL     1     -10.977   4.951  73.945  1.00  0.00    -0.302 A  
HETATM   39  N   UNL     1     -10.960   5.881  70.372  1.00  0.00    -0.314 NA 
HETATM   40  C   UNL     1     -10.627   6.208  74.435  1.00  0.00    -0.009 A  
HETATM   41  C   UNL     1     -10.429   7.306  73.571  1.00  0.00    -0.421 A  
HETATM   42  C   UNL     1     -10.574   7.145  72.176  1.00  0.00    -0.238 A  
ENDBRANCH  32  33
ENDBRANCH  27  32
ENDBRANCH  24  27
ENDBRANCH  11  23
ENDBRANCH   7  11
TORSDOF 8
ENDMDL
MODEL      117
REMARK 921   NORMALIZED FREE ENERGY PREDICTED BY IDOCK:   -6.74 KCAL/MOL
REMARK 922        TOTAL FREE ENERGY PREDICTED BY IDOCK:  -12.04 KCAL/MOL
REMARK 923 INTER-LIGAND FREE ENERGY PREDICTED BY IDOCK:  -12.04 KCAL/MOL
REMARK 924 INTRA-LIGAND FREE ENERGY PREDICTED BY IDOCK:    0.00 KCAL/MOL
REMARK 927      BINDING AFFINITY PREDICTED BY RF-SCORE:    0.00 PKD
ROOT
HETATM    1  C   UNL     1     -12.004  14.339  64.045  1.00  0.00    -0.328 C  
HETATM    2  C   UNL     1     -11.477  12.903  64.225  1.00  0.00    -0.377 C  
HETATM    3  C   UNL     1     -11.197  12.499  65.825  1.00  0.00    -0.320 C  
HETATM    4  N   UNL     1     -10.192  12.806  63.473  1.00  0.00    -0.644 NA 
HETATM    5  C   UNL     1     -12.497  12.004  63.472  1.00  0.00    -0.654 C  
HETATM    6  H2  UNL     1      -9.514  13.517  63.748  1.00  0.00     0.000 HD 
HETATM    7  N   UNL     1      -9.936  12.795  66.355  1.00  0.00    -0.259 N  
HETATM    8  H1  UNL     1      -9.843  11.854  63.592  1.00  0.00     0.000 HD 
HETATM    9  O   UNL     1     -12.078  11.998  66.523  1.00  0.00    -0.617 OA 
HETATM   10  H   UNL     1      -9.265  13.072  65.640  1.00  0.00     0.000 HD 
ENDROOT
BRANCH   7  11
HETATM   11  C   UNL     1      -9.319  12.800  67.798  1.00  0.00    -0.199 C  
BRANCH  11  12
HETATM   12  C   UNL     1      -9.236  11.523  68.757  1.00  0.00    -0.076 C  
BRANCH  12  13
HETATM   13  C   UNL     1     -10.556  10.964  69.477  1.00  0.00    -0.217 A  
HETATM   14  C   UNL     1     -11.867  11.366  69.311  1.00  0.00    -0.349 A  
HETATM   15  C   UNL     1     -10.119   8.093  72.099  1.00  0.00    -0.320 A  
HETATM   16  C   UNL     1     -11.382   8.197  72.676  1.00  0.00    -0.450 A  
HETATM   17  C   UNL     1     -12.318   9.080  72.138  1.00  0.00    -0.442 A  
HETATM   18  N   UNL     1     -12.678  10.737  70.256  1.00  0.00    -0.349 NA 
HETATM   19  C   UNL     1      -9.742   8.925  71.024  1.00  0.00    -0.320 A  
HETATM   20  C   UNL     1     -10.644   9.885  70.492  1.00  0.00    -0.359 A  
HETATM   21  C   UNL     1     -11.932   9.880  71.029  1.00  0.00    -0.365 A  
HETATM   22  H   UNL     1     -13.680  10.891  70.358  1.00  0.00     0.000 HD 
ENDBRANCH  12  13
ENDBRANCH  11  12
BRANCH  11  23
HETATM   23  C   UNL     1      -9.816  14.093  68.498  1.00  0.00    -0.230 C  
HETATM   24  N   UNL     1     -11.089  14.532  68.189  1.00  0.00    -0.257 N  
HETATM   25  H   UNL     1     -11.707  13.941  67.634  1.00  0.00     0.000 HD 
HETATM   26  O   UNL     1      -9.058  14.735  69.231  1.00  0.00    -0.136 OA 
BRANCH  24  27
HETATM   27  C   UNL     1     -11.548  15.823  68.646  1.00  0.00    -0.386 C  
BRANCH  27  28
HETATM   28  N   UNL     1     -12.572  15.623  69.640  1.00  0.00    -0.548 N  
HETATM   29  O   UNL     1     -11.115  15.154  71.372  1.00  0.00    -0.317 OA 
HETATM   30  C   UNL     1     -12.248  15.302  70.939  1.00  0.00    -0.355 C  
HETATM   31  H   UNL     1     -13.552  15.719  69.377  1.00  0.00     0.000 HD 
ENDBRANCH  27  28
BRANCH  27  32
HETATM   32  C   UNL     1     -10.491  16.888  69.007  1.00  0.00    -0.341 C  
BRANCH  32  33
HETATM   33  C   UNL     1      -9.846  17.933  68.111  1.00  0.00    -0.334 A  
HETATM   34  C   UNL     1      -8.695  19.356  66.710  1.00  0.00    -0.319 A  
HETATM   35  H   UNL     1     -10.091  20.932  66.929  1.00  0.00     0.000 HD 
HETATM   36  C   UNL     1      -7.725  19.862  65.831  1.00  0.00    -0.327 A  
HETATM   37  C   UNL     1     -10.505  19.154  67.996  1.00  0.00    -0.370 A  
HETATM   38  C   UNL     1      -6.642  19.046  65.527  1.00  0.00    -0.309 A  
HETATM   39  N   UNL     1      -9.814  19.981  67.170  1.00  0.00    -0.398 NA 
HETATM   40  C   UNL     1      -6.542  17.776  66.092  1.00  0.00    -0.309 A  
HETATM   41  C   UNL     1      -7.533  17.278  66.965  1.00  0.00    -0.223 A  
HETATM   42  C   UNL     1      -8.654  18.073  67.291  1.00  0.00    -0.240 A  
ENDBRANCH  32  33
ENDBRANCH  27  32
ENDBRANCH  24  27
ENDBRANCH  11  23
ENDBRANCH   7  11
TORSDOF 8
ENDMDL
MODEL      118
REMARK 921   NORMALIZED FREE ENERGY PREDICTED BY IDOCK:   -6.74 KCAL/MOL
REMARK 922        TOTAL FREE ENERGY PREDICTED BY IDOCK:  -12.03 KCAL/MOL
REMARK 923 INTER-LIGAND FREE ENERGY PREDICTED BY IDOCK:  -10.57 KCAL/MOL
REMARK 924 INTRA-LIGAND FREE ENERGY PREDICTED BY IDOCK:   -1.46 KCAL/MOL
REMARK 927      BINDING AFFINITY PREDICTED BY RF-SCORE:    0.00 PKD
ROOT
HETATM    1  C   UNL     1     -12.808  11.636  71.650  1.00  0.00    -0.454 C  
HETATM    2  C   UNL     1     -12.667  10.165  71.210  1.00  0.00    -0.407 C  
HETATM    3  C   UNL     1     -11.442   9.925  70.095  1.00  0.00    -0.248 C  
HETATM    4  N   UNL     1     -13.964   9.762  70.594  1.00  0.00    -0.256 NA 
HETATM    5  C   UNL     1     -12.539   9.362  72.534  1.00  0.00    -0.210 C  
HETATM    6  H2  UNL     1     -14.255  10.380  69.836  1.00  0.00     0.000 HD 
HETATM    7  N   UNL     1     -11.763  10.072  68.741  1.00  0.00    -0.472 N  
HETATM    8  H1  UNL     1     -13.871   8.788  70.303  1.00  0.00     0.000 HD 
HETATM    9  O   UNL     1     -10.292   9.670  70.451  1.00  0.00    -0.254 OA 
HETATM   10  H   UNL     1     -12.768  10.141  68.581  1.00  0.00     0.000 HD 
ENDROOT
BRANCH   7  11
HETATM   11  C   UNL     1     -10.933  10.156  67.412  1.00  0.00    -0.229 C  
BRANCH  11  12
HETATM   12  C   UNL     1      -9.762   9.145  67.005  1.00  0.00    -0.245 C  
BRANCH  12  13
HETATM   13  C   UNL     1     -10.083   7.594  66.752  1.00  0.00    -0.325 A  
HETATM   14  C   UNL     1     -11.218   6.880  67.087  1.00  0.00    -0.147 A  
HETATM   15  C   UNL     1      -7.342   5.436  64.981  1.00  0.00    -0.068 A  
HETATM   16  C   UNL     1      -7.877   4.190  65.298  1.00  0.00    -0.086 A  
HETATM   17  C   UNL     1      -9.108   4.110  65.948  1.00  0.00    -0.136 A  
HETATM   18  N   UNL     1     -11.012   5.523  66.841  1.00  0.00    -0.453 NA 
HETATM   19  C   UNL     1      -7.990   6.625  65.377  1.00  0.00    -0.121 A  
HETATM   20  C   UNL     1      -9.211   6.585  66.101  1.00  0.00    -0.126 A  
HETATM   21  C   UNL     1      -9.764   5.320  66.301  1.00  0.00    -0.169 A  
HETATM   22  H   UNL     1     -11.690   4.786  67.034  1.00  0.00     0.000 HD 
ENDBRANCH  12  13
ENDBRANCH  11  12
BRANCH  11  23
HETATM   23  C   UNL     1     -10.592  11.653  67.185  1.00  0.00    -0.232 C  
HETATM   24  N   UNL     1     -11.202  12.288  66.121  1.00  0.00    -0.312 N  
HETATM   25  H   UNL     1     -11.946  11.816  65.609  1.00  0.00     0.000 HD 
HETATM   26  O   UNL     1      -9.742  12.210  67.886  1.00  0.00    -0.188 OA 
BRANCH  24  27
HETATM   27  C   UNL     1     -10.792  13.617  65.730  1.00  0.00    -0.273 C  
BRANCH  27  28
HETATM   28  N   UNL     1     -10.628  13.646  64.299  1.00  0.00    -0.567 N  
HETATM   29  O   UNL     1     -12.675  12.688  63.818  1.00  0.00    -0.690 OA 
HETATM   30  C   UNL     1     -11.610  13.170  63.461  1.00  0.00    -0.338 C  
HETATM   31  H   UNL     1      -9.770  14.026  63.900  1.00  0.00     0.000 HD 
ENDBRANCH  27  28
BRANCH  27  32
HETATM   32  C   UNL     1     -11.555  14.821  66.322  1.00  0.00    -0.298 C  
BRANCH  32  33
HETATM   33  C   UNL     1     -11.052  15.896  67.271  1.00  0.00    -0.172 A  
HETATM   34  C   UNL     1     -10.273  17.670  68.519  1.00  0.00    -0.386 A  
HETATM   35  H   UNL     1     -10.326  16.596  70.342  1.00  0.00     0.000 HD 
HETATM   36  C   UNL     1      -9.809  18.946  68.873  1.00  0.00    -0.447 A  
HETATM   37  C   UNL     1     -10.951  15.548  68.616  1.00  0.00    -0.279 A  
HETATM   38  C   UNL     1      -9.634  19.874  67.854  1.00  0.00    -0.490 A  
HETATM   39  N   UNL     1     -10.489  16.602  69.335  1.00  0.00    -0.324 NA 
HETATM   40  C   UNL     1      -9.910  19.524  66.533  1.00  0.00    -0.498 A  
HETATM   41  C   UNL     1     -10.388  18.240  66.196  1.00  0.00    -0.414 A  
HETATM   42  C   UNL     1     -10.589  17.272  67.204  1.00  0.00    -0.256 A  
ENDBRANCH  32  33
ENDBRANCH  27  32
ENDBRANCH  24  27
ENDBRANCH  11  23
ENDBRANCH   7  11
TORSDOF 8
ENDMDL
MODEL      119
REMARK 921   NORMALIZED FREE ENERGY PREDICTED BY IDOCK:   -6.73 KCAL/MOL
REMARK 922        TOTAL FREE ENERGY PREDICTED BY IDOCK:  -12.02 KCAL/MOL
REMARK 923 INTER-LIGAND FREE ENERGY PREDICTED BY IDOCK:   -8.26 KCAL/MOL
REMARK 924 INTRA-LIGAND FREE ENERGY PREDICTED BY IDOCK:   -3.77 KCAL/MOL
REMARK 927      BINDING AFFINITY PREDICTED BY RF-SCORE:    0.00 PKD
ROOT
HETATM    1  C   UNL     1     -12.746  13.695  65.604  1.00  0.00    -0.505 C  
HETATM    2  C   UNL     1     -11.653  13.397  64.559  1.00  0.00    -0.371 C  
HETATM    3  C   UNL     1     -10.703  12.078  64.957  1.00  0.00    -0.296 C  
HETATM    4  N   UNL     1     -10.784  14.606  64.470  1.00  0.00    -0.610 NA 
HETATM    5  C   UNL     1     -12.409  13.298  63.205  1.00  0.00    -0.317 C  
HETATM    6  H2  UNL     1     -10.405  14.893  65.374  1.00  0.00     0.000 HD 
HETATM    7  N   UNL     1      -9.574  12.311  65.751  1.00  0.00    -0.369 N  
HETATM    8  H1  UNL     1     -10.060  14.409  63.779  1.00  0.00     0.000 HD 
HETATM    9  O   UNL     1     -11.005  10.939  64.601  1.00  0.00    -0.195 OA 
HETATM   10  H   UNL     1      -9.363  13.303  65.853  1.00  0.00     0.000 HD 
ENDROOT
BRANCH   7  11
HETATM   11  C   UNL     1      -8.558  11.395  66.521  1.00  0.00    -0.175 C  
BRANCH  11  12
HETATM   12  C   UNL     1      -7.980  10.010  65.968  1.00  0.00    -0.118 C  
BRANCH  12  13
HETATM   13  C   UNL     1      -7.889   8.730  66.930  1.00  0.00    -0.101 A  
HETATM   14  C   UNL     1      -6.792   8.234  67.608  1.00  0.00    -0.070 A  
HETATM   15  C   UNL     1     -11.146   6.631  67.477  1.00  0.00    -0.374 A  
HETATM   16  C   UNL     1     -10.533   5.510  68.030  1.00  0.00    -0.240 A  
HETATM   17  C   UNL     1      -9.164   5.527  68.292  1.00  0.00    -0.118 A  
HETATM   18  N   UNL     1      -7.110   7.007  68.189  1.00  0.00    -0.083 NA 
HETATM   19  C   UNL     1     -10.388   7.761  67.104  1.00  0.00    -0.389 A  
HETATM   20  C   UNL     1      -8.980   7.791  67.291  1.00  0.00    -0.136 A  
HETATM   21  C   UNL     1      -8.426   6.691  67.947  1.00  0.00    -0.119 A  
HETATM   22  H   UNL     1      -6.460   6.427  68.718  1.00  0.00     0.000 HD 
ENDBRANCH  12  13
ENDBRANCH  11  12
BRANCH  11  23
HETATM   23  C   UNL     1      -9.024  11.348  68.001  1.00  0.00    -0.163 C  
HETATM   24  N   UNL     1     -10.345  11.022  68.239  1.00  0.00    -0.171 N  
HETATM   25  H   UNL     1     -10.931  10.692  67.472  1.00  0.00     0.000 HD 
HETATM   26  O   UNL     1      -8.253  11.676  68.907  1.00  0.00    -0.096 OA 
BRANCH  24  27
HETATM   27  C   UNL     1     -10.901  11.145  69.567  1.00  0.00    -0.188 C  
BRANCH  27  28
HETATM   28  N   UNL     1     -12.009  12.064  69.519  1.00  0.00    -0.301 N  
HETATM   29  O   UNL     1     -10.723  13.952  69.169  1.00  0.00    -0.225 OA 
HETATM   30  C   UNL     1     -11.809  13.410  69.317  1.00  0.00    -0.334 C  
HETATM   31  H   UNL     1     -12.959  11.710  69.636  1.00  0.00     0.000 HD 
ENDBRANCH  27  28
BRANCH  27  32
HETATM   32  C   UNL     1     -11.159   9.854  70.373  1.00  0.00    -0.382 C  
BRANCH  32  33
HETATM   33  C   UNL     1     -10.163   8.802  70.834  1.00  0.00    -0.284 A  
HETATM   34  C   UNL     1      -8.842   7.063  71.566  1.00  0.00    -0.128 A  
HETATM   35  H   UNL     1      -7.040   8.153  71.354  1.00  0.00     0.000 HD 
HETATM   36  C   UNL     1      -8.440   5.802  72.036  1.00  0.00    -0.126 A  
HETATM   37  C   UNL     1      -8.819   9.167  70.829  1.00  0.00    -0.239 A  
HETATM   38  C   UNL     1      -9.433   4.869  72.309  1.00  0.00    -0.173 A  
HETATM   39  N   UNL     1      -8.056   8.132  71.265  1.00  0.00    -0.099 NA 
HETATM   40  C   UNL     1     -10.774   5.198  72.120  1.00  0.00    -0.252 A  
HETATM   41  C   UNL     1     -11.160   6.466  71.634  1.00  0.00    -0.314 A  
HETATM   42  C   UNL     1     -10.180   7.439  71.336  1.00  0.00    -0.198 A  
ENDBRANCH  32  33
ENDBRANCH  27  32
ENDBRANCH  24  27
ENDBRANCH  11  23
ENDBRANCH   7  11
TORSDOF 8
ENDMDL
MODEL      120
REMARK 921   NORMALIZED FREE ENERGY PREDICTED BY IDOCK:   -6.73 KCAL/MOL
REMARK 922        TOTAL FREE ENERGY PREDICTED BY IDOCK:  -12.02 KCAL/MOL
REMARK 923 INTER-LIGAND FREE ENERGY PREDICTED BY IDOCK:   -9.86 KCAL/MOL
REMARK 924 INTRA-LIGAND FREE ENERGY PREDICTED BY IDOCK:   -2.17 KCAL/MOL
REMARK 927      BINDING AFFINITY PREDICTED BY RF-SCORE:    0.00 PKD
ROOT
HETATM    1  C   UNL     1     -10.404  14.710  64.964  1.00  0.00    -0.432 C  
HETATM    2  C   UNL     1     -11.036  13.359  64.575  1.00  0.00    -0.390 C  
HETATM    3  C   UNL     1     -11.823  12.609  65.848  1.00  0.00    -0.444 C  
HETATM    4  N   UNL     1      -9.931  12.473  64.104  1.00  0.00    -0.584 NA 
HETATM    5  C   UNL     1     -11.912  13.670  63.330  1.00  0.00    -0.202 C  
HETATM    6  H2  UNL     1      -9.177  12.380  64.785  1.00  0.00     0.000 HD 
HETATM    7  N   UNL     1     -11.065  11.770  66.672  1.00  0.00    -0.298 N  
HETATM    8  H1  UNL     1     -10.350  11.579  63.847  1.00  0.00     0.000 HD 
HETATM    9  O   UNL     1     -13.014  12.818  66.078  1.00  0.00    -0.016 OA 
HETATM   10  H   UNL     1     -10.140  11.575  66.290  1.00  0.00     0.000 HD 
ENDROOT
BRANCH   7  11
HETATM   11  C   UNL     1     -11.311  11.060  68.050  1.00  0.00    -0.306 C  
BRANCH  11  12
HETATM   12  C   UNL     1     -11.289  11.796  69.470  1.00  0.00    -0.317 C  
BRANCH  12  13
HETATM   13  C   UNL     1     -11.429  13.391  69.558  1.00  0.00    -0.308 A  
HETATM   14  C   UNL     1     -12.449  14.140  70.114  1.00  0.00    -0.331 A  
HETATM   15  C   UNL     1      -8.572  15.556  67.990  1.00  0.00    -0.155 A  
HETATM   16  C   UNL     1      -9.264  16.764  67.977  1.00  0.00    -0.228 A  
HETATM   17  C   UNL     1     -10.530  16.844  68.554  1.00  0.00    -0.361 A  
HETATM   18  N   UNL     1     -12.257  15.490  69.821  1.00  0.00    -0.499 NA 
HETATM   19  C   UNL     1      -9.166  14.387  68.511  1.00  0.00    -0.198 A  
HETATM   20  C   UNL     1     -10.481  14.411  69.046  1.00  0.00    -0.227 A  
HETATM   21  C   UNL     1     -11.094  15.664  69.110  1.00  0.00    -0.284 A  
HETATM   22  H   UNL     1     -12.890  16.241  70.094  1.00  0.00     0.000 HD 
ENDBRANCH  12  13
ENDBRANCH  11  12
BRANCH  11  23
HETATM   23  C   UNL     1     -10.530   9.719  68.013  1.00  0.00    -0.226 C  
HETATM   24  N   UNL     1     -10.798   8.858  66.968  1.00  0.00    -0.301 N  
HETATM   25  H   UNL     1     -11.380   9.170  66.191  1.00  0.00     0.000 HD 
HETATM   26  O   UNL     1      -9.769   9.417  68.937  1.00  0.00    -0.158 OA 
BRANCH  24  27
HETATM   27  C   UNL     1     -10.260   7.517  66.968  1.00  0.00    -0.298 C  
BRANCH  27  28
HETATM   28  N   UNL     1      -8.828   7.596  67.098  1.00  0.00    -0.123 N  
HETATM   29  O   UNL     1      -8.432   8.168  64.895  1.00  0.00    -0.151 OA 
HETATM   30  C   UNL     1      -8.033   7.924  66.024  1.00  0.00    -0.103 C  
HETATM   31  H   UNL     1      -8.395   7.405  68.002  1.00  0.00     0.000 HD 
ENDBRANCH  27  28
BRANCH  27  32
HETATM   32  C   UNL     1     -10.938   6.458  67.864  1.00  0.00    -0.416 C  
BRANCH  32  33
HETATM   33  C   UNL     1     -10.573   6.029  69.276  1.00  0.00    -0.366 A  
HETATM   34  C   UNL     1     -10.135   5.576  71.492  1.00  0.00    -0.205 A  
HETATM   35  H   UNL     1      -9.082   3.789  71.066  1.00  0.00     0.000 HD 
HETATM   36  C   UNL     1     -10.103   5.680  72.892  1.00  0.00    -0.199 A  
HETATM   37  C   UNL     1      -9.850   4.846  69.404  1.00  0.00    -0.211 A  
HETATM   38  C   UNL     1     -10.695   6.798  73.468  1.00  0.00    -0.319 A  
HETATM   39  N   UNL     1      -9.599   4.595  70.715  1.00  0.00    -0.167 NA 
HETATM   40  C   UNL     1     -11.287   7.770  72.663  1.00  0.00    -0.449 A  
HETATM   41  C   UNL     1     -11.320   7.642  71.258  1.00  0.00    -0.286 A  
HETATM   42  C   UNL     1     -10.739   6.517  70.635  1.00  0.00    -0.297 A  
ENDBRANCH  32  33
ENDBRANCH  27  32
ENDBRANCH  24  27
ENDBRANCH  11  23
ENDBRANCH   7  11
TORSDOF 8
ENDMDL
MODEL      121
REMARK 921   NORMALIZED FREE ENERGY PREDICTED BY IDOCK:   -6.72 KCAL/MOL
REMARK 922        TOTAL FREE ENERGY PREDICTED BY IDOCK:  -12.01 KCAL/MOL
REMARK 923 INTER-LIGAND FREE ENERGY PREDICTED BY IDOCK:  -10.36 KCAL/MOL
REMARK 924 INTRA-LIGAND FREE ENERGY PREDICTED BY IDOCK:   -1.65 KCAL/MOL
REMARK 927      BINDING AFFINITY PREDICTED BY RF-SCORE:    0.00 PKD
ROOT
HETATM    1  C   UNL     1     -13.028  11.466  71.887  1.00  0.00    -0.466 C  
HETATM    2  C   UNL     1     -12.777  10.017  71.425  1.00  0.00    -0.415 C  
HETATM    3  C   UNL     1     -11.517   9.884  70.330  1.00  0.00    -0.301 C  
HETATM    4  N   UNL     1     -14.031   9.536  70.777  1.00  0.00    -0.406 NA 
HETATM    5  C   UNL     1     -12.617   9.200  72.737  1.00  0.00    -0.018 C  
HETATM    6  H2  UNL     1     -14.350  10.146  70.023  1.00  0.00     0.000 HD 
HETATM    7  N   UNL     1     -11.823  10.033  68.973  1.00  0.00    -0.429 N  
HETATM    8  H1  UNL     1     -13.864   8.577  70.471  1.00  0.00     0.000 HD 
HETATM    9  O   UNL     1     -10.359   9.703  70.704  1.00  0.00    -0.278 OA 
HETATM   10  H   UNL     1     -12.827  10.035  68.794  1.00  0.00     0.000 HD 
ENDROOT
BRANCH   7  11
HETATM   11  C   UNL     1     -10.977  10.199  67.661  1.00  0.00    -0.268 C  
BRANCH  11  12
HETATM   12  C   UNL     1      -9.741   9.269  67.252  1.00  0.00    -0.218 C  
BRANCH  12  13
HETATM   13  C   UNL     1      -9.985   7.747  66.810  1.00  0.00    -0.331 A  
HETATM   14  C   UNL     1     -11.070   6.933  67.074  1.00  0.00    -0.245 A  
HETATM   15  C   UNL     1      -7.181   5.988  64.723  1.00  0.00    -0.063 A  
HETATM   16  C   UNL     1      -7.639   4.685  64.889  1.00  0.00    -0.077 A  
HETATM   17  C   UNL     1      -8.846   4.453  65.548  1.00  0.00    -0.127 A  
HETATM   18  N   UNL     1     -10.798   5.631  66.653  1.00  0.00    -0.573 NA 
HETATM   19  C   UNL     1      -7.881   7.079  65.281  1.00  0.00    -0.121 A  
HETATM   20  C   UNL     1      -9.078   6.880  66.018  1.00  0.00    -0.101 A  
HETATM   21  C   UNL     1      -9.557   5.569  66.066  1.00  0.00    -0.107 A  
HETATM   22  H   UNL     1     -11.430   4.839  66.764  1.00  0.00     0.000 HD 
ENDBRANCH  12  13
ENDBRANCH  11  12
BRANCH  11  23
HETATM   23  C   UNL     1     -10.721  11.719  67.478  1.00  0.00    -0.221 C  
HETATM   24  N   UNL     1     -11.813  12.515  67.193  1.00  0.00    -0.363 N  
HETATM   25  H   UNL     1     -12.753  12.124  67.248  1.00  0.00     0.000 HD 
HETATM   26  O   UNL     1      -9.570  12.163  67.503  1.00  0.00    -0.174 OA 
BRANCH  24  27
HETATM   27  C   UNL     1     -11.631  13.899  66.819  1.00  0.00    -0.378 C  
BRANCH  27  28
HETATM   28  N   UNL     1     -12.080  14.072  65.461  1.00  0.00    -0.389 N  
HETATM   29  O   UNL     1     -10.571  15.742  64.937  1.00  0.00    -0.490 OA 
HETATM   30  C   UNL     1     -11.490  14.997  64.631  1.00  0.00    -0.381 C  
HETATM   31  H   UNL     1     -12.847  13.499  65.110  1.00  0.00     0.000 HD 
ENDBRANCH  27  28
BRANCH  27  32
HETATM   32  C   UNL     1     -12.103  14.989  67.805  1.00  0.00     0.014 C  
BRANCH  32  33
HETATM   33  C   UNL     1     -11.759  15.159  69.275  1.00  0.00    -0.352 A  
HETATM   34  C   UNL     1     -11.473  15.410  71.548  1.00  0.00    -0.413 A  
HETATM   35  H   UNL     1      -9.362  15.498  71.417  1.00  0.00     0.000 HD 
HETATM   36  C   UNL     1     -11.748  15.532  72.919  1.00  0.00    -0.521 A  
HETATM   37  C   UNL     1     -10.407  15.254  69.596  1.00  0.00    -0.262 A  
HETATM   38  C   UNL     1     -13.082  15.547  73.310  1.00  0.00    -0.658 A  
HETATM   39  N   UNL     1     -10.257  15.404  70.937  1.00  0.00     0.285 NA 
HETATM   40  C   UNL     1     -14.093  15.448  72.355  1.00  0.00    -0.645 A  
HETATM   41  C   UNL     1     -13.798  15.312  70.981  1.00  0.00    -0.414 A  
HETATM   42  C   UNL     1     -12.455  15.284  70.545  1.00  0.00    -0.454 A  
ENDBRANCH  32  33
ENDBRANCH  27  32
ENDBRANCH  24  27
ENDBRANCH  11  23
ENDBRANCH   7  11
TORSDOF 8
ENDMDL
MODEL      122
REMARK 921   NORMALIZED FREE ENERGY PREDICTED BY IDOCK:   -6.71 KCAL/MOL
REMARK 922        TOTAL FREE ENERGY PREDICTED BY IDOCK:  -11.98 KCAL/MOL
REMARK 923 INTER-LIGAND FREE ENERGY PREDICTED BY IDOCK:  -10.33 KCAL/MOL
REMARK 924 INTRA-LIGAND FREE ENERGY PREDICTED BY IDOCK:   -1.66 KCAL/MOL
REMARK 927      BINDING AFFINITY PREDICTED BY RF-SCORE:    0.00 PKD
ROOT
HETATM    1  C   UNL     1     -11.419  15.809  70.596  1.00  0.00    -0.415 C  
HETATM    2  C   UNL     1     -10.593  15.471  69.339  1.00  0.00    -0.250 C  
HETATM    3  C   UNL     1     -11.054  14.034  68.614  1.00  0.00    -0.264 C  
HETATM    4  N   UNL     1      -9.167  15.359  69.763  1.00  0.00    -0.402 NA 
HETATM    5  C   UNL     1     -10.689  16.738  68.445  1.00  0.00    -0.362 C  
HETATM    6  H2  UNL     1      -9.028  14.693  70.524  1.00  0.00     0.000 HD 
HETATM    7  N   UNL     1     -10.444  12.858  69.065  1.00  0.00    -0.437 N  
HETATM    8  H1  UNL     1      -8.621  15.135  68.931  1.00  0.00     0.000 HD 
HETATM    9  O   UNL     1     -11.926  14.005  67.746  1.00  0.00    -0.362 OA 
HETATM   10  H   UNL     1      -9.648  13.038  69.677  1.00  0.00     0.000 HD 
ENDROOT
BRANCH   7  11
HETATM   11  C   UNL     1     -10.703  11.326  68.846  1.00  0.00    -0.207 C  
BRANCH  11  12
HETATM   12  C   UNL     1     -11.189  10.672  67.470  1.00  0.00    -0.326 C  
BRANCH  12  13
HETATM   13  C   UNL     1     -10.394  10.967  66.109  1.00  0.00    -0.305 A  
HETATM   14  C   UNL     1     -10.390  12.116  65.341  1.00  0.00    -0.269 A  
HETATM   15  C   UNL     1      -8.156   8.106  64.654  1.00  0.00    -0.148 A  
HETATM   16  C   UNL     1      -7.987   8.652  63.385  1.00  0.00    -0.160 A  
HETATM   17  C   UNL     1      -8.492   9.922  63.104  1.00  0.00    -0.178 A  
HETATM   18  N   UNL     1      -9.701  11.886  64.150  1.00  0.00    -0.466 NA 
HETATM   19  C   UNL     1      -8.900   8.785  65.642  1.00  0.00    -0.239 A  
HETATM   20  C   UNL     1      -9.488  10.050  65.374  1.00  0.00    -0.310 A  
HETATM   21  C   UNL     1      -9.202  10.606  64.127  1.00  0.00    -0.236 A  
HETATM   22  H   UNL     1      -9.584  12.571  63.403  1.00  0.00     0.000 HD 
ENDBRANCH  12  13
ENDBRANCH  11  12
BRANCH  11  23
HETATM   23  C   UNL     1     -11.461  10.812  70.100  1.00  0.00    -0.331 C  
HETATM   24  N   UNL     1     -11.135   9.554  70.566  1.00  0.00    -0.261 N  
HETATM   25  H   UNL     1     -10.331   9.062  70.177  1.00  0.00     0.000 HD 
HETATM   26  O   UNL     1     -12.375  11.480  70.592  1.00  0.00    -0.361 OA 
BRANCH  24  27
HETATM   27  C   UNL     1     -11.925   8.930  71.603  1.00  0.00    -0.345 C  
BRANCH  27  28
HETATM   28  N   UNL     1     -13.233   8.641  71.073  1.00  0.00    -0.517 N  
HETATM   29  O   UNL     1     -14.318   8.693  73.113  1.00  0.00    -0.284 OA 
HETATM   30  C   UNL     1     -14.330   8.551  71.900  1.00  0.00    -0.448 C  
HETATM   31  H   UNL     1     -13.348   8.500  70.070  1.00  0.00     0.000 HD 
ENDBRANCH  27  28
BRANCH  27  32
HETATM   32  C   UNL     1     -11.286   7.787  72.420  1.00  0.00    -0.392 C  
BRANCH  32  33
HETATM   33  C   UNL     1     -10.780   6.437  71.937  1.00  0.00    -0.262 A  
HETATM   34  C   UNL     1     -10.032   4.478  70.983  1.00  0.00    -0.187 A  
HETATM   35  H   UNL     1      -9.788   3.497  72.843  1.00  0.00     0.000 HD 
HETATM   36  C   UNL     1      -9.634   3.529  70.028  1.00  0.00    -0.226 A  
HETATM   37  C   UNL     1     -10.495   5.488  72.915  1.00  0.00    -0.214 A  
HETATM   38  C   UNL     1      -9.726   3.886  68.688  1.00  0.00    -0.114 A  
HETATM   39  N   UNL     1     -10.058   4.340  72.337  1.00  0.00    -0.171 NA 
HETATM   40  C   UNL     1     -10.204   5.145  68.329  1.00  0.00    -0.179 A  
HETATM   41  C   UNL     1     -10.588   6.092  69.304  1.00  0.00    -0.366 A  
HETATM   42  C   UNL     1     -10.501   5.771  70.676  1.00  0.00    -0.331 A  
ENDBRANCH  32  33
ENDBRANCH  27  32
ENDBRANCH  24  27
ENDBRANCH  11  23
ENDBRANCH   7  11
TORSDOF 8
ENDMDL
MODEL      123
REMARK 921   NORMALIZED FREE ENERGY PREDICTED BY IDOCK:   -6.70 KCAL/MOL
REMARK 922        TOTAL FREE ENERGY PREDICTED BY IDOCK:  -11.97 KCAL/MOL
REMARK 923 INTER-LIGAND FREE ENERGY PREDICTED BY IDOCK:  -10.28 KCAL/MOL
REMARK 924 INTRA-LIGAND FREE ENERGY PREDICTED BY IDOCK:   -1.69 KCAL/MOL
REMARK 927      BINDING AFFINITY PREDICTED BY RF-SCORE:    0.00 PKD
ROOT
HETATM    1  C   UNL     1      -5.958  10.059  71.039  1.00  0.00    -0.055 C  
HETATM    2  C   UNL     1      -7.075   9.065  70.665  1.00  0.00    -0.084 C  
HETATM    3  C   UNL     1      -7.962   9.541  69.328  1.00  0.00    -0.094 C  
HETATM    4  N   UNL     1      -7.990   8.965  71.839  1.00  0.00    -0.354 NA 
HETATM    5  C   UNL     1      -6.362   7.689  70.545  1.00  0.00    -0.038 C  
HETATM    6  H2  UNL     1      -8.348   9.871  72.144  1.00  0.00     0.000 HD 
HETATM    7  N   UNL     1      -9.070  10.367  69.549  1.00  0.00    -0.365 N  
HETATM    8  H1  UNL     1      -8.729   8.307  71.592  1.00  0.00     0.000 HD 
HETATM    9  O   UNL     1      -7.630   9.215  68.189  1.00  0.00    -0.083 OA 
HETATM   10  H   UNL     1      -9.313  10.442  70.537  1.00  0.00     0.000 HD 
ENDROOT
BRANCH   7  11
HETATM   11  C   UNL     1     -10.026  11.203  68.627  1.00  0.00    -0.205 C  
BRANCH  11  12
HETATM   12  C   UNL     1     -11.418  11.836  69.094  1.00  0.00    -0.358 C  
BRANCH  12  13
HETATM   13  C   UNL     1     -11.497  13.372  69.552  1.00  0.00    -0.308 A  
HETATM   14  C   UNL     1     -11.066  14.498  68.877  1.00  0.00    -0.256 A  
HETATM   15  C   UNL     1     -13.073  14.149  73.048  1.00  0.00    -0.458 A  
HETATM   16  C   UNL     1     -12.614  15.459  73.153  1.00  0.00    -0.580 A  
HETATM   17  C   UNL     1     -11.938  16.044  72.083  1.00  0.00    -0.629 A  
HETATM   18  N   UNL     1     -11.168  15.614  69.708  1.00  0.00    -0.292 NA 
HETATM   19  C   UNL     1     -12.796  13.373  71.902  1.00  0.00    -0.354 A  
HETATM   20  C   UNL     1     -12.051  13.910  70.819  1.00  0.00    -0.404 A  
HETATM   21  C   UNL     1     -11.705  15.258  70.922  1.00  0.00    -0.344 A  
HETATM   22  H   UNL     1     -10.884  16.559  69.451  1.00  0.00     0.000 HD 
ENDBRANCH  12  13
ENDBRANCH  11  12
BRANCH  11  23
HETATM   23  C   UNL     1     -10.083  10.476  67.257  1.00  0.00    -0.201 C  
HETATM   24  N   UNL     1      -9.210  10.904  66.275  1.00  0.00    -0.172 N  
HETATM   25  H   UNL     1      -8.475  11.572  66.508  1.00  0.00     0.000 HD 
HETATM   26  O   UNL     1     -10.939   9.612  67.047  1.00  0.00    -0.148 OA 
BRANCH  24  27
HETATM   27  C   UNL     1      -9.334  10.413  64.923  1.00  0.00    -0.243 C  
BRANCH  27  28
HETATM   28  N   UNL     1      -9.426   8.976  64.961  1.00  0.00    -0.430 N  
HETATM   29  O   UNL     1      -7.149   8.607  65.099  1.00  0.00    -0.083 OA 
HETATM   30  C   UNL     1      -8.297   8.193  65.050  1.00  0.00    -0.136 C  
HETATM   31  H   UNL     1     -10.343   8.531  64.921  1.00  0.00     0.000 HD 
ENDBRANCH  27  28
BRANCH  27  32
HETATM   32  C   UNL     1     -10.345  11.105  63.984  1.00  0.00    -0.437 C  
BRANCH  32  33
HETATM   33  C   UNL     1     -10.959  12.491  64.099  1.00  0.00    -0.425 A  
HETATM   34  C   UNL     1     -11.690  14.656  64.390  1.00  0.00    -0.346 A  
HETATM   35  H   UNL     1     -13.532  14.319  63.403  1.00  0.00     0.000 HD 
HETATM   36  C   UNL     1     -11.732  16.009  64.763  1.00  0.00     0.012 A  
HETATM   37  C   UNL     1     -12.222  12.665  63.539  1.00  0.00    -0.547 A  
HETATM   38  C   UNL     1     -10.651  16.514  65.476  1.00  0.00    -0.310 A  
HETATM   39  N   UNL     1     -12.638  13.945  63.721  1.00  0.00    -0.763 NA 
HETATM   40  C   UNL     1      -9.579  15.686  65.803  1.00  0.00    -0.361 A  
HETATM   41  C   UNL     1      -9.548  14.331  65.409  1.00  0.00     0.012 A  
HETATM   42  C   UNL     1     -10.622  13.782  64.674  1.00  0.00    -0.443 A  
ENDBRANCH  32  33
ENDBRANCH  27  32
ENDBRANCH  24  27
ENDBRANCH  11  23
ENDBRANCH   7  11
TORSDOF 8
ENDMDL
MODEL      124
REMARK 921   NORMALIZED FREE ENERGY PREDICTED BY IDOCK:   -6.69 KCAL/MOL
REMARK 922        TOTAL FREE ENERGY PREDICTED BY IDOCK:  -11.96 KCAL/MOL
REMARK 923 INTER-LIGAND FREE ENERGY PREDICTED BY IDOCK:   -9.21 KCAL/MOL
REMARK 924 INTRA-LIGAND FREE ENERGY PREDICTED BY IDOCK:   -2.75 KCAL/MOL
REMARK 927      BINDING AFFINITY PREDICTED BY RF-SCORE:    0.00 PKD
ROOT
HETATM    1  C   UNL     1     -10.629   7.120  71.029  1.00  0.00    -0.239 C  
HETATM    2  C   UNL     1     -10.814   8.482  71.726  1.00  0.00    -0.304 C  
HETATM    3  C   UNL     1     -11.307   9.695  70.683  1.00  0.00    -0.312 C  
HETATM    4  N   UNL     1      -9.496   8.861  72.314  1.00  0.00    -0.321 NA 
HETATM    5  C   UNL     1     -11.764   8.194  72.922  1.00  0.00    -0.194 C  
HETATM    6  H2  UNL     1      -8.739   8.862  71.630  1.00  0.00     0.000 HD 
HETATM    7  N   UNL     1     -10.312  10.418  70.015  1.00  0.00    -0.429 N  
HETATM    8  H1  UNL     1      -9.619   9.762  72.776  1.00  0.00     0.000 HD 
HETATM    9  O   UNL     1     -12.500   9.918  70.477  1.00  0.00    -0.222 OA 
HETATM   10  H   UNL     1      -9.379  10.231  70.381  1.00  0.00     0.000 HD 
ENDROOT
BRANCH   7  11
HETATM   11  C   UNL     1     -10.301  11.449  68.833  1.00  0.00    -0.184 C  
BRANCH  11  12
HETATM   12  C   UNL     1     -11.338  12.656  68.668  1.00  0.00    -0.331 C  
BRANCH  12  13
HETATM   13  C   UNL     1     -10.905  14.153  69.047  1.00  0.00    -0.273 A  
HETATM   14  C   UNL     1     -11.653  15.141  69.659  1.00  0.00    -0.311 A  
HETATM   15  C   UNL     1      -7.271  15.281  68.133  1.00  0.00    -0.126 A  
HETATM   16  C   UNL     1      -7.472  16.648  68.299  1.00  0.00    -0.182 A  
HETATM   17  C   UNL     1      -8.692  17.115  68.787  1.00  0.00    -0.235 A  
HETATM   18  N   UNL     1     -10.948  16.345  69.643  1.00  0.00    -0.336 NA 
HETATM   19  C   UNL     1      -8.313  14.361  68.377  1.00  0.00    -0.155 A  
HETATM   20  C   UNL     1      -9.592  14.802  68.809  1.00  0.00    -0.215 A  
HETATM   21  C   UNL     1      -9.714  16.168  69.065  1.00  0.00    -0.248 A  
HETATM   22  H   UNL     1     -11.300  17.230  70.007  1.00  0.00     0.000 HD 
ENDBRANCH  12  13
ENDBRANCH  11  12
BRANCH  11  23
HETATM   23  C   UNL     1     -10.049  10.642  67.531  1.00  0.00    -0.184 C  
HETATM   24  N   UNL     1      -9.033  11.077  66.703  1.00  0.00    -0.163 N  
HETATM   25  H   UNL     1      -8.398  11.809  67.022  1.00  0.00     0.000 HD 
HETATM   26  O   UNL     1     -10.794   9.707  67.225  1.00  0.00    -0.254 OA 
BRANCH  24  27
HETATM   27  C   UNL     1      -8.863  10.500  65.389  1.00  0.00    -0.187 C  
BRANCH  27  28
HETATM   28  N   UNL     1      -8.510   9.112  65.537  1.00  0.00    -0.138 N  
HETATM   29  O   UNL     1      -6.342   9.349  64.772  1.00  0.00    -0.073 OA 
HETATM   30  C   UNL     1      -7.252   8.660  65.208  1.00  0.00    -0.083 C  
HETATM   31  H   UNL     1      -9.203   8.453  65.890  1.00  0.00     0.000 HD 
ENDBRANCH  27  28
BRANCH  27  32
HETATM   32  C   UNL     1      -9.941  10.788  64.322  1.00  0.00    -0.403 C  
BRANCH  32  33
HETATM   33  C   UNL     1     -10.835  12.008  64.174  1.00  0.00    -0.405 A  
HETATM   34  C   UNL     1     -12.016  13.983  64.057  1.00  0.00    -0.354 A  
HETATM   35  H   UNL     1     -13.681  13.097  63.096  1.00  0.00     0.000 HD 
HETATM   36  C   UNL     1     -12.361  15.338  64.184  1.00  0.00    -0.065 A  
HETATM   37  C   UNL     1     -12.068  11.811  63.557  1.00  0.00    -0.379 A  
HETATM   38  C   UNL     1     -11.457  16.175  64.826  1.00  0.00    -0.168 A  
HETATM   39  N   UNL     1     -12.751  12.982  63.499  1.00  0.00    -0.693 NA 
HETATM   40  C   UNL     1     -10.259  15.664  65.323  1.00  0.00    -0.358 A  
HETATM   41  C   UNL     1      -9.923  14.300  65.175  1.00  0.00    -0.266 A  
HETATM   42  C   UNL     1     -10.811  13.419  64.521  1.00  0.00    -0.419 A  
ENDBRANCH  32  33
ENDBRANCH  27  32
ENDBRANCH  24  27
ENDBRANCH  11  23
ENDBRANCH   7  11
TORSDOF 8
ENDMDL
MODEL      125
REMARK 921   NORMALIZED FREE ENERGY PREDICTED BY IDOCK:   -6.68 KCAL/MOL
REMARK 922        TOTAL FREE ENERGY PREDICTED BY IDOCK:  -11.95 KCAL/MOL
REMARK 923 INTER-LIGAND FREE ENERGY PREDICTED BY IDOCK:   -9.56 KCAL/MOL
REMARK 924 INTRA-LIGAND FREE ENERGY PREDICTED BY IDOCK:   -2.38 KCAL/MOL
REMARK 927      BINDING AFFINITY PREDICTED BY RF-SCORE:    0.00 PKD
ROOT
HETATM    1  C   UNL     1      -9.894   4.016  70.919  1.00  0.00    -0.229 C  
HETATM    2  C   UNL     1     -10.177   5.376  71.587  1.00  0.00    -0.209 C  
HETATM    3  C   UNL     1     -10.689   6.547  70.506  1.00  0.00    -0.254 C  
HETATM    4  N   UNL     1      -8.905   5.831  72.221  1.00  0.00    -0.135 NA 
HETATM    5  C   UNL     1     -11.159   5.056  72.748  1.00  0.00    -0.310 C  
HETATM    6  H2  UNL     1      -8.122   5.862  71.568  1.00  0.00     0.000 HD 
HETATM    7  N   UNL     1      -9.705   7.311  69.867  1.00  0.00    -0.174 N  
HETATM    8  H1  UNL     1      -9.093   6.731  72.663  1.00  0.00     0.000 HD 
HETATM    9  O   UNL     1     -11.882   6.705  70.249  1.00  0.00    -0.395 OA 
HETATM   10  H   UNL     1      -8.779   7.178  70.273  1.00  0.00     0.000 HD 
ENDROOT
BRANCH   7  11
HETATM   11  C   UNL     1      -9.699   8.326  68.669  1.00  0.00    -0.156 C  
BRANCH  11  12
HETATM   12  C   UNL     1      -8.507   8.482  67.614  1.00  0.00    -0.129 C  
BRANCH  12  13
HETATM   13  C   UNL     1      -8.407   7.495  66.354  1.00  0.00    -0.126 A  
HETATM   14  C   UNL     1      -8.110   7.800  65.039  1.00  0.00    -0.139 A  
HETATM   15  C   UNL     1      -9.110   3.694  66.959  1.00  0.00    -0.186 A  
HETATM   16  C   UNL     1      -9.262   3.336  65.623  1.00  0.00    -0.150 A  
HETATM   17  C   UNL     1      -9.031   4.278  64.622  1.00  0.00    -0.146 A  
HETATM   18  N   UNL     1      -8.300   6.673  64.239  1.00  0.00    -0.333 NA 
HETATM   19  C   UNL     1      -8.799   5.022  67.322  1.00  0.00    -0.102 A  
HETATM   20  C   UNL     1      -8.623   6.028  66.335  1.00  0.00    -0.129 A  
HETATM   21  C   UNL     1      -8.679   5.600  65.008  1.00  0.00    -0.064 A  
HETATM   22  H   UNL     1      -8.175   6.650  63.227  1.00  0.00     0.000 HD 
ENDBRANCH  12  13
ENDBRANCH  11  12
BRANCH  11  23
HETATM   23  C   UNL     1     -10.250   9.671  69.214  1.00  0.00    -0.205 C  
HETATM   24  N   UNL     1     -11.612   9.881  69.122  1.00  0.00    -0.472 N  
HETATM   25  H   UNL     1     -12.225   9.117  68.837  1.00  0.00     0.000 HD 
HETATM   26  O   UNL     1      -9.476  10.538  69.628  1.00  0.00    -0.140 OA 
BRANCH  24  27
HETATM   27  C   UNL     1     -12.174  11.177  69.426  1.00  0.00    -0.259 C  
BRANCH  27  28
HETATM   28  N   UNL     1     -12.231  11.330  70.857  1.00  0.00    -0.371 N  
HETATM   29  O   UNL     1     -13.644   9.537  71.220  1.00  0.00    -0.360 OA 
HETATM   30  C   UNL     1     -12.976  10.473  71.635  1.00  0.00    -0.476 C  
HETATM   31  H   UNL     1     -11.711  12.086  71.302  1.00  0.00     0.000 HD 
ENDBRANCH  27  28
BRANCH  27  32
HETATM   32  C   UNL     1     -11.634  12.404  68.661  1.00  0.00    -0.365 C  
BRANCH  32  33
HETATM   33  C   UNL     1     -11.644  12.676  67.166  1.00  0.00    -0.434 A  
HETATM   34  C   UNL     1     -11.539  12.882  64.873  1.00  0.00    -0.327 A  
HETATM   35  H   UNL     1     -12.589  14.720  64.846  1.00  0.00     0.000 HD 
HETATM   36  C   UNL     1     -11.262  12.613  63.523  1.00  0.00    -0.489 A  
HETATM   37  C   UNL     1     -12.276  13.843  66.745  1.00  0.00    -0.399 A  
HETATM   38  C   UNL     1     -10.534  11.466  63.231  1.00  0.00    -0.397 A  
HETATM   39  N   UNL     1     -12.203  13.950  65.393  1.00  0.00    -0.417 NA 
HETATM   40  C   UNL     1     -10.100  10.631  64.259  1.00  0.00    -0.411 A  
HETATM   41  C   UNL     1     -10.398  10.910  65.610  1.00  0.00    -0.305 A  
HETATM   42  C   UNL     1     -11.144  12.060  65.948  1.00  0.00    -0.369 A  
ENDBRANCH  32  33
ENDBRANCH  27  32
ENDBRANCH  24  27
ENDBRANCH  11  23
ENDBRANCH   7  11
TORSDOF 8
ENDMDL
MODEL      126
REMARK 921   NORMALIZED FREE ENERGY PREDICTED BY IDOCK:   -6.67 KCAL/MOL
REMARK 922        TOTAL FREE ENERGY PREDICTED BY IDOCK:  -11.93 KCAL/MOL
REMARK 923 INTER-LIGAND FREE ENERGY PREDICTED BY IDOCK:   -9.79 KCAL/MOL
REMARK 924 INTRA-LIGAND FREE ENERGY PREDICTED BY IDOCK:   -2.14 KCAL/MOL
REMARK 927      BINDING AFFINITY PREDICTED BY RF-SCORE:    0.00 PKD
ROOT
HETATM    1  C   UNL     1      -7.961   7.033  68.745  1.00  0.00    -0.120 C  
HETATM    2  C   UNL     1      -7.216   8.173  68.025  1.00  0.00    -0.094 C  
HETATM    3  C   UNL     1      -7.561   9.686  68.653  1.00  0.00    -0.080 C  
HETATM    4  N   UNL     1      -7.635   8.141  66.593  1.00  0.00    -0.092 NA 
HETATM    5  C   UNL     1      -5.719   7.756  68.056  1.00  0.00    -0.033 C  
HETATM    6  H2  UNL     1      -8.647   8.186  66.473  1.00  0.00     0.000 HD 
HETATM    7  N   UNL     1      -8.665  10.368  68.128  1.00  0.00    -0.123 N  
HETATM    8  H1  UNL     1      -7.142   8.896  66.117  1.00  0.00     0.000 HD 
HETATM    9  O   UNL     1      -6.897  10.165  69.572  1.00  0.00    -0.059 OA 
HETATM   10  H   UNL     1      -9.034   9.926  67.286  1.00  0.00     0.000 HD 
ENDROOT
BRANCH   7  11
HETATM   11  C   UNL     1      -9.464  11.655  68.536  1.00  0.00    -0.173 C  
BRANCH  11  12
HETATM   12  C   UNL     1     -11.059  11.777  68.526  1.00  0.00    -0.288 C  
BRANCH  12  13
HETATM   13  C   UNL     1     -11.864  11.979  69.899  1.00  0.00    -0.405 A  
HETATM   14  C   UNL     1     -12.303  11.020  70.792  1.00  0.00    -0.398 A  
HETATM   15  C   UNL     1     -12.790  15.633  70.945  1.00  0.00    -0.498 A  
HETATM   16  C   UNL     1     -13.726  15.298  71.919  1.00  0.00    -0.601 A  
HETATM   17  C   UNL     1     -13.926  13.960  72.256  1.00  0.00    -0.663 A  
HETATM   18  N   UNL     1     -13.110  11.613  71.763  1.00  0.00    -0.449 NA 
HETATM   19  C   UNL     1     -12.092  14.633  70.235  1.00  0.00    -0.380 A  
HETATM   20  C   UNL     1     -12.317  13.256  70.502  1.00  0.00    -0.389 A  
HETATM   21  C   UNL     1     -13.183  12.970  71.559  1.00  0.00    -0.272 A  
HETATM   22  H   UNL     1     -13.579  11.112  72.516  1.00  0.00     0.000 HD 
ENDBRANCH  12  13
ENDBRANCH  11  12
BRANCH  11  23
HETATM   23  C   UNL     1      -8.727  12.865  67.902  1.00  0.00    -0.186 C  
HETATM   24  N   UNL     1      -9.274  14.117  68.103  1.00  0.00    -0.188 N  
HETATM   25  H   UNL     1     -10.046  14.233  68.760  1.00  0.00     0.000 HD 
HETATM   26  O   UNL     1      -7.743  12.684  67.179  1.00  0.00    -0.158 OA 
BRANCH  24  27
HETATM   27  C   UNL     1      -8.760  15.263  67.389  1.00  0.00    -0.179 C  
BRANCH  27  28
HETATM   28  N   UNL     1      -7.328  15.293  67.536  1.00  0.00    -0.179 N  
HETATM   29  O   UNL     1      -7.341  16.030  69.726  1.00  0.00    -0.127 OA 
HETATM   30  C   UNL     1      -6.742  15.680  68.720  1.00  0.00    -0.116 C  
HETATM   31  H   UNL     1      -6.737  15.022  66.749  1.00  0.00     0.000 HD 
ENDBRANCH  27  28
BRANCH  27  32
HETATM   32  C   UNL     1      -9.273  15.520  65.956  1.00  0.00    -0.361 C  
BRANCH  32  33
HETATM   33  C   UNL     1     -10.399  14.825  65.207  1.00  0.00    -0.425 A  
HETATM   34  C   UNL     1     -11.974  13.572  64.086  1.00  0.00    -0.448 A  
HETATM   35  H   UNL     1     -13.302  15.202  63.837  1.00  0.00     0.000 HD 
HETATM   36  C   UNL     1     -12.629  12.487  63.483  1.00  0.00    -0.475 A  
HETATM   37  C   UNL     1     -11.497  15.608  64.859  1.00  0.00    -0.245 A  
HETATM   38  C   UNL     1     -11.965  11.266  63.459  1.00  0.00     0.312 A  
HETATM   39  N   UNL     1     -12.413  14.856  64.198  1.00  0.00    -0.786 NA 
HETATM   40  C   UNL     1     -10.693  11.150  64.016  1.00  0.00    -0.409 A  
HETATM   41  C   UNL     1     -10.055  12.249  64.630  1.00  0.00    -0.275 A  
HETATM   42  C   UNL     1     -10.700  13.503  64.683  1.00  0.00    -0.429 A  
ENDBRANCH  32  33
ENDBRANCH  27  32
ENDBRANCH  24  27
ENDBRANCH  11  23
ENDBRANCH   7  11
TORSDOF 8
ENDMDL
MODEL      127
REMARK 921   NORMALIZED FREE ENERGY PREDICTED BY IDOCK:   -6.66 KCAL/MOL
REMARK 922        TOTAL FREE ENERGY PREDICTED BY IDOCK:  -11.92 KCAL/MOL
REMARK 923 INTER-LIGAND FREE ENERGY PREDICTED BY IDOCK:  -10.16 KCAL/MOL
REMARK 924 INTRA-LIGAND FREE ENERGY PREDICTED BY IDOCK:   -1.77 KCAL/MOL
REMARK 927      BINDING AFFINITY PREDICTED BY RF-SCORE:    0.00 PKD
ROOT
HETATM    1  C   UNL     1     -10.636  19.363  67.927  1.00  0.00    -0.501 C  
HETATM    2  C   UNL     1      -9.491  18.710  67.129  1.00  0.00    -0.295 C  
HETATM    3  C   UNL     1      -9.934  17.272  66.396  1.00  0.00    -0.311 C  
HETATM    4  N   UNL     1      -8.382  18.439  68.089  1.00  0.00    -0.277 NA 
HETATM    5  C   UNL     1      -8.983  19.825  66.173  1.00  0.00    -0.387 C  
HETATM    6  H2  UNL     1      -8.676  17.883  68.893  1.00  0.00     0.000 HD 
HETATM    7  N   UNL     1      -9.793  16.096  67.142  1.00  0.00    -0.237 N  
HETATM    8  H1  UNL     1      -7.623  18.007  67.561  1.00  0.00     0.000 HD 
HETATM    9  O   UNL     1     -10.406  17.251  65.260  1.00  0.00    -0.626 OA 
HETATM   10  H   UNL     1      -9.263  16.238  68.002  1.00  0.00     0.000 HD 
ENDROOT
BRANCH   7  11
HETATM   11  C   UNL     1     -10.262  14.610  66.960  1.00  0.00    -0.261 C  
BRANCH  11  12
HETATM   12  C   UNL     1     -11.708  14.056  67.359  1.00  0.00    -0.421 C  
BRANCH  12  13
HETATM   13  C   UNL     1     -11.943  13.361  68.786  1.00  0.00    -0.359 A  
HETATM   14  C   UNL     1     -11.771  12.037  69.142  1.00  0.00    -0.330 A  
HETATM   15  C   UNL     1     -13.205  15.619  71.722  1.00  0.00    -0.548 A  
HETATM   16  C   UNL     1     -13.589  14.588  72.575  1.00  0.00    -0.586 A  
HETATM   17  C   UNL     1     -13.330  13.264  72.222  1.00  0.00    -0.630 A  
HETATM   18  N   UNL     1     -12.253  11.828  70.434  1.00  0.00    -0.348 NA 
HETATM   19  C   UNL     1     -12.626  15.342  70.465  1.00  0.00    -0.471 A  
HETATM   20  C   UNL     1     -12.409  14.005  70.039  1.00  0.00    -0.397 A  
HETATM   21  C   UNL     1     -12.708  13.009  70.969  1.00  0.00    -0.262 A  
HETATM   22  H   UNL     1     -12.266  10.928  70.912  1.00  0.00     0.000 HD 
ENDBRANCH  12  13
ENDBRANCH  11  12
BRANCH  11  23
HETATM   23  C   UNL     1      -9.084  13.706  67.413  1.00  0.00    -0.222 C  
HETATM   24  N   UNL     1      -8.857  12.551  66.690  1.00  0.00    -0.353 N  
HETATM   25  H   UNL     1      -9.362  12.392  65.818  1.00  0.00     0.000 HD 
HETATM   26  O   UNL     1      -8.444  13.982  68.431  1.00  0.00    -0.160 OA 
BRANCH  24  27
HETATM   27  C   UNL     1      -7.911  11.566  67.162  1.00  0.00    -0.160 C  
BRANCH  27  28
HETATM   28  N   UNL     1      -8.421  10.981  68.375  1.00  0.00    -0.138 N  
HETATM   29  O   UNL     1      -6.409  11.023  69.510  1.00  0.00    -0.070 OA 
HETATM   30  C   UNL     1      -7.601  10.763  69.459  1.00  0.00    -0.088 C  
HETATM   31  H   UNL     1      -9.407  10.724  68.432  1.00  0.00     0.000 HD 
ENDBRANCH  27  28
BRANCH  27  32
HETATM   32  C   UNL     1      -7.338  10.558  66.144  1.00  0.00    -0.136 C  
BRANCH  32  33
HETATM   33  C   UNL     1      -7.563   9.057  66.058  1.00  0.00    -0.094 A  
HETATM   34  C   UNL     1      -8.129   6.824  65.999  1.00  0.00    -0.119 A  
HETATM   35  H   UNL     1      -6.208   6.206  65.361  1.00  0.00     0.000 HD 
HETATM   36  C   UNL     1      -8.871   5.636  66.092  1.00  0.00    -0.142 A  
HETATM   37  C   UNL     1      -6.479   8.283  65.651  1.00  0.00    -0.052 A  
HETATM   38  C   UNL     1     -10.185   5.729  66.534  1.00  0.00    -0.241 A  
HETATM   39  N   UNL     1      -6.829   6.971  65.624  1.00  0.00    -0.051 NA 
HETATM   40  C   UNL     1     -10.724   6.969  66.873  1.00  0.00    -0.376 A  
HETATM   41  C   UNL     1      -9.968   8.156  66.761  1.00  0.00    -0.349 A  
HETATM   42  C   UNL     1      -8.632   8.104  66.307  1.00  0.00    -0.157 A  
ENDBRANCH  32  33
ENDBRANCH  27  32
ENDBRANCH  24  27
ENDBRANCH  11  23
ENDBRANCH   7  11
TORSDOF 8
ENDMDL
MODEL      128
REMARK 921   NORMALIZED FREE ENERGY PREDICTED BY IDOCK:   -6.66 KCAL/MOL
REMARK 922        TOTAL FREE ENERGY PREDICTED BY IDOCK:  -11.91 KCAL/MOL
REMARK 923 INTER-LIGAND FREE ENERGY PREDICTED BY IDOCK:   -9.86 KCAL/MOL
REMARK 924 INTRA-LIGAND FREE ENERGY PREDICTED BY IDOCK:   -2.05 KCAL/MOL
REMARK 927      BINDING AFFINITY PREDICTED BY RF-SCORE:    0.00 PKD
ROOT
HETATM    1  C   UNL     1     -10.037  13.331  64.371  1.00  0.00    -0.190 C  
HETATM    2  C   UNL     1     -11.297  12.457  64.527  1.00  0.00    -0.328 C  
HETATM    3  C   UNL     1     -12.004  12.583  66.039  1.00  0.00    -0.392 C  
HETATM    4  N   UNL     1     -10.884  11.041  64.306  1.00  0.00    -0.376 NA 
HETATM    5  C   UNL     1     -12.204  12.845  63.325  1.00  0.00    -0.481 C  
HETATM    6  H2  UNL     1     -10.119  10.749  64.914  1.00  0.00     0.000 HD 
HETATM    7  N   UNL     1     -11.547  11.718  67.040  1.00  0.00    -0.293 N  
HETATM    8  H1  UNL     1     -11.719  10.463  64.409  1.00  0.00     0.000 HD 
HETATM    9  O   UNL     1     -12.864  13.431  66.276  1.00  0.00    -0.206 OA 
HETATM   10  H   UNL     1     -10.944  10.981  66.676  1.00  0.00     0.000 HD 
ENDROOT
BRANCH   7  11
HETATM   11  C   UNL     1     -11.748  11.623  68.594  1.00  0.00    -0.325 C  
BRANCH  11  12
HETATM   12  C   UNL     1     -11.840  12.879  69.579  1.00  0.00    -0.383 C  
BRANCH  12  13
HETATM   13  C   UNL     1     -11.307  14.317  69.108  1.00  0.00    -0.312 A  
HETATM   14  C   UNL     1     -11.910  15.553  69.254  1.00  0.00    -0.353 A  
HETATM   15  C   UNL     1      -7.861  14.465  67.261  1.00  0.00    -0.188 A  
HETATM   16  C   UNL     1      -7.994  15.757  66.760  1.00  0.00    -0.273 A  
HETATM   17  C   UNL     1      -9.096  16.531  67.120  1.00  0.00    -0.227 A  
HETATM   18  N   UNL     1     -11.187  16.517  68.550  1.00  0.00    -0.345 NA 
HETATM   19  C   UNL     1      -8.868  13.894  68.067  1.00  0.00    -0.184 A  
HETATM   20  C   UNL     1     -10.039  14.625  68.401  1.00  0.00    -0.237 A  
HETATM   21  C   UNL     1     -10.079  15.951  67.968  1.00  0.00    -0.230 A  
HETATM   22  H   UNL     1     -11.446  17.500  68.478  1.00  0.00     0.000 HD 
ENDBRANCH  12  13
ENDBRANCH  11  12
BRANCH  11  23
HETATM   23  C   UNL     1     -10.826  10.481  69.099  1.00  0.00    -0.237 C  
HETATM   24  N   UNL     1     -11.420   9.266  69.384  1.00  0.00    -0.417 N  
HETATM   25  H   UNL     1     -12.395   9.107  69.130  1.00  0.00     0.000 HD 
HETATM   26  O   UNL     1      -9.630  10.696  69.314  1.00  0.00    -0.202 OA 
BRANCH  24  27
HETATM   27  C   UNL     1     -10.668   8.221  70.038  1.00  0.00    -0.239 C  
BRANCH  27  28
HETATM   28  N   UNL     1     -10.624   8.500  71.451  1.00  0.00    -0.227 N  
HETATM   29  O   UNL     1     -12.916   8.516  71.748  1.00  0.00    -0.326 OA 
HETATM   30  C   UNL     1     -11.780   8.621  72.187  1.00  0.00    -0.371 C  
HETATM   31  H   UNL     1      -9.721   8.609  71.912  1.00  0.00     0.000 HD 
ENDBRANCH  27  28
BRANCH  27  32
HETATM   32  C   UNL     1     -10.988   6.755  69.674  1.00  0.00    -0.336 C  
BRANCH  32  33
HETATM   33  C   UNL     1     -10.508   5.479  70.346  1.00  0.00    -0.356 A  
HETATM   34  C   UNL     1      -9.875   3.631  71.568  1.00  0.00    -0.157 A  
HETATM   35  H   UNL     1      -8.971   2.669  69.914  1.00  0.00     0.000 HD 
HETATM   36  C   UNL     1      -9.698   2.738  72.637  1.00  0.00    -0.190 A  
HETATM   37  C   UNL     1      -9.842   4.558  69.541  1.00  0.00    -0.207 A  
HETATM   38  C   UNL     1     -10.167   3.127  73.886  1.00  0.00    -0.207 A  
HETATM   39  N   UNL     1      -9.474   3.478  70.277  1.00  0.00    -0.177 NA 
HETATM   40  C   UNL     1     -10.782   4.368  74.048  1.00  0.00    -0.334 A  
HETATM   41  C   UNL     1     -10.963   5.248  72.960  1.00  0.00    -0.354 A  
HETATM   42  C   UNL     1     -10.509   4.885  71.673  1.00  0.00    -0.196 A  
ENDBRANCH  32  33
ENDBRANCH  27  32
ENDBRANCH  24  27
ENDBRANCH  11  23
ENDBRANCH   7  11
TORSDOF 8
ENDMDL
MODEL      129
REMARK 921   NORMALIZED FREE ENERGY PREDICTED BY IDOCK:   -6.64 KCAL/MOL
REMARK 922        TOTAL FREE ENERGY PREDICTED BY IDOCK:  -11.89 KCAL/MOL
REMARK 923 INTER-LIGAND FREE ENERGY PREDICTED BY IDOCK:  -10.08 KCAL/MOL
REMARK 924 INTRA-LIGAND FREE ENERGY PREDICTED BY IDOCK:   -1.81 KCAL/MOL
REMARK 927      BINDING AFFINITY PREDICTED BY RF-SCORE:    0.00 PKD
ROOT
HETATM    1  C   UNL     1     -12.302  10.141  71.334  1.00  0.00    -0.515 C  
HETATM    2  C   UNL     1     -11.673   8.748  71.132  1.00  0.00    -0.291 C  
HETATM    3  C   UNL     1     -10.546   8.708  69.895  1.00  0.00    -0.224 C  
HETATM    4  N   UNL     1     -12.782   7.806  70.803  1.00  0.00    -0.519 NA 
HETATM    5  C   UNL     1     -11.147   8.338  72.535  1.00  0.00    -0.439 C  
HETATM    6  H2  UNL     1     -13.342   8.111  70.007  1.00  0.00     0.000 HD 
HETATM    7  N   UNL     1     -11.015   8.444  68.602  1.00  0.00    -0.422 N  
HETATM    8  H1  UNL     1     -12.365   6.884  70.669  1.00  0.00     0.000 HD 
HETATM    9  O   UNL     1      -9.356   8.942  70.103  1.00  0.00    -0.162 OA 
HETATM   10  H   UNL     1     -11.985   8.131  68.593  1.00  0.00     0.000 HD 
ENDROOT
BRANCH   7  11
HETATM   11  C   UNL     1     -10.390   8.520  67.164  1.00  0.00    -0.307 C  
BRANCH  11  12
HETATM   12  C   UNL     1      -9.467   7.389  66.512  1.00  0.00    -0.229 C  
BRANCH  12  13
HETATM   13  C   UNL     1      -8.433   6.564  67.421  1.00  0.00    -0.119 A  
HETATM   14  C   UNL     1      -7.051   6.594  67.402  1.00  0.00    -0.080 A  
HETATM   15  C   UNL     1      -9.910   4.080  70.058  1.00  0.00    -0.198 A  
HETATM   16  C   UNL     1      -8.732   3.384  70.313  1.00  0.00    -0.123 A  
HETATM   17  C   UNL     1      -7.538   3.804  69.728  1.00  0.00    -0.052 A  
HETATM   18  N   UNL     1      -6.547   5.595  68.235  1.00  0.00    -0.047 NA 
HETATM   19  C   UNL     1      -9.932   5.161  69.151  1.00  0.00    -0.273 A  
HETATM   20  C   UNL     1      -8.750   5.577  68.482  1.00  0.00    -0.105 A  
HETATM   21  C   UNL     1      -7.574   4.921  68.850  1.00  0.00    -0.069 A  
HETATM   22  H   UNL     1      -5.556   5.394  68.369  1.00  0.00     0.000 HD 
ENDBRANCH  12  13
ENDBRANCH  11  12
BRANCH  11  23
HETATM   23  C   UNL     1      -9.856   9.965  66.979  1.00  0.00    -0.191 C  
HETATM   24  N   UNL     1     -10.760  10.927  66.572  1.00  0.00    -0.238 N  
HETATM   25  H   UNL     1     -11.755  10.706  66.540  1.00  0.00     0.000 HD 
HETATM   26  O   UNL     1      -8.653  10.206  67.111  1.00  0.00    -0.125 OA 
BRANCH  24  27
HETATM   27  C   UNL     1     -10.304  12.245  66.193  1.00  0.00    -0.242 C  
BRANCH  27  28
HETATM   28  N   UNL     1      -9.654  12.156  64.910  1.00  0.00    -0.454 N  
HETATM   29  O   UNL     1     -11.570  11.647  63.722  1.00  0.00    -0.404 OA 
HETATM   30  C   UNL     1     -10.368  11.861  63.771  1.00  0.00    -0.415 C  
HETATM   31  H   UNL     1      -8.649  12.314  64.846  1.00  0.00     0.000 HD 
ENDBRANCH  27  28
BRANCH  27  32
HETATM   32  C   UNL     1     -11.284  13.428  66.345  1.00  0.00    -0.323 C  
BRANCH  32  33
HETATM   33  C   UNL     1     -11.027  14.912  66.138  1.00  0.00    -0.334 A  
HETATM   34  C   UNL     1     -10.607  17.176  66.061  1.00  0.00    -0.204 A  
HETATM   35  H   UNL     1     -10.832  17.292  63.959  1.00  0.00     0.000 HD 
HETATM   36  C   UNL     1     -10.304  18.488  66.457  1.00  0.00    -0.447 A  
HETATM   37  C   UNL     1     -11.088  15.381  64.828  1.00  0.00    -0.403 A  
HETATM   38  C   UNL     1     -10.137  18.729  67.815  1.00  0.00    -0.417 A  
HETATM   39  N   UNL     1     -10.841  16.716  64.801  1.00  0.00    -0.760 NA 
HETATM   40  C   UNL     1     -10.276  17.689  68.733  1.00  0.00    -0.373 A  
HETATM   41  C   UNL     1     -10.569  16.373  68.316  1.00  0.00    -0.318 A  
HETATM   42  C   UNL     1     -10.736  16.086  66.944  1.00  0.00    -0.262 A  
ENDBRANCH  32  33
ENDBRANCH  27  32
ENDBRANCH  24  27
ENDBRANCH  11  23
ENDBRANCH   7  11
TORSDOF 8
ENDMDL
MODEL      130
REMARK 921   NORMALIZED FREE ENERGY PREDICTED BY IDOCK:   -6.64 KCAL/MOL
REMARK 922        TOTAL FREE ENERGY PREDICTED BY IDOCK:  -11.88 KCAL/MOL
REMARK 923 INTER-LIGAND FREE ENERGY PREDICTED BY IDOCK:  -10.96 KCAL/MOL
REMARK 924 INTRA-LIGAND FREE ENERGY PREDICTED BY IDOCK:   -0.93 KCAL/MOL
REMARK 927      BINDING AFFINITY PREDICTED BY RF-SCORE:    0.00 PKD
ROOT
HETATM    1  C   UNL     1     -14.271  15.153  71.280  1.00  0.00    -0.527 C  
HETATM    2  C   UNL     1     -12.815  14.854  71.688  1.00  0.00    -0.328 C  
HETATM    3  C   UNL     1     -11.900  14.212  70.441  1.00  0.00    -0.297 C  
HETATM    4  N   UNL     1     -12.862  13.868  72.806  1.00  0.00    -0.305 NA 
HETATM    5  C   UNL     1     -12.288  16.184  72.294  1.00  0.00    -0.538 C  
HETATM    6  H2  UNL     1     -13.393  13.028  72.576  1.00  0.00     0.000 HD 
HETATM    7  N   UNL     1     -11.911  12.821  70.281  1.00  0.00    -0.499 N  
HETATM    8  H1  UNL     1     -11.898  13.670  73.076  1.00  0.00     0.000 HD 
HETATM    9  O   UNL     1     -11.274  14.935  69.667  1.00  0.00    -0.252 OA 
HETATM   10  H   UNL     1     -12.348  12.339  71.067  1.00  0.00     0.000 HD 
ENDROOT
BRANCH   7  11
HETATM   11  C   UNL     1     -11.406  11.833  69.172  1.00  0.00    -0.279 C  
BRANCH  11  12
HETATM   12  C   UNL     1     -11.197  10.261  69.379  1.00  0.00    -0.292 C  
BRANCH  12  13
HETATM   13  C   UNL     1     -10.666   9.349  68.172  1.00  0.00    -0.230 A  
HETATM   14  C   UNL     1     -10.327   9.727  66.886  1.00  0.00    -0.234 A  
HETATM   15  C   UNL     1     -10.267   5.513  68.831  1.00  0.00    -0.284 A  
HETATM   16  C   UNL     1     -10.154   5.123  67.499  1.00  0.00    -0.213 A  
HETATM   17  C   UNL     1     -10.102   6.091  66.496  1.00  0.00    -0.191 A  
HETATM   18  N   UNL     1     -10.080   8.595  66.110  1.00  0.00    -0.441 NA 
HETATM   19  C   UNL     1     -10.410   6.872  69.179  1.00  0.00    -0.207 A  
HETATM   20  C   UNL     1     -10.431   7.884  68.182  1.00  0.00    -0.227 A  
HETATM   21  C   UNL     1     -10.206   7.457  66.872  1.00  0.00    -0.276 A  
HETATM   22  H   UNL     1      -9.840   8.609  65.120  1.00  0.00     0.000 HD 
ENDBRANCH  12  13
ENDBRANCH  11  12
BRANCH  11  23
HETATM   23  C   UNL     1     -10.238  12.541  68.434  1.00  0.00    -0.228 C  
HETATM   24  N   UNL     1     -10.554  13.285  67.314  1.00  0.00    -0.247 N  
HETATM   25  H   UNL     1     -11.531  13.464  67.084  1.00  0.00     0.000 HD 
HETATM   26  O   UNL     1      -9.073  12.362  68.800  1.00  0.00    -0.022 OA 
BRANCH  24  27
HETATM   27  C   UNL     1      -9.509  13.810  66.467  1.00  0.00    -0.269 C  
BRANCH  27  28
HETATM   28  N   UNL     1     -10.096  14.244  65.225  1.00  0.00    -0.493 N  
HETATM   29  O   UNL     1     -10.940  12.174  64.639  1.00  0.00    -0.290 OA 
HETATM   30  C   UNL     1     -10.774  13.364  64.413  1.00  0.00    -0.408 C  
HETATM   31  H   UNL     1     -10.008  15.220  64.943  1.00  0.00     0.000 HD 
ENDBRANCH  27  28
BRANCH  27  32
HETATM   32  C   UNL     1      -8.493  14.794  67.086  1.00  0.00    -0.247 C  
BRANCH  32  33
HETATM   33  C   UNL     1      -8.343  16.287  66.843  1.00  0.00    -0.267 A  
HETATM   34  C   UNL     1      -8.341  18.573  66.553  1.00  0.00    -0.281 A  
HETATM   35  H   UNL     1      -6.350  18.624  65.835  1.00  0.00     0.000 HD 
HETATM   36  C   UNL     1      -8.756  19.914  66.540  1.00  0.00    -0.406 A  
HETATM   37  C   UNL     1      -7.114  16.722  66.353  1.00  0.00    -0.151 A  
HETATM   38  C   UNL     1     -10.061  20.189  66.931  1.00  0.00    -0.592 A  
HETATM   39  N   UNL     1      -7.131  18.070  66.186  1.00  0.00    -0.272 NA 
HETATM   40  C   UNL     1     -10.910  19.151  67.314  1.00  0.00    -0.529 A  
HETATM   41  C   UNL     1     -10.472  17.810  67.333  1.00  0.00    -0.367 A  
HETATM   42  C   UNL     1      -9.150  17.491  66.952  1.00  0.00    -0.265 A  
ENDBRANCH  32  33
ENDBRANCH  27  32
ENDBRANCH  24  27
ENDBRANCH  11  23
ENDBRANCH   7  11
TORSDOF 8
ENDMDL
MODEL      131
REMARK 921   NORMALIZED FREE ENERGY PREDICTED BY IDOCK:   -6.63 KCAL/MOL
REMARK 922        TOTAL FREE ENERGY PREDICTED BY IDOCK:  -11.88 KCAL/MOL
REMARK 923 INTER-LIGAND FREE ENERGY PREDICTED BY IDOCK:  -10.79 KCAL/MOL
REMARK 924 INTRA-LIGAND FREE ENERGY PREDICTED BY IDOCK:   -1.09 KCAL/MOL
REMARK 927      BINDING AFFINITY PREDICTED BY RF-SCORE:    0.00 PKD
ROOT
HETATM    1  C   UNL     1     -11.944  15.311  72.366  1.00  0.00    -0.514 C  
HETATM    2  C   UNL     1     -13.116  14.633  71.631  1.00  0.00    -0.346 C  
HETATM    3  C   UNL     1     -12.843  13.014  71.305  1.00  0.00    -0.281 C  
HETATM    4  N   UNL     1     -13.308  15.358  70.341  1.00  0.00    -0.752 NA 
HETATM    5  C   UNL     1     -14.367  14.943  72.500  1.00  0.00    -0.239 C  
HETATM    6  H2  UNL     1     -12.458  15.404  69.779  1.00  0.00     0.000 HD 
HETATM    7  N   UNL     1     -12.193  12.698  70.106  1.00  0.00    -0.280 N  
HETATM    8  H1  UNL     1     -14.085  14.909  69.855  1.00  0.00     0.000 HD 
HETATM    9  O   UNL     1     -13.161  12.136  72.105  1.00  0.00    -0.499 OA 
HETATM   10  H   UNL     1     -12.115  13.498  69.478  1.00  0.00     0.000 HD 
ENDROOT
BRANCH   7  11
HETATM   11  C   UNL     1     -11.557  11.395  69.505  1.00  0.00    -0.331 C  
BRANCH  11  12
HETATM   12  C   UNL     1     -10.501  10.464  70.264  1.00  0.00    -0.110 C  
BRANCH  12  13
HETATM   13  C   UNL     1     -11.007   9.269  71.207  1.00  0.00    -0.421 A  
HETATM   14  C   UNL     1     -12.301   8.855  71.460  1.00  0.00    -0.324 A  
HETATM   15  C   UNL     1      -8.299   7.195  73.124  1.00  0.00    -0.134 A  
HETATM   16  C   UNL     1      -9.164   6.577  74.023  1.00  0.00    -0.185 A  
HETATM   17  C   UNL     1     -10.540   6.766  73.901  1.00  0.00    -0.269 A  
HETATM   18  N   UNL     1     -12.301   7.895  72.472  1.00  0.00    -0.565 NA 
HETATM   19  C   UNL     1      -8.788   8.076  72.136  1.00  0.00    -0.215 A  
HETATM   20  C   UNL     1     -10.177   8.348  72.022  1.00  0.00    -0.364 A  
HETATM   21  C   UNL     1     -11.015   7.624  72.872  1.00  0.00    -0.400 A  
HETATM   22  H   UNL     1     -13.136   7.457  72.858  1.00  0.00     0.000 HD 
ENDBRANCH  12  13
ENDBRANCH  11  12
BRANCH  11  23
HETATM   23  C   UNL     1     -11.186  11.711  68.031  1.00  0.00    -0.263 C  
HETATM   24  N   UNL     1      -9.871  11.524  67.655  1.00  0.00    -0.179 N  
HETATM   25  H   UNL     1      -9.222  11.063  68.292  1.00  0.00     0.000 HD 
HETATM   26  O   UNL     1     -12.028  12.192  67.267  1.00  0.00    -0.573 OA 
BRANCH  24  27
HETATM   27  C   UNL     1      -9.408  11.977  66.363  1.00  0.00    -0.228 C  
BRANCH  27  28
HETATM   28  N   UNL     1     -10.215  11.361  65.342  1.00  0.00    -0.258 N  
HETATM   29  O   UNL     1      -9.183   9.296  65.456  1.00  0.00    -0.206 OA 
HETATM   30  C   UNL     1     -10.022  10.047  64.980  1.00  0.00    -0.250 C  
HETATM   31  H   UNL     1     -10.942  11.906  64.880  1.00  0.00     0.000 HD 
ENDBRANCH  27  28
BRANCH  27  32
HETATM   32  C   UNL     1      -9.153  13.487  66.168  1.00  0.00     0.102 C  
BRANCH  32  33
HETATM   33  C   UNL     1      -9.507  14.641  67.092  1.00  0.00    -0.234 A  
HETATM   34  C   UNL     1     -10.057  16.528  68.295  1.00  0.00    -0.259 A  
HETATM   35  H   UNL     1     -10.007  15.527  70.160  1.00  0.00     0.000 HD 
HETATM   36  C   UNL     1     -10.399  17.851  68.614  1.00  0.00    -0.342 A  
HETATM   37  C   UNL     1      -9.577  14.356  68.453  1.00  0.00    -0.219 A  
HETATM   38  C   UNL     1     -10.471  18.767  67.571  1.00  0.00    -0.495 A  
HETATM   39  N   UNL     1      -9.899  15.478  69.147  1.00  0.00    -0.229 NA 
HETATM   40  C   UNL     1     -10.201  18.363  66.264  1.00  0.00    -0.427 A  
HETATM   41  C   UNL     1      -9.871  17.024  65.961  1.00  0.00    -0.263 A  
HETATM   42  C   UNL     1      -9.798  16.062  66.991  1.00  0.00    -0.240 A  
ENDBRANCH  32  33
ENDBRANCH  27  32
ENDBRANCH  24  27
ENDBRANCH  11  23
ENDBRANCH   7  11
TORSDOF 8
ENDMDL
MODEL      132
REMARK 921   NORMALIZED FREE ENERGY PREDICTED BY IDOCK:   -6.62 KCAL/MOL
REMARK 922        TOTAL FREE ENERGY PREDICTED BY IDOCK:  -11.87 KCAL/MOL
REMARK 923 INTER-LIGAND FREE ENERGY PREDICTED BY IDOCK:   -9.68 KCAL/MOL
REMARK 924 INTRA-LIGAND FREE ENERGY PREDICTED BY IDOCK:   -2.19 KCAL/MOL
REMARK 927      BINDING AFFINITY PREDICTED BY RF-SCORE:    0.00 PKD
ROOT
HETATM    1  C   UNL     1     -11.136  11.646  63.529  1.00  0.00    -0.476 C  
HETATM    2  C   UNL     1     -11.795  12.848  64.231  1.00  0.00    -0.395 C  
HETATM    3  C   UNL     1     -10.844  13.507  65.441  1.00  0.00    -0.294 C  
HETATM    4  N   UNL     1     -13.072  12.364  64.833  1.00  0.00    -0.657 NA 
HETATM    5  C   UNL     1     -12.189  13.817  63.082  1.00  0.00     0.253 C  
HETATM    6  H2  UNL     1     -12.943  11.562  65.451  1.00  0.00     0.000 HD 
HETATM    7  N   UNL     1     -10.968  12.967  66.726  1.00  0.00    -0.267 N  
HETATM    8  H1  UNL     1     -13.508  13.161  65.298  1.00  0.00     0.000 HD 
HETATM    9  O   UNL     1     -10.036  14.405  65.204  1.00  0.00    -0.382 OA 
HETATM   10  H   UNL     1     -11.765  12.337  66.812  1.00  0.00     0.000 HD 
ENDROOT
BRANCH   7  11
HETATM   11  C   UNL     1     -10.162  13.108  68.066  1.00  0.00    -0.233 C  
BRANCH  11  12
HETATM   12  C   UNL     1      -9.943  14.480  68.856  1.00  0.00    -0.206 C  
BRANCH  12  13
HETATM   13  C   UNL     1     -11.041  14.993  69.908  1.00  0.00    -0.298 A  
HETATM   14  C   UNL     1     -11.314  16.286  70.312  1.00  0.00    -0.287 A  
HETATM   15  C   UNL     1     -13.283  12.302  71.653  1.00  0.00    -0.356 A  
HETATM   16  C   UNL     1     -13.773  13.122  72.665  1.00  0.00    -0.394 A  
HETATM   17  C   UNL     1     -13.456  14.480  72.672  1.00  0.00    -0.590 A  
HETATM   18  N   UNL     1     -12.225  16.269  71.368  1.00  0.00    -0.573 NA 
HETATM   19  C   UNL     1     -12.403  12.809  70.673  1.00  0.00    -0.381 A  
HETATM   20  C   UNL     1     -12.001  14.171  70.684  1.00  0.00    -0.385 A  
HETATM   21  C   UNL     1     -12.602  14.978  71.652  1.00  0.00    -0.339 A  
HETATM   22  H   UNL     1     -12.562  17.096  71.860  1.00  0.00     0.000 HD 
ENDBRANCH  12  13
ENDBRANCH  11  12
BRANCH  11  23
HETATM   23  C   UNL     1      -8.879  12.247  67.914  1.00  0.00    -0.178 C  
HETATM   24  N   UNL     1      -9.047  10.891  67.711  1.00  0.00    -0.147 N  
HETATM   25  H   UNL     1      -9.978  10.517  67.530  1.00  0.00     0.000 HD 
HETATM   26  O   UNL     1      -7.765  12.759  68.058  1.00  0.00    -0.113 OA 
BRANCH  24  27
HETATM   27  C   UNL     1      -7.910  10.000  67.754  1.00  0.00    -0.094 C  
BRANCH  27  28
HETATM   28  N   UNL     1      -6.986  10.381  66.717  1.00  0.00    -0.098 N  
HETATM   29  O   UNL     1      -8.295   9.642  64.963  1.00  0.00    -0.126 OA 
HETATM   30  C   UNL     1      -7.276  10.163  65.390  1.00  0.00    -0.144 C  
HETATM   31  H   UNL     1      -6.101  10.821  66.972  1.00  0.00     0.000 HD 
ENDBRANCH  27  28
BRANCH  27  32
HETATM   32  C   UNL     1      -7.266   9.704  69.125  1.00  0.00    -0.068 C  
BRANCH  32  33
HETATM   33  C   UNL     1      -7.917   9.166  70.389  1.00  0.00    -0.155 A  
HETATM   34  C   UNL     1      -9.114   8.378  72.193  1.00  0.00    -0.239 A  
HETATM   35  H   UNL     1      -7.389   8.043  73.373  1.00  0.00     0.000 HD 
HETATM   36  C   UNL     1     -10.184   7.976  73.008  1.00  0.00    -0.357 A  
HETATM   37  C   UNL     1      -7.064   8.817  71.433  1.00  0.00    -0.090 A  
HETATM   38  C   UNL     1     -11.470   8.121  72.501  1.00  0.00    -0.470 A  
HETATM   39  N   UNL     1      -7.785   8.358  72.488  1.00  0.00    -0.253 NA 
HETATM   40  C   UNL     1     -11.665   8.655  71.228  1.00  0.00    -0.341 A  
HETATM   41  C   UNL     1     -10.576   9.042  70.417  1.00  0.00    -0.258 A  
HETATM   42  C   UNL     1      -9.254   8.902  70.892  1.00  0.00    -0.286 A  
ENDBRANCH  32  33
ENDBRANCH  27  32
ENDBRANCH  24  27
ENDBRANCH  11  23
ENDBRANCH   7  11
TORSDOF 8
ENDMDL
MODEL      133
REMARK 921   NORMALIZED FREE ENERGY PREDICTED BY IDOCK:   -6.62 KCAL/MOL
REMARK 922        TOTAL FREE ENERGY PREDICTED BY IDOCK:  -11.86 KCAL/MOL
REMARK 923 INTER-LIGAND FREE ENERGY PREDICTED BY IDOCK:   -9.91 KCAL/MOL
REMARK 924 INTRA-LIGAND FREE ENERGY PREDICTED BY IDOCK:   -1.96 KCAL/MOL
REMARK 927      BINDING AFFINITY PREDICTED BY RF-SCORE:    0.00 PKD
ROOT
HETATM    1  C   UNL     1     -12.818   7.614  71.260  1.00  0.00    -0.297 C  
HETATM    2  C   UNL     1     -12.249   9.022  71.523  1.00  0.00    -0.335 C  
HETATM    3  C   UNL     1     -11.792   9.819  70.124  1.00  0.00    -0.079 C  
HETATM    4  N   UNL     1     -11.052   8.860  72.397  1.00  0.00    -0.190 NA 
HETATM    5  C   UNL     1     -13.330   9.736  72.382  1.00  0.00    -0.374 C  
HETATM    6  H2  UNL     1     -10.361   8.216  72.012  1.00  0.00     0.000 HD 
HETATM    7  N   UNL     1     -10.487   9.616  69.661  1.00  0.00    -0.214 N  
HETATM    8  H1  UNL     1     -10.676   9.792  72.571  1.00  0.00     0.000 HD 
HETATM    9  O   UNL     1     -12.584  10.525  69.500  1.00  0.00    -0.202 OA 
HETATM   10  H   UNL     1      -9.901   9.131  70.341  1.00  0.00     0.000 HD 
ENDROOT
BRANCH   7  11
HETATM   11  C   UNL     1      -9.717   9.963  68.338  1.00  0.00    -0.149 C  
BRANCH  11  12
HETATM   12  C   UNL     1      -8.336   9.295  67.887  1.00  0.00    -0.116 C  
BRANCH  12  13
HETATM   13  C   UNL     1      -8.254   8.441  66.531  1.00  0.00    -0.105 A  
HETATM   14  C   UNL     1      -7.813   7.144  66.351  1.00  0.00    -0.109 A  
HETATM   15  C   UNL     1      -9.405  10.176  63.218  1.00  0.00    -0.332 A  
HETATM   16  C   UNL     1      -8.842   9.254  62.341  1.00  0.00    -0.242 A  
HETATM   17  C   UNL     1      -8.237   8.101  62.840  1.00  0.00    -0.120 A  
HETATM   18  N   UNL     1      -7.747   6.852  64.989  1.00  0.00    -0.104 NA 
HETATM   19  C   UNL     1      -9.303  10.002  64.615  1.00  0.00    -0.338 A  
HETATM   20  C   UNL     1      -8.635   8.876  65.165  1.00  0.00    -0.208 A  
HETATM   21  C   UNL     1      -8.182   7.925  64.249  1.00  0.00    -0.038 A  
HETATM   22  H   UNL     1      -7.422   5.968  64.598  1.00  0.00     0.000 HD 
ENDBRANCH  12  13
ENDBRANCH  11  12
BRANCH  11  23
HETATM   23  C   UNL     1      -9.761  11.506  68.181  1.00  0.00    -0.192 C  
HETATM   24  N   UNL     1     -10.785  12.037  67.421  1.00  0.00    -0.222 N  
HETATM   25  H   UNL     1     -11.546  11.435  67.106  1.00  0.00     0.000 HD 
HETATM   26  O   UNL     1      -8.860  12.206  68.653  1.00  0.00    -0.121 OA 
BRANCH  24  27
HETATM   27  C   UNL     1     -10.784  13.438  67.069  1.00  0.00    -0.268 C  
BRANCH  27  28
HETATM   28  N   UNL     1     -10.687  13.553  65.636  1.00  0.00    -0.277 N  
HETATM   29  O   UNL     1     -12.770  12.654  65.196  1.00  0.00    -0.646 OA 
HETATM   30  C   UNL     1     -11.715  13.143  64.819  1.00  0.00    -0.347 C  
HETATM   31  H   UNL     1      -9.842  13.946  65.221  1.00  0.00     0.000 HD 
ENDBRANCH  27  28
BRANCH  27  32
HETATM   32  C   UNL     1     -11.837  14.356  67.726  1.00  0.00    -0.402 C  
BRANCH  32  33
HETATM   33  C   UNL     1     -11.800  15.024  69.091  1.00  0.00    -0.338 A  
HETATM   34  C   UNL     1     -11.878  15.853  71.239  1.00  0.00    -0.449 A  
HETATM   35  H   UNL     1     -10.721  17.564  70.774  1.00  0.00     0.000 HD 
HETATM   36  C   UNL     1     -12.161  15.979  72.609  1.00  0.00    -0.640 A  
HETATM   37  C   UNL     1     -11.098  16.223  69.184  1.00  0.00    -0.322 A  
HETATM   38  C   UNL     1     -12.954  15.000  73.196  1.00  0.00    -0.631 A  
HETATM   39  N   UNL     1     -11.156  16.698  70.454  1.00  0.00    -0.163 NA 
HETATM   40  C   UNL     1     -13.444  13.943  72.430  1.00  0.00    -0.661 A  
HETATM   41  C   UNL     1     -13.138  13.826  71.056  1.00  0.00    -0.276 A  
HETATM   42  C   UNL     1     -12.328  14.795  70.426  1.00  0.00    -0.402 A  
ENDBRANCH  32  33
ENDBRANCH  27  32
ENDBRANCH  24  27
ENDBRANCH  11  23
ENDBRANCH   7  11
TORSDOF 8
ENDMDL
MODEL      134
REMARK 921   NORMALIZED FREE ENERGY PREDICTED BY IDOCK:   -6.62 KCAL/MOL
REMARK 922        TOTAL FREE ENERGY PREDICTED BY IDOCK:  -11.85 KCAL/MOL
REMARK 923 INTER-LIGAND FREE ENERGY PREDICTED BY IDOCK:   -9.77 KCAL/MOL
REMARK 924 INTRA-LIGAND FREE ENERGY PREDICTED BY IDOCK:   -2.09 KCAL/MOL
REMARK 927      BINDING AFFINITY PREDICTED BY RF-SCORE:    0.00 PKD
ROOT
HETATM    1  C   UNL     1     -10.651   8.273  69.385  1.00  0.00    -0.203 C  
HETATM    2  C   UNL     1     -10.675   9.656  70.065  1.00  0.00    -0.259 C  
HETATM    3  C   UNL     1     -11.753  10.721  69.355  1.00  0.00    -0.306 C  
HETATM    4  N   UNL     1      -9.299  10.224  69.961  1.00  0.00    -0.389 NA 
HETATM    5  C   UNL     1     -10.916   9.357  71.571  1.00  0.00    -0.429 C  
HETATM    6  H2  UNL     1      -8.953  10.256  69.002  1.00  0.00     0.000 HD 
HETATM    7  N   UNL     1     -11.287  11.496  68.287  1.00  0.00    -0.259 N  
HETATM    8  H1  UNL     1      -9.315  11.139  70.412  1.00  0.00     0.000 HD 
HETATM    9  O   UNL     1     -12.924  10.793  69.729  1.00  0.00    -0.143 OA 
HETATM   10  H   UNL     1     -10.275  11.444  68.176  1.00  0.00     0.000 HD 
ENDROOT
BRANCH   7  11
HETATM   11  C   UNL     1     -11.964  12.428  67.221  1.00  0.00    -0.176 C  
BRANCH  11  12
HETATM   12  C   UNL     1     -11.770  12.292  65.639  1.00  0.00    -0.440 C  
BRANCH  12  13
HETATM   13  C   UNL     1     -10.493  11.527  65.043  1.00  0.00    -0.344 A  
HETATM   14  C   UNL     1     -10.388  10.805  63.869  1.00  0.00    -0.259 A  
HETATM   15  C   UNL     1      -7.180  11.623  67.122  1.00  0.00    -0.145 A  
HETATM   16  C   UNL     1      -6.527  10.596  66.447  1.00  0.00    -0.117 A  
HETATM   17  C   UNL     1      -7.120  10.018  65.325  1.00  0.00    -0.137 A  
HETATM   18  N   UNL     1      -9.152  10.162  63.819  1.00  0.00    -0.240 NA 
HETATM   19  C   UNL     1      -8.472  12.038  66.736  1.00  0.00    -0.155 A  
HETATM   20  C   UNL     1      -9.139  11.428  65.640  1.00  0.00    -0.173 A  
HETATM   21  C   UNL     1      -8.404  10.479  64.928  1.00  0.00    -0.135 A  
HETATM   22  H   UNL     1      -8.846   9.545  63.067  1.00  0.00     0.000 HD 
ENDBRANCH  12  13
ENDBRANCH  11  12
BRANCH  11  23
HETATM   23  C   UNL     1     -11.854  13.881  67.756  1.00  0.00    -0.380 C  
HETATM   24  N   UNL     1     -12.208  14.101  69.073  1.00  0.00    -0.521 N  
HETATM   25  H   UNL     1     -12.393  13.307  69.686  1.00  0.00     0.000 HD 
HETATM   26  O   UNL     1     -11.543  14.802  66.994  1.00  0.00    -0.362 OA 
BRANCH  24  27
HETATM   27  C   UNL     1     -12.318  15.447  69.586  1.00  0.00    -0.217 C  
BRANCH  27  28
HETATM   28  N   UNL     1     -13.395  15.490  70.541  1.00  0.00    -0.801 N  
HETATM   29  O   UNL     1     -12.746  13.598  71.698  1.00  0.00    -0.341 OA 
HETATM   30  C   UNL     1     -13.506  14.539  71.530  1.00  0.00    -0.374 C  
HETATM   31  H   UNL     1     -14.087  16.237  70.483  1.00  0.00     0.000 HD 
ENDBRANCH  27  28
BRANCH  27  32
HETATM   32  C   UNL     1     -11.026  16.166  70.029  1.00  0.00    -0.364 C  
BRANCH  32  33
HETATM   33  C   UNL     1      -9.940  16.792  69.170  1.00  0.00    -0.252 A  
HETATM   34  C   UNL     1      -8.182  17.529  67.874  1.00  0.00    -0.231 A  
HETATM   35  H   UNL     1      -8.971  19.482  67.661  1.00  0.00     0.000 HD 
HETATM   36  C   UNL     1      -6.981  17.552  67.148  1.00  0.00    -0.199 A  
HETATM   37  C   UNL     1     -10.118  18.125  68.807  1.00  0.00    -0.376 A  
HETATM   38  C   UNL     1      -6.211  16.395  67.140  1.00  0.00    -0.203 A  
HETATM   39  N   UNL     1      -9.073  18.544  68.047  1.00  0.00    -0.293 NA 
HETATM   40  C   UNL     1      -6.634  15.267  67.842  1.00  0.00    -0.174 A  
HETATM   41  C   UNL     1      -7.851  15.258  68.557  1.00  0.00    -0.134 A  
HETATM   42  C   UNL     1      -8.667  16.411  68.581  1.00  0.00    -0.234 A  
ENDBRANCH  32  33
ENDBRANCH  27  32
ENDBRANCH  24  27
ENDBRANCH  11  23
ENDBRANCH   7  11
TORSDOF 8
ENDMDL
MODEL      135
REMARK 921   NORMALIZED FREE ENERGY PREDICTED BY IDOCK:   -6.58 KCAL/MOL
REMARK 922        TOTAL FREE ENERGY PREDICTED BY IDOCK:  -11.81 KCAL/MOL
REMARK 923 INTER-LIGAND FREE ENERGY PREDICTED BY IDOCK:   -9.72 KCAL/MOL
REMARK 924 INTRA-LIGAND FREE ENERGY PREDICTED BY IDOCK:   -2.08 KCAL/MOL
REMARK 927      BINDING AFFINITY PREDICTED BY RF-SCORE:    0.00 PKD
ROOT
HETATM    1  C   UNL     1     -11.358  15.537  64.118  1.00  0.00    -0.004 C  
HETATM    2  C   UNL     1     -11.489  14.044  64.477  1.00  0.00    -0.370 C  
HETATM    3  C   UNL     1     -12.252  13.783  65.944  1.00  0.00    -0.466 C  
HETATM    4  N   UNL     1     -10.108  13.483  64.546  1.00  0.00    -0.629 NA 
HETATM    5  C   UNL     1     -12.167  13.393  63.240  1.00  0.00    -0.314 C  
HETATM    6  H2  UNL     1      -9.501  13.996  65.186  1.00  0.00     0.000 HD 
HETATM    7  N   UNL     1     -11.453  13.765  67.093  1.00  0.00    -0.324 N  
HETATM    8  H1  UNL     1     -10.195  12.495  64.783  1.00  0.00     0.000 HD 
HETATM    9  O   UNL     1     -13.473  13.653  66.017  1.00  0.00     0.014 OA 
HETATM   10  H   UNL     1     -10.456  13.741  66.878  1.00  0.00     0.000 HD 
ENDROOT
BRANCH   7  11
HETATM   11  C   UNL     1     -11.738  13.773  68.636  1.00  0.00    -0.356 C  
BRANCH  11  12
HETATM   12  C   UNL     1     -10.899  14.606  69.713  1.00  0.00    -0.180 C  
BRANCH  12  13
HETATM   13  C   UNL     1      -9.710  15.574  69.240  1.00  0.00    -0.272 A  
HETATM   14  C   UNL     1      -8.345  15.371  69.322  1.00  0.00    -0.254 A  
HETATM   15  C   UNL     1     -10.687  19.015  67.654  1.00  0.00    -0.495 A  
HETATM   16  C   UNL     1      -9.430  19.606  67.745  1.00  0.00    -0.446 A  
HETATM   17  C   UNL     1      -8.343  18.857  68.194  1.00  0.00    -0.341 A  
HETATM   18  N   UNL     1      -7.672  16.536  68.955  1.00  0.00    -0.234 NA 
HETATM   19  C   UNL     1     -10.897  17.687  68.084  1.00  0.00    -0.223 A  
HETATM   20  C   UNL     1      -9.830  16.913  68.612  1.00  0.00    -0.270 A  
HETATM   21  C   UNL     1      -8.568  17.509  68.584  1.00  0.00    -0.259 A  
HETATM   22  H   UNL     1      -6.658  16.649  68.962  1.00  0.00     0.000 HD 
ENDBRANCH  12  13
ENDBRANCH  11  12
BRANCH  11  23
HETATM   23  C   UNL     1     -12.029  12.306  69.050  1.00  0.00    -0.248 C  
HETATM   24  N   UNL     1     -11.880  11.982  70.384  1.00  0.00    -0.519 N  
HETATM   25  H   UNL     1     -11.725  12.720  71.070  1.00  0.00     0.000 HD 
HETATM   26  O   UNL     1     -12.295  11.459  68.192  1.00  0.00    -0.502 OA 
BRANCH  24  27
HETATM   27  C   UNL     1     -11.942  10.604  70.813  1.00  0.00    -0.374 C  
BRANCH  27  28
HETATM   28  N   UNL     1     -13.192  10.040  70.374  1.00  0.00    -0.577 N  
HETATM   29  O   UNL     1     -13.551   8.777  72.276  1.00  0.00    -0.398 OA 
HETATM   30  C   UNL     1     -13.894   9.162  71.168  1.00  0.00    -0.058 C  
HETATM   31  H   UNL     1     -13.564  10.296  69.459  1.00  0.00     0.000 HD 
ENDBRANCH  27  28
BRANCH  27  32
HETATM   32  C   UNL     1     -10.706   9.709  70.577  1.00  0.00    -0.374 C  
BRANCH  32  33
HETATM   33  C   UNL     1      -9.868   9.555  69.319  1.00  0.00    -0.184 A  
HETATM   34  C   UNL     1      -8.527   9.548  67.444  1.00  0.00    -0.125 A  
HETATM   35  H   UNL     1      -8.988   7.542  66.947  1.00  0.00     0.000 HD 
HETATM   36  C   UNL     1      -7.633   9.963  66.445  1.00  0.00    -0.101 A  
HETATM   37  C   UNL     1      -9.912   8.316  68.684  1.00  0.00    -0.190 A  
HETATM   38  C   UNL     1      -7.180  11.276  66.492  1.00  0.00    -0.096 A  
HETATM   39  N   UNL     1      -9.120   8.330  67.582  1.00  0.00    -0.131 NA 
HETATM   40  C   UNL     1      -7.617  12.133  67.501  1.00  0.00    -0.151 A  
HETATM   41  C   UNL     1      -8.507  11.694  68.505  1.00  0.00    -0.135 A  
HETATM   42  C   UNL     1      -8.983  10.365  68.498  1.00  0.00    -0.139 A  
ENDBRANCH  32  33
ENDBRANCH  27  32
ENDBRANCH  24  27
ENDBRANCH  11  23
ENDBRANCH   7  11
TORSDOF 8
ENDMDL
MODEL      136
REMARK 921   NORMALIZED FREE ENERGY PREDICTED BY IDOCK:   -6.58 KCAL/MOL
REMARK 922        TOTAL FREE ENERGY PREDICTED BY IDOCK:  -11.80 KCAL/MOL
REMARK 923 INTER-LIGAND FREE ENERGY PREDICTED BY IDOCK:  -10.44 KCAL/MOL
REMARK 924 INTRA-LIGAND FREE ENERGY PREDICTED BY IDOCK:   -1.36 KCAL/MOL
REMARK 927      BINDING AFFINITY PREDICTED BY RF-SCORE:    0.00 PKD
ROOT
HETATM    1  C   UNL     1     -11.891  15.381  72.202  1.00  0.00    -0.536 C  
HETATM    2  C   UNL     1     -12.892  14.763  71.206  1.00  0.00    -0.338 C  
HETATM    3  C   UNL     1     -12.280  13.432  70.396  1.00  0.00    -0.345 C  
HETATM    4  N   UNL     1     -13.233  15.818  70.208  1.00  0.00    -0.695 NA 
HETATM    5  C   UNL     1     -14.180  14.511  72.038  1.00  0.00    -0.630 C  
HETATM    6  H2  UNL     1     -12.411  16.217  69.753  1.00  0.00     0.000 HD 
HETATM    7  N   UNL     1     -11.577  13.666  69.208  1.00  0.00    -0.291 N  
HETATM    8  H1  UNL     1     -13.895  15.409  69.549  1.00  0.00     0.000 HD 
HETATM    9  O   UNL     1     -12.405  12.294  70.847  1.00  0.00    -0.376 OA 
HETATM   10  H   UNL     1     -11.671  14.626  68.879  1.00  0.00     0.000 HD 
ENDROOT
BRANCH   7  11
HETATM   11  C   UNL     1     -10.678  12.789  68.267  1.00  0.00    -0.239 C  
BRANCH  11  12
HETATM   12  C   UNL     1     -10.422  13.087  66.716  1.00  0.00    -0.264 C  
BRANCH  12  13
HETATM   13  C   UNL     1     -10.734  14.538  66.109  1.00  0.00    -0.310 A  
HETATM   14  C   UNL     1     -11.325  14.861  64.902  1.00  0.00    -0.413 A  
HETATM   15  C   UNL     1      -9.697  17.659  68.228  1.00  0.00    -0.315 A  
HETATM   16  C   UNL     1      -9.816  18.602  67.210  1.00  0.00    -0.345 A  
HETATM   17  C   UNL     1     -10.313  18.218  65.965  1.00  0.00    -0.377 A  
HETATM   18  N   UNL     1     -11.248  16.238  64.691  1.00  0.00    -0.700 NA 
HETATM   19  C   UNL     1      -9.999  16.301  67.996  1.00  0.00    -0.240 A  
HETATM   20  C   UNL     1     -10.442  15.857  66.722  1.00  0.00    -0.309 A  
HETATM   21  C   UNL     1     -10.650  16.852  65.765  1.00  0.00    -0.230 A  
HETATM   22  H   UNL     1     -11.587  16.720  63.859  1.00  0.00     0.000 HD 
ENDBRANCH  12  13
ENDBRANCH  11  12
BRANCH  11  23
HETATM   23  C   UNL     1     -10.999  11.305  68.588  1.00  0.00    -0.218 C  
HETATM   24  N   UNL     1     -10.211  10.675  69.531  1.00  0.00    -0.366 N  
HETATM   25  H   UNL     1      -9.548  11.220  70.081  1.00  0.00     0.000 HD 
HETATM   26  O   UNL     1     -11.872  10.706  67.952  1.00  0.00    -0.485 OA 
BRANCH  24  27
HETATM   27  C   UNL     1     -10.321   9.250  69.742  1.00  0.00    -0.218 C  
BRANCH  27  28
HETATM   28  N   UNL     1     -11.601   8.971  70.340  1.00  0.00    -0.429 N  
HETATM   29  O   UNL     1     -10.769   8.500  72.444  1.00  0.00    -0.341 OA 
HETATM   30  C   UNL     1     -11.704   8.616  71.666  1.00  0.00    -0.313 C  
HETATM   31  H   UNL     1     -12.445   9.036  69.771  1.00  0.00     0.000 HD 
ENDBRANCH  27  28
BRANCH  27  32
HETATM   32  C   UNL     1      -9.923   8.308  68.586  1.00  0.00    -0.203 C  
BRANCH  32  33
HETATM   33  C   UNL     1      -8.997   8.579  67.411  1.00  0.00    -0.144 A  
HETATM   34  C   UNL     1      -7.427   9.053  65.793  1.00  0.00    -0.090 A  
HETATM   35  H   UNL     1      -8.714   8.542  64.192  1.00  0.00     0.000 HD 
HETATM   36  C   UNL     1      -6.225   9.433  65.174  1.00  0.00    -0.070 A  
HETATM   37  C   UNL     1      -9.512   8.344  66.139  1.00  0.00    -0.194 A  
HETATM   38  C   UNL     1      -5.187   9.864  65.991  1.00  0.00    -0.036 A  
HETATM   39  N   UNL     1      -8.576   8.630  65.198  1.00  0.00    -0.185 NA 
HETATM   40  C   UNL     1      -5.359   9.915  67.374  1.00  0.00    -0.038 A  
HETATM   41  C   UNL     1      -6.570   9.516  67.980  1.00  0.00    -0.062 A  
HETATM   42  C   UNL     1      -7.645   9.063  67.185  1.00  0.00    -0.091 A  
ENDBRANCH  32  33
ENDBRANCH  27  32
ENDBRANCH  24  27
ENDBRANCH  11  23
ENDBRANCH   7  11
TORSDOF 8
ENDMDL
MODEL      137
REMARK 921   NORMALIZED FREE ENERGY PREDICTED BY IDOCK:   -6.57 KCAL/MOL
REMARK 922        TOTAL FREE ENERGY PREDICTED BY IDOCK:  -11.78 KCAL/MOL
REMARK 923 INTER-LIGAND FREE ENERGY PREDICTED BY IDOCK:   -9.66 KCAL/MOL
REMARK 924 INTRA-LIGAND FREE ENERGY PREDICTED BY IDOCK:   -2.13 KCAL/MOL
REMARK 927      BINDING AFFINITY PREDICTED BY RF-SCORE:    0.00 PKD
ROOT
HETATM    1  C   UNL     1     -11.834  12.396  65.761  1.00  0.00    -0.467 C  
HETATM    2  C   UNL     1     -11.642  13.894  66.065  1.00  0.00    -0.349 C  
HETATM    3  C   UNL     1     -10.048  14.306  66.366  1.00  0.00    -0.288 C  
HETATM    4  N   UNL     1     -12.456  14.208  67.274  1.00  0.00    -0.532 NA 
HETATM    5  C   UNL     1     -12.316  14.633  64.875  1.00  0.00    -0.322 C  
HETATM    6  H2  UNL     1     -12.237  13.608  68.070  1.00  0.00     0.000 HD 
HETATM    7  N   UNL     1      -9.592  14.203  67.685  1.00  0.00    -0.212 N  
HETATM    8  H1  UNL     1     -12.329  15.200  67.475  1.00  0.00     0.000 HD 
HETATM    9  O   UNL     1      -9.291  14.647  65.457  1.00  0.00    -0.093 OA 
HETATM   10  H   UNL     1     -10.349  14.051  68.351  1.00  0.00     0.000 HD 
ENDROOT
BRANCH   7  11
HETATM   11  C   UNL     1      -8.184  14.269  68.375  1.00  0.00    -0.144 C  
BRANCH  11  12
HETATM   12  C   UNL     1      -7.244  15.563  68.404  1.00  0.00    -0.114 C  
BRANCH  12  13
HETATM   13  C   UNL     1      -7.481  16.759  67.363  1.00  0.00    -0.187 A  
HETATM   14  C   UNL     1      -6.655  17.194  66.343  1.00  0.00    -0.216 A  
HETATM   15  C   UNL     1     -10.795  18.815  67.677  1.00  0.00    -0.382 A  
HETATM   16  C   UNL     1     -10.407  19.885  66.875  1.00  0.00    -0.596 A  
HETATM   17  C   UNL     1      -9.184  19.842  66.208  1.00  0.00    -0.461 A  
HETATM   18  N   UNL     1      -7.164  18.370  65.792  1.00  0.00    -0.492 NA 
HETATM   19  C   UNL     1      -9.934  17.717  67.888  1.00  0.00    -0.322 A  
HETATM   20  C   UNL     1      -8.651  17.668  67.280  1.00  0.00    -0.238 A  
HETATM   21  C   UNL     1      -8.349  18.709  66.401  1.00  0.00    -0.276 A  
HETATM   22  H   UNL     1      -6.720  18.903  65.045  1.00  0.00     0.000 HD 
ENDBRANCH  12  13
ENDBRANCH  11  12
BRANCH  11  23
HETATM   23  C   UNL     1      -7.445  12.951  68.021  1.00  0.00    -0.125 C  
HETATM   24  N   UNL     1      -7.759  11.829  68.763  1.00  0.00    -0.232 N  
HETATM   25  H   UNL     1      -8.545  11.855  69.412  1.00  0.00     0.000 HD 
HETATM   26  O   UNL     1      -6.555  12.947  67.166  1.00  0.00    -0.165 OA 
BRANCH  24  27
HETATM   27  C   UNL     1      -6.981  10.620  68.626  1.00  0.00    -0.072 C  
BRANCH  27  28
HETATM   28  N   UNL     1      -5.620  10.902  69.004  1.00  0.00    -0.041 N  
HETATM   29  O   UNL     1      -6.095  11.382  71.214  1.00  0.00    -0.244 OA 
HETATM   30  C   UNL     1      -5.301  11.262  70.293  1.00  0.00    -0.099 C  
HETATM   31  H   UNL     1      -4.881  10.833  68.304  1.00  0.00     0.000 HD 
ENDBRANCH  27  28
BRANCH  27  32
HETATM   32  C   UNL     1      -7.559   9.310  69.204  1.00  0.00    -0.073 C  
BRANCH  32  33
HETATM   33  C   UNL     1      -8.713   9.125  70.176  1.00  0.00    -0.196 A  
HETATM   34  C   UNL     1     -10.585   9.000  71.514  1.00  0.00    -0.345 A  
HETATM   35  H   UNL     1      -9.714   7.606  72.847  1.00  0.00     0.000 HD 
HETATM   36  C   UNL     1     -11.877   9.214  72.020  1.00  0.00    -0.407 A  
HETATM   37  C   UNL     1      -8.508   8.241  71.232  1.00  0.00    -0.136 A  
HETATM   38  C   UNL     1     -12.685  10.131  71.357  1.00  0.00    -0.530 A  
HETATM   39  N   UNL     1      -9.618   8.181  72.011  1.00  0.00    -0.196 NA 
HETATM   40  C   UNL     1     -12.204  10.806  70.236  1.00  0.00    -0.431 A  
HETATM   41  C   UNL     1     -10.907  10.568  69.733  1.00  0.00    -0.335 A  
HETATM   42  C   UNL     1     -10.059   9.637  70.373  1.00  0.00    -0.336 A  
ENDBRANCH  32  33
ENDBRANCH  27  32
ENDBRANCH  24  27
ENDBRANCH  11  23
ENDBRANCH   7  11
TORSDOF 8
ENDMDL
MODEL      138
REMARK 921   NORMALIZED FREE ENERGY PREDICTED BY IDOCK:   -6.57 KCAL/MOL
REMARK 922        TOTAL FREE ENERGY PREDICTED BY IDOCK:  -11.78 KCAL/MOL
REMARK 923 INTER-LIGAND FREE ENERGY PREDICTED BY IDOCK:   -9.65 KCAL/MOL
REMARK 924 INTRA-LIGAND FREE ENERGY PREDICTED BY IDOCK:   -2.14 KCAL/MOL
REMARK 927      BINDING AFFINITY PREDICTED BY RF-SCORE:    0.00 PKD
ROOT
HETATM    1  C   UNL     1      -7.355   5.791  68.095  1.00  0.00    -0.077 C  
HETATM    2  C   UNL     1      -8.516   5.935  67.092  1.00  0.00    -0.107 C  
HETATM    3  C   UNL     1      -8.729   7.504  66.551  1.00  0.00    -0.140 C  
HETATM    4  N   UNL     1      -9.759   5.493  67.787  1.00  0.00    -0.124 NA 
HETATM    5  C   UNL     1      -8.226   4.877  65.991  1.00  0.00    -0.112 C  
HETATM    6  H2  UNL     1      -9.924   5.990  68.663  1.00  0.00     0.000 HD 
HETATM    7  N   UNL     1      -9.564   8.339  67.303  1.00  0.00    -0.156 N  
HETATM    8  H1  UNL     1     -10.527   5.588  67.123  1.00  0.00     0.000 HD 
HETATM    9  O   UNL     1      -8.142   7.924  65.554  1.00  0.00    -0.114 OA 
HETATM   10  H   UNL     1     -10.091   7.831  68.012  1.00  0.00     0.000 HD 
ENDROOT
BRANCH   7  11
HETATM   11  C   UNL     1      -9.874   9.877  67.306  1.00  0.00    -0.182 C  
BRANCH  11  12
HETATM   12  C   UNL     1      -8.767  11.030  67.353  1.00  0.00    -0.132 C  
BRANCH  12  13
HETATM   13  C   UNL     1      -9.091  12.489  66.770  1.00  0.00    -0.214 A  
HETATM   14  C   UNL     1      -8.421  13.677  66.993  1.00  0.00    -0.125 A  
HETATM   15  C   UNL     1     -12.192  12.859  64.414  1.00  0.00    -0.484 A  
HETATM   16  C   UNL     1     -12.280  14.247  64.467  1.00  0.00    -0.476 A  
HETATM   17  C   UNL     1     -11.304  14.978  65.144  1.00  0.00    -0.372 A  
HETATM   18  N   UNL     1      -9.137  14.735  66.434  1.00  0.00    -0.414 NA 
HETATM   19  C   UNL     1     -11.172  12.170  65.104  1.00  0.00    -0.378 A  
HETATM   20  C   UNL     1     -10.199  12.874  65.862  1.00  0.00    -0.299 A  
HETATM   21  C   UNL     1     -10.261  14.267  65.798  1.00  0.00    -0.334 A  
HETATM   22  H   UNL     1      -8.865  15.716  66.489  1.00  0.00     0.000 HD 
ENDBRANCH  12  13
ENDBRANCH  11  12
BRANCH  11  23
HETATM   23  C   UNL     1     -11.065  10.096  68.277  1.00  0.00    -0.227 C  
HETATM   24  N   UNL     1     -11.084   9.344  69.436  1.00  0.00    -0.416 N  
HETATM   25  H   UNL     1     -10.271   8.784  69.689  1.00  0.00     0.000 HD 
HETATM   26  O   UNL     1     -11.991  10.851  67.966  1.00  0.00    -0.586 OA 
BRANCH  24  27
HETATM   27  C   UNL     1     -12.249   9.348  70.290  1.00  0.00     0.218 C  
BRANCH  27  28
HETATM   28  N   UNL     1     -12.582   7.986  70.622  1.00  0.00    -0.405 N  
HETATM   29  O   UNL     1     -10.491   7.122  70.149  1.00  0.00    -0.206 OA 
HETATM   30  C   UNL     1     -11.647   6.981  70.519  1.00  0.00    -0.319 C  
HETATM   31  H   UNL     1     -13.525   7.764  70.938  1.00  0.00     0.000 HD 
ENDBRANCH  27  28
BRANCH  27  32
HETATM   32  C   UNL     1     -12.279  10.333  71.479  1.00  0.00    -0.449 C  
BRANCH  32  33
HETATM   33  C   UNL     1     -12.669  11.802  71.491  1.00  0.00    -0.400 A  
HETATM   34  C   UNL     1     -13.105  14.058  71.329  1.00  0.00    -0.329 A  
HETATM   35  H   UNL     1     -14.530  14.041  72.894  1.00  0.00     0.000 HD 
HETATM   36  C   UNL     1     -13.069  15.394  70.899  1.00  0.00    -0.528 A  
HETATM   37  C   UNL     1     -13.627  12.188  72.425  1.00  0.00     0.018 A  
HETATM   38  C   UNL     1     -12.176  15.721  69.885  1.00  0.00    -0.271 A  
HETATM   39  N   UNL     1     -13.870  13.520  72.317  1.00  0.00    -0.567 NA 
HETATM   40  C   UNL     1     -11.352  14.740  69.334  1.00  0.00    -0.312 A  
HETATM   41  C   UNL     1     -11.412  13.398  69.771  1.00  0.00    -0.236 A  
HETATM   42  C   UNL     1     -12.312  13.025  70.792  1.00  0.00    -0.394 A  
ENDBRANCH  32  33
ENDBRANCH  27  32
ENDBRANCH  24  27
ENDBRANCH  11  23
ENDBRANCH   7  11
TORSDOF 8
ENDMDL
MODEL      139
REMARK 921   NORMALIZED FREE ENERGY PREDICTED BY IDOCK:   -6.56 KCAL/MOL
REMARK 922        TOTAL FREE ENERGY PREDICTED BY IDOCK:  -11.77 KCAL/MOL
REMARK 923 INTER-LIGAND FREE ENERGY PREDICTED BY IDOCK:   -9.02 KCAL/MOL
REMARK 924 INTRA-LIGAND FREE ENERGY PREDICTED BY IDOCK:   -2.74 KCAL/MOL
REMARK 927      BINDING AFFINITY PREDICTED BY RF-SCORE:    0.00 PKD
ROOT
HETATM    1  C   UNL     1      -5.613  10.920  71.050  1.00  0.00    -0.052 C  
HETATM    2  C   UNL     1      -6.439   9.763  70.456  1.00  0.00    -0.108 C  
HETATM    3  C   UNL     1      -7.367  10.223  69.141  1.00  0.00    -0.096 C  
HETATM    4  N   UNL     1      -7.343   9.266  71.533  1.00  0.00    -0.334 NA 
HETATM    5  C   UNL     1      -5.408   8.631  70.189  1.00  0.00    -0.024 C  
HETATM    6  H2  UNL     1      -7.922  10.002  71.939  1.00  0.00     0.000 HD 
HETATM    7  N   UNL     1      -8.651  10.718  69.398  1.00  0.00    -0.375 N  
HETATM    8  H1  UNL     1      -7.890   8.500  71.139  1.00  0.00     0.000 HD 
HETATM    9  O   UNL     1      -6.926  10.169  67.994  1.00  0.00    -0.080 OA 
HETATM   10  H   UNL     1      -8.940  10.576  70.366  1.00  0.00     0.000 HD 
ENDROOT
BRANCH   7  11
HETATM   11  C   UNL     1      -9.748  11.442  68.540  1.00  0.00    -0.197 C  
BRANCH  11  12
HETATM   12  C   UNL     1     -11.110  12.043  69.124  1.00  0.00    -0.272 C  
BRANCH  12  13
HETATM   13  C   UNL     1     -11.268  13.624  69.345  1.00  0.00    -0.252 A  
HETATM   14  C   UNL     1     -12.391  14.336  69.723  1.00  0.00    -0.292 A  
HETATM   15  C   UNL     1      -8.123  15.869  68.732  1.00  0.00    -0.190 A  
HETATM   16  C   UNL     1      -8.793  17.089  68.685  1.00  0.00    -0.267 A  
HETATM   17  C   UNL     1     -10.160  17.139  68.954  1.00  0.00    -0.322 A  
HETATM   18  N   UNL     1     -12.136  15.704  69.628  1.00  0.00    -0.457 NA 
HETATM   19  C   UNL     1      -8.822  14.667  68.971  1.00  0.00    -0.090 A  
HETATM   20  C   UNL     1     -10.227  14.668  69.181  1.00  0.00    -0.199 A  
HETATM   21  C   UNL     1     -10.838  15.922  69.233  1.00  0.00    -0.276 A  
HETATM   22  H   UNL     1     -12.816  16.438  69.824  1.00  0.00     0.000 HD 
ENDBRANCH  12  13
ENDBRANCH  11  12
BRANCH  11  23
HETATM   23  C   UNL     1      -9.921  10.615  67.238  1.00  0.00    -0.188 C  
HETATM   24  N   UNL     1      -9.021  10.847  66.216  1.00  0.00    -0.170 N  
HETATM   25  H   UNL     1      -8.204  11.434  66.384  1.00  0.00     0.000 HD 
HETATM   26  O   UNL     1     -10.882   9.850  67.109  1.00  0.00    -0.241 OA 
BRANCH  24  27
HETATM   27  C   UNL     1      -9.230  10.263  64.911  1.00  0.00    -0.227 C  
BRANCH  27  28
HETATM   28  N   UNL     1      -9.146   8.830  65.028  1.00  0.00    -0.428 N  
HETATM   29  O   UNL     1      -6.839   8.733  64.934  1.00  0.00    -0.072 OA 
HETATM   30  C   UNL     1      -7.928   8.188  65.031  1.00  0.00    -0.139 C  
HETATM   31  H   UNL     1     -10.002   8.282  65.110  1.00  0.00     0.000 HD 
ENDBRANCH  27  28
BRANCH  27  32
HETATM   32  C   UNL     1     -10.413  10.778  64.063  1.00  0.00    -0.287 C  
BRANCH  32  33
HETATM   33  C   UNL     1     -11.025  12.169  64.025  1.00  0.00    -0.438 A  
HETATM   34  C   UNL     1     -11.765  14.350  64.097  1.00  0.00    -0.227 A  
HETATM   35  H   UNL     1     -13.509  13.946  62.967  1.00  0.00     0.000 HD 
HETATM   36  C   UNL     1     -11.832  15.725  64.372  1.00  0.00    -0.148 A  
HETATM   37  C   UNL     1     -12.229  12.305  63.338  1.00  0.00    -0.527 A  
HETATM   38  C   UNL     1     -10.819  16.277  65.147  1.00  0.00    -0.333 A  
HETATM   39  N   UNL     1     -12.652  13.594  63.393  1.00  0.00    -0.781 NA 
HETATM   40  C   UNL     1      -9.788  15.472  65.629  1.00  0.00    -0.377 A  
HETATM   41  C   UNL     1      -9.730  14.093  65.332  1.00  0.00    -0.126 A  
HETATM   42  C   UNL     1     -10.735  13.497  64.540  1.00  0.00    -0.431 A  
ENDBRANCH  32  33
ENDBRANCH  27  32
ENDBRANCH  24  27
ENDBRANCH  11  23
ENDBRANCH   7  11
TORSDOF 8
ENDMDL
MODEL      140
REMARK 921   NORMALIZED FREE ENERGY PREDICTED BY IDOCK:   -6.54 KCAL/MOL
REMARK 922        TOTAL FREE ENERGY PREDICTED BY IDOCK:  -11.75 KCAL/MOL
REMARK 923 INTER-LIGAND FREE ENERGY PREDICTED BY IDOCK:   -9.55 KCAL/MOL
REMARK 924 INTRA-LIGAND FREE ENERGY PREDICTED BY IDOCK:   -2.20 KCAL/MOL
REMARK 927      BINDING AFFINITY PREDICTED BY RF-SCORE:    0.00 PKD
ROOT
HETATM    1  C   UNL     1     -10.867   8.700  72.079  1.00  0.00    -0.430 C  
HETATM    2  C   UNL     1     -11.619   8.340  70.783  1.00  0.00    -0.236 C  
HETATM    3  C   UNL     1     -10.722   8.628  69.399  1.00  0.00    -0.158 C  
HETATM    4  N   UNL     1     -12.853   9.177  70.740  1.00  0.00    -0.498 NA 
HETATM    5  C   UNL     1     -12.088   6.872  70.988  1.00  0.00    -0.429 C  
HETATM    6  H2  UNL     1     -12.661  10.175  70.825  1.00  0.00     0.000 HD 
HETATM    7  N   UNL     1     -10.802   9.905  68.832  1.00  0.00    -0.261 N  
HETATM    8  H1  UNL     1     -13.350   8.938  69.882  1.00  0.00     0.000 HD 
HETATM    9  O   UNL     1      -9.987   7.765  68.920  1.00  0.00    -0.172 OA 
HETATM   10  H   UNL     1     -11.547  10.470  69.240  1.00  0.00     0.000 HD 
ENDROOT
BRANCH   7  11
HETATM   11  C   UNL     1     -10.009  10.668  67.713  1.00  0.00    -0.167 C  
BRANCH  11  12
HETATM   12  C   UNL     1      -8.523  11.237  67.878  1.00  0.00    -0.133 C  
BRANCH  12  13
HETATM   13  C   UNL     1      -7.431  10.994  66.728  1.00  0.00    -0.139 A  
HETATM   14  C   UNL     1      -6.134  11.465  66.654  1.00  0.00    -0.140 A  
HETATM   15  C   UNL     1      -8.482   8.813  63.654  1.00  0.00    -0.110 A  
HETATM   16  C   UNL     1      -7.423   9.171  62.824  1.00  0.00    -0.101 A  
HETATM   17  C   UNL     1      -6.401   9.981  63.315  1.00  0.00    -0.135 A  
HETATM   18  N   UNL     1      -5.591  11.161  65.406  1.00  0.00    -0.474 NA 
HETATM   19  C   UNL     1      -8.577   9.323  64.967  1.00  0.00    -0.200 A  
HETATM   20  C   UNL     1      -7.591  10.206  65.482  1.00  0.00    -0.146 A  
HETATM   21  C   UNL     1      -6.495  10.450  64.653  1.00  0.00    -0.050 A  
HETATM   22  H   UNL     1      -4.657  11.428  65.096  1.00  0.00     0.000 HD 
ENDBRANCH  12  13
ENDBRANCH  11  12
BRANCH  11  23
HETATM   23  C   UNL     1     -11.003  11.660  67.051  1.00  0.00    -0.288 C  
HETATM   24  N   UNL     1     -10.611  12.254  65.868  1.00  0.00    -0.249 N  
HETATM   25  H   UNL     1      -9.766  11.934  65.396  1.00  0.00     0.000 HD 
HETATM   26  O   UNL     1     -12.057  11.956  67.620  1.00  0.00    -0.568 OA 
BRANCH  24  27
HETATM   27  C   UNL     1     -11.391  13.327  65.295  1.00  0.00    -0.295 C  
BRANCH  27  28
HETATM   28  N   UNL     1     -12.693  12.816  64.949  1.00  0.00    -0.691 N  
HETATM   29  O   UNL     1     -11.980  11.607  63.113  1.00  0.00    -0.300 OA 
HETATM   30  C   UNL     1     -12.865  11.983  63.867  1.00  0.00    -0.284 C  
HETATM   31  H   UNL     1     -13.500  13.076  65.516  1.00  0.00     0.000 HD 
ENDBRANCH  27  28
BRANCH  27  32
HETATM   32  C   UNL     1     -11.398  14.691  66.018  1.00  0.00    -0.344 C  
BRANCH  32  33
HETATM   33  C   UNL     1     -10.261  15.685  66.189  1.00  0.00    -0.327 A  
HETATM   34  C   UNL     1      -8.404  17.007  66.528  1.00  0.00    -0.278 A  
HETATM   35  H   UNL     1      -9.369  18.776  65.877  1.00  0.00     0.000 HD 
HETATM   36  C   UNL     1      -7.102  17.415  66.858  1.00  0.00    -0.229 A  
HETATM   37  C   UNL     1     -10.527  17.007  65.845  1.00  0.00    -0.274 A  
HETATM   38  C   UNL     1      -6.234  16.454  67.361  1.00  0.00    -0.200 A  
HETATM   39  N   UNL     1      -9.425  17.773  66.052  1.00  0.00    -0.527 NA 
HETATM   40  C   UNL     1      -6.666  15.139  67.529  1.00  0.00    -0.189 A  
HETATM   41  C   UNL     1      -7.975  14.744  67.180  1.00  0.00    -0.205 A  
HETATM   42  C   UNL     1      -8.884  15.689  66.656  1.00  0.00    -0.327 A  
ENDBRANCH  32  33
ENDBRANCH  27  32
ENDBRANCH  24  27
ENDBRANCH  11  23
ENDBRANCH   7  11
TORSDOF 8
ENDMDL
MODEL      141
REMARK 921   NORMALIZED FREE ENERGY PREDICTED BY IDOCK:   -6.53 KCAL/MOL
REMARK 922        TOTAL FREE ENERGY PREDICTED BY IDOCK:  -11.73 KCAL/MOL
REMARK 923 INTER-LIGAND FREE ENERGY PREDICTED BY IDOCK:   -8.41 KCAL/MOL
REMARK 924 INTRA-LIGAND FREE ENERGY PREDICTED BY IDOCK:   -3.32 KCAL/MOL
REMARK 927      BINDING AFFINITY PREDICTED BY RF-SCORE:    0.00 PKD
ROOT
HETATM    1  C   UNL     1     -10.040  14.930  65.620  1.00  0.00    -0.387 C  
HETATM    2  C   UNL     1     -10.983  13.846  65.063  1.00  0.00    -0.368 C  
HETATM    3  C   UNL     1     -11.591  12.830  66.246  1.00  0.00    -0.379 C  
HETATM    4  N   UNL     1     -10.198  13.034  64.088  1.00  0.00    -0.580 NA 
HETATM    5  C   UNL     1     -12.042  14.625  64.235  1.00  0.00    -0.437 C  
HETATM    6  H2  UNL     1      -9.341  12.650  64.488  1.00  0.00     0.000 HD 
HETATM    7  N   UNL     1     -10.838  11.696  66.573  1.00  0.00    -0.273 N  
HETATM    8  H1  UNL     1     -10.822  12.317  63.719  1.00  0.00     0.000 HD 
HETATM    9  O   UNL     1     -12.640  13.088  66.836  1.00  0.00    -0.194 OA 
HETATM   10  H   UNL     1     -10.075  11.529  65.917  1.00  0.00     0.000 HD 
ENDROOT
BRANCH   7  11
HETATM   11  C   UNL     1     -10.897  10.624  67.718  1.00  0.00    -0.286 C  
BRANCH  11  12
HETATM   12  C   UNL     1     -10.779  10.952  69.279  1.00  0.00    -0.271 C  
BRANCH  12  13
HETATM   13  C   UNL     1     -11.179   9.847  70.371  1.00  0.00    -0.379 A  
HETATM   14  C   UNL     1     -12.436   9.388  70.716  1.00  0.00    -0.081 A  
HETATM   15  C   UNL     1      -8.288   8.181  72.414  1.00  0.00    -0.227 A  
HETATM   16  C   UNL     1      -9.085   7.621  73.408  1.00  0.00    -0.296 A  
HETATM   17  C   UNL     1     -10.473   7.709  73.315  1.00  0.00    -0.414 A  
HETATM   18  N   UNL     1     -12.344   8.554  71.831  1.00  0.00    -0.330 NA 
HETATM   19  C   UNL     1      -8.861   8.909  71.350  1.00  0.00    -0.283 A  
HETATM   20  C   UNL     1     -10.268   9.080  71.256  1.00  0.00    -0.384 A  
HETATM   21  C   UNL     1     -11.032   8.411  72.213  1.00  0.00    -0.361 A  
HETATM   22  H   UNL     1     -13.137   8.114  72.295  1.00  0.00     0.000 HD 
ENDBRANCH  12  13
ENDBRANCH  11  12
BRANCH  11  23
HETATM   23  C   UNL     1     -10.038   9.418  67.252  1.00  0.00    -0.226 C  
HETATM   24  N   UNL     1      -8.889   9.144  67.968  1.00  0.00    -0.129 N  
HETATM   25  H   UNL     1      -8.709   9.635  68.843  1.00  0.00     0.000 HD 
HETATM   26  O   UNL     1     -10.342   8.797  66.229  1.00  0.00    -0.231 OA 
BRANCH  24  27
HETATM   27  C   UNL     1      -7.942   8.166  67.484  1.00  0.00    -0.122 C  
BRANCH  27  28
HETATM   28  N   UNL     1      -6.609   8.663  67.711  1.00  0.00    -0.061 N  
HETATM   29  O   UNL     1      -6.521   9.954  65.796  1.00  0.00    -0.081 OA 
HETATM   30  C   UNL     1      -6.014   9.532  66.825  1.00  0.00    -0.059 C  
HETATM   31  H   UNL     1      -6.099   8.367  68.542  1.00  0.00     0.000 HD 
ENDBRANCH  27  28
BRANCH  27  32
HETATM   32  C   UNL     1      -8.160   6.687  67.869  1.00  0.00    -0.113 C  
BRANCH  32  33
HETATM   33  C   UNL     1      -9.047   6.105  68.957  1.00  0.00    -0.124 A  
HETATM   34  C   UNL     1     -10.191   5.156  70.717  1.00  0.00    -0.238 A  
HETATM   35  H   UNL     1     -12.095   5.646  69.932  1.00  0.00     0.000 HD 
HETATM   36  C   UNL     1     -10.466   4.498  71.927  1.00  0.00    -0.141 A  
HETATM   37  C   UNL     1     -10.422   6.243  68.785  1.00  0.00    -0.233 A  
HETATM   38  C   UNL     1      -9.387   4.018  72.659  1.00  0.00    -0.153 A  
HETATM   39  N   UNL     1     -11.080   5.677  69.828  1.00  0.00    -0.251 NA 
HETATM   40  C   UNL     1      -8.087   4.190  72.185  1.00  0.00    -0.090 A  
HETATM   41  C   UNL     1      -7.828   4.865  70.973  1.00  0.00    -0.084 A  
HETATM   42  C   UNL     1      -8.897   5.376  70.205  1.00  0.00    -0.143 A  
ENDBRANCH  32  33
ENDBRANCH  27  32
ENDBRANCH  24  27
ENDBRANCH  11  23
ENDBRANCH   7  11
TORSDOF 8
ENDMDL
MODEL      142
REMARK 921   NORMALIZED FREE ENERGY PREDICTED BY IDOCK:   -6.52 KCAL/MOL
REMARK 922        TOTAL FREE ENERGY PREDICTED BY IDOCK:  -11.72 KCAL/MOL
REMARK 923 INTER-LIGAND FREE ENERGY PREDICTED BY IDOCK:   -9.70 KCAL/MOL
REMARK 924 INTRA-LIGAND FREE ENERGY PREDICTED BY IDOCK:   -2.02 KCAL/MOL
REMARK 927      BINDING AFFINITY PREDICTED BY RF-SCORE:    0.00 PKD
ROOT
HETATM    1  C   UNL     1     -10.068  13.456  64.548  1.00  0.00    -0.220 C  
HETATM    2  C   UNL     1     -11.217  12.439  64.689  1.00  0.00    -0.312 C  
HETATM    3  C   UNL     1     -12.012  12.543  66.158  1.00  0.00    -0.366 C  
HETATM    4  N   UNL     1     -10.623  11.077  64.559  1.00  0.00    -0.339 NA 
HETATM    5  C   UNL     1     -12.101  12.656  63.429  1.00  0.00    -0.614 C  
HETATM    6  H2  UNL     1      -9.860  10.911  65.216  1.00  0.00     0.000 HD 
HETATM    7  N   UNL     1     -11.505  11.787  67.222  1.00  0.00    -0.316 N  
HETATM    8  H1  UNL     1     -11.384  10.405  64.652  1.00  0.00     0.000 HD 
HETATM    9  O   UNL     1     -12.981  13.286  66.312  1.00  0.00    -0.070 OA 
HETATM   10  H   UNL     1     -10.798  11.116  66.924  1.00  0.00     0.000 HD 
ENDROOT
BRANCH   7  11
HETATM   11  C   UNL     1     -11.774  11.736  68.767  1.00  0.00    -0.329 C  
BRANCH  11  12
HETATM   12  C   UNL     1     -11.834  13.017  69.723  1.00  0.00    -0.381 C  
BRANCH  12  13
HETATM   13  C   UNL     1     -11.306  14.440  69.205  1.00  0.00    -0.308 A  
HETATM   14  C   UNL     1     -11.911  15.678  69.313  1.00  0.00    -0.320 A  
HETATM   15  C   UNL     1      -7.868  14.536  67.339  1.00  0.00    -0.221 A  
HETATM   16  C   UNL     1      -8.006  15.811  66.797  1.00  0.00    -0.273 A  
HETATM   17  C   UNL     1      -9.109  16.593  67.137  1.00  0.00    -0.227 A  
HETATM   18  N   UNL     1     -11.194  16.620  68.575  1.00  0.00    -0.309 NA 
HETATM   19  C   UNL     1      -8.871  13.989  68.168  1.00  0.00    -0.182 A  
HETATM   20  C   UNL     1     -10.042  14.727  68.483  1.00  0.00    -0.230 A  
HETATM   21  C   UNL     1     -10.086  16.039  68.007  1.00  0.00    -0.240 A  
HETATM   22  H   UNL     1     -11.455  17.600  68.473  1.00  0.00     0.000 HD 
ENDBRANCH  12  13
ENDBRANCH  11  12
BRANCH  11  23
HETATM   23  C   UNL     1     -10.940  10.555  69.332  1.00  0.00    -0.250 C  
HETATM   24  N   UNL     1     -11.627   9.419  69.711  1.00  0.00    -0.442 N  
HETATM   25  H   UNL     1     -12.618   9.328  69.487  1.00  0.00     0.000 HD 
HETATM   26  O   UNL     1      -9.725  10.680  69.508  1.00  0.00    -0.170 OA 
BRANCH  24  27
HETATM   27  C   UNL     1     -10.950   8.358  70.421  1.00  0.00    -0.239 C  
BRANCH  27  28
HETATM   28  N   UNL     1     -11.056   8.610  71.835  1.00  0.00    -0.321 N  
HETATM   29  O   UNL     1     -13.354   8.855  71.849  1.00  0.00    -0.352 OA 
HETATM   30  C   UNL     1     -12.278   8.837  72.427  1.00  0.00    -0.326 C  
HETATM   31  H   UNL     1     -10.212   8.620  72.407  1.00  0.00     0.000 HD 
ENDBRANCH  27  28
BRANCH  27  32
HETATM   32  C   UNL     1     -11.231   6.901  69.997  1.00  0.00    -0.347 C  
BRANCH  32  33
HETATM   33  C   UNL     1     -10.787   6.171  68.740  1.00  0.00    -0.402 A  
HETATM   34  C   UNL     1     -10.021   4.897  66.979  1.00  0.00    -0.208 A  
HETATM   35  H   UNL     1     -10.740   6.239  65.508  1.00  0.00     0.000 HD 
HETATM   36  C   UNL     1      -9.425   3.857  66.248  1.00  0.00    -0.198 A  
HETATM   37  C   UNL     1     -11.098   6.772  67.523  1.00  0.00    -0.265 A  
HETATM   38  C   UNL     1      -8.821   2.830  66.963  1.00  0.00    -0.158 A  
HETATM   39  N   UNL     1     -10.638   6.010  66.497  1.00  0.00    -0.209 NA 
HETATM   40  C   UNL     1      -8.816   2.856  68.357  1.00  0.00    -0.168 A  
HETATM   41  C   UNL     1      -9.433   3.903  69.076  1.00  0.00    -0.240 A  
HETATM   42  C   UNL     1     -10.065   4.960  68.386  1.00  0.00    -0.148 A  
ENDBRANCH  32  33
ENDBRANCH  27  32
ENDBRANCH  24  27
ENDBRANCH  11  23
ENDBRANCH   7  11
TORSDOF 8
ENDMDL
MODEL      143
REMARK 921   NORMALIZED FREE ENERGY PREDICTED BY IDOCK:   -6.49 KCAL/MOL
REMARK 922        TOTAL FREE ENERGY PREDICTED BY IDOCK:  -11.67 KCAL/MOL
REMARK 923 INTER-LIGAND FREE ENERGY PREDICTED BY IDOCK:   -9.47 KCAL/MOL
REMARK 924 INTRA-LIGAND FREE ENERGY PREDICTED BY IDOCK:   -2.20 KCAL/MOL
REMARK 927      BINDING AFFINITY PREDICTED BY RF-SCORE:    0.00 PKD
ROOT
HETATM    1  C   UNL     1      -8.584  19.125  66.239  1.00  0.00    -0.303 C  
HETATM    2  C   UNL     1      -9.996  18.612  66.582  1.00  0.00    -0.365 C  
HETATM    3  C   UNL     1     -10.039  17.677  67.970  1.00  0.00    -0.343 C  
HETATM    4  N   UNL     1     -10.459  17.785  65.430  1.00  0.00    -0.602 NA 
HETATM    5  C   UNL     1     -10.891  19.883  66.599  1.00  0.00    -0.341 C  
HETATM    6  H2  UNL     1      -9.809  17.035  65.191  1.00  0.00     0.000 HD 
HETATM    7  N   UNL     1      -9.811  16.303  67.830  1.00  0.00    -0.235 N  
HETATM    8  H1  UNL     1     -11.394  17.446  65.658  1.00  0.00     0.000 HD 
HETATM    9  O   UNL     1     -10.222  18.181  69.078  1.00  0.00    -0.381 OA 
HETATM   10  H   UNL     1      -9.816  16.001  66.856  1.00  0.00     0.000 HD 
ENDROOT
BRANCH   7  11
HETATM   11  C   UNL     1      -9.549  15.120  68.827  1.00  0.00    -0.219 C  
BRANCH  11  12
HETATM   12  C   UNL     1      -8.177  14.304  68.933  1.00  0.00    -0.053 C  
BRANCH  12  13
HETATM   13  C   UNL     1      -7.950  12.985  68.050  1.00  0.00    -0.155 A  
HETATM   14  C   UNL     1      -8.260  12.770  66.720  1.00  0.00     0.068 A  
HETATM   15  C   UNL     1      -6.337   9.880  69.802  1.00  0.00    -0.054 A  
HETATM   16  C   UNL     1      -6.664   8.945  68.824  1.00  0.00    -0.054 A  
HETATM   17  C   UNL     1      -7.269   9.365  67.639  1.00  0.00    -0.083 A  
HETATM   18  N   UNL     1      -8.055  11.428  66.398  1.00  0.00    -0.283 NA 
HETATM   19  C   UNL     1      -6.680  11.240  69.648  1.00  0.00    -0.122 A  
HETATM   20  C   UNL     1      -7.357  11.696  68.486  1.00  0.00    -0.102 A  
HETATM   21  C   UNL     1      -7.567  10.745  67.486  1.00  0.00    -0.094 A  
HETATM   22  H   UNL     1      -8.240  11.014  65.485  1.00  0.00     0.000 HD 
ENDBRANCH  12  13
ENDBRANCH  11  12
BRANCH  11  23
HETATM   23  C   UNL     1     -10.822  14.230  68.817  1.00  0.00    -0.253 C  
HETATM   24  N   UNL     1     -10.705  12.952  69.326  1.00  0.00    -0.445 N  
HETATM   25  H   UNL     1      -9.851  12.676  69.811  1.00  0.00     0.000 HD 
HETATM   26  O   UNL     1     -11.862  14.639  68.292  1.00  0.00    -0.322 OA 
BRANCH  24  27
HETATM   27  C   UNL     1     -11.784  12.004  69.176  1.00  0.00    -0.330 C  
BRANCH  27  28
HETATM   28  N   UNL     1     -11.363  10.964  68.272  1.00  0.00    -0.290 N  
HETATM   29  O   UNL     1     -11.974  12.081  66.343  1.00  0.00    -0.611 OA 
HETATM   30  C   UNL     1     -11.499  11.108  66.910  1.00  0.00     0.030 C  
HETATM   31  H   UNL     1     -10.956  10.108  68.648  1.00  0.00     0.000 HD 
ENDBRANCH  27  28
BRANCH  27  32
HETATM   32  C   UNL     1     -12.502  11.507  70.449  1.00  0.00    -0.324 C  
BRANCH  32  33
HETATM   33  C   UNL     1     -12.237  10.253  71.266  1.00  0.00    -0.496 A  
HETATM   34  C   UNL     1     -11.607   8.368  72.431  1.00  0.00    -0.380 A  
HETATM   35  H   UNL     1     -13.549   8.018  73.198  1.00  0.00     0.000 HD 
HETATM   36  C   UNL     1     -10.824   7.332  72.965  1.00  0.00    -0.399 A  
HETATM   37  C   UNL     1     -13.322   9.707  71.947  1.00  0.00    -0.438 A  
HETATM   38  C   UNL     1      -9.485   7.280  72.596  1.00  0.00    -0.186 A  
HETATM   39  N   UNL     1     -12.934   8.597  72.626  1.00  0.00    -0.295 NA 
HETATM   40  C   UNL     1      -8.962   8.232  71.721  1.00  0.00    -0.241 A  
HETATM   41  C   UNL     1      -9.761   9.275  71.205  1.00  0.00    -0.327 A  
HETATM   42  C   UNL     1     -11.124   9.367  71.563  1.00  0.00    -0.446 A  
ENDBRANCH  32  33
ENDBRANCH  27  32
ENDBRANCH  24  27
ENDBRANCH  11  23
ENDBRANCH   7  11
TORSDOF 8
ENDMDL
MODEL      144
REMARK 921   NORMALIZED FREE ENERGY PREDICTED BY IDOCK:   -6.49 KCAL/MOL
REMARK 922        TOTAL FREE ENERGY PREDICTED BY IDOCK:  -11.67 KCAL/MOL
REMARK 923 INTER-LIGAND FREE ENERGY PREDICTED BY IDOCK:  -10.02 KCAL/MOL
REMARK 924 INTRA-LIGAND FREE ENERGY PREDICTED BY IDOCK:   -1.64 KCAL/MOL
REMARK 927      BINDING AFFINITY PREDICTED BY RF-SCORE:    0.00 PKD
ROOT
HETATM    1  C   UNL     1     -10.544  12.928  63.505  1.00  0.00    -0.028 C  
HETATM    2  C   UNL     1     -11.251  11.740  64.185  1.00  0.00    -0.364 C  
HETATM    3  C   UNL     1     -11.100  11.750  65.853  1.00  0.00    -0.302 C  
HETATM    4  N   UNL     1     -10.631  10.492  63.654  1.00  0.00    -0.373 NA 
HETATM    5  C   UNL     1     -12.706  11.775  63.641  1.00  0.00    -0.407 C  
HETATM    6  H2  UNL     1      -9.617  10.471  63.766  1.00  0.00     0.000 HD 
HETATM    7  N   UNL     1      -9.979  11.116  66.403  1.00  0.00    -0.210 N  
HETATM    8  H1  UNL     1     -11.100   9.706  64.104  1.00  0.00     0.000 HD 
HETATM    9  O   UNL     1     -11.918  12.327  66.567  1.00  0.00    -0.596 OA 
HETATM   10  H   UNL     1      -9.465  10.563  65.718  1.00  0.00     0.000 HD 
ENDROOT
BRANCH   7  11
HETATM   11  C   UNL     1      -9.332  11.062  67.832  1.00  0.00    -0.158 C  
BRANCH  11  12
HETATM   12  C   UNL     1     -10.155  11.030  69.203  1.00  0.00    -0.167 C  
BRANCH  12  13
HETATM   13  C   UNL     1     -10.607   9.631  69.844  1.00  0.00    -0.281 A  
HETATM   14  C   UNL     1     -10.064   8.375  69.649  1.00  0.00    -0.199 A  
HETATM   15  C   UNL     1     -13.670   9.651  72.278  1.00  0.00    -0.384 A  
HETATM   16  C   UNL     1     -13.896   8.277  72.276  1.00  0.00    -0.287 A  
HETATM   17  C   UNL     1     -13.015   7.431  71.604  1.00  0.00    -0.409 A  
HETATM   18  N   UNL     1     -10.868   7.413  70.260  1.00  0.00    -0.242 NA 
HETATM   19  C   UNL     1     -12.604  10.211  71.542  1.00  0.00    -0.537 A  
HETATM   20  C   UNL     1     -11.725   9.389  70.789  1.00  0.00    -0.349 A  
HETATM   21  C   UNL     1     -11.924   8.012  70.903  1.00  0.00    -0.189 A  
HETATM   22  H   UNL     1     -10.696   6.408  70.233  1.00  0.00     0.000 HD 
ENDBRANCH  12  13
ENDBRANCH  11  12
BRANCH  11  23
HETATM   23  C   UNL     1      -8.139  12.055  67.825  1.00  0.00    -0.149 C  
HETATM   24  N   UNL     1      -8.240  13.172  68.632  1.00  0.00    -0.330 N  
HETATM   25  H   UNL     1      -9.008  13.247  69.300  1.00  0.00     0.000 HD 
HETATM   26  O   UNL     1      -7.188  11.880  67.058  1.00  0.00    -0.144 OA 
BRANCH  24  27
HETATM   27  C   UNL     1      -7.266  14.234  68.536  1.00  0.00    -0.118 C  
BRANCH  27  28
HETATM   28  N   UNL     1      -5.973  13.707  68.891  1.00  0.00    -0.081 N  
HETATM   29  O   UNL     1      -6.249  13.950  71.172  1.00  0.00    -0.126 OA 
HETATM   30  C   UNL     1      -5.581  13.611  70.207  1.00  0.00    -0.135 C  
HETATM   31  H   UNL     1      -5.338  13.400  68.154  1.00  0.00     0.000 HD 
ENDBRANCH  27  28
BRANCH  27  32
HETATM   32  C   UNL     1      -7.281  15.127  67.277  1.00  0.00    -0.197 C  
BRANCH  32  33
HETATM   33  C   UNL     1      -8.392  16.026  66.760  1.00  0.00    -0.305 A  
HETATM   34  C   UNL     1      -9.984  17.562  66.115  1.00  0.00    -0.270 A  
HETATM   35  H   UNL     1     -10.964  16.213  64.810  1.00  0.00     0.000 HD 
HETATM   36  C   UNL     1     -10.715  18.756  66.003  1.00  0.00    -0.337 A  
HETATM   37  C   UNL     1      -9.274  15.467  65.839  1.00  0.00    -0.239 A  
HETATM   38  C   UNL     1     -10.318  19.830  66.791  1.00  0.00    -0.604 A  
HETATM   39  N   UNL     1     -10.206  16.383  65.472  1.00  0.00    -0.558 NA 
HETATM   40  C   UNL     1      -9.234  19.701  67.658  1.00  0.00    -0.416 A  
HETATM   41  C   UNL     1      -8.503  18.497  67.748  1.00  0.00    -0.285 A  
HETATM   42  C   UNL     1      -8.868  17.385  66.957  1.00  0.00    -0.248 A  
ENDBRANCH  32  33
ENDBRANCH  27  32
ENDBRANCH  24  27
ENDBRANCH  11  23
ENDBRANCH   7  11
TORSDOF 8
ENDMDL
MODEL      145
REMARK 921   NORMALIZED FREE ENERGY PREDICTED BY IDOCK:   -6.49 KCAL/MOL
REMARK 922        TOTAL FREE ENERGY PREDICTED BY IDOCK:  -11.67 KCAL/MOL
REMARK 923 INTER-LIGAND FREE ENERGY PREDICTED BY IDOCK:   -9.79 KCAL/MOL
REMARK 924 INTRA-LIGAND FREE ENERGY PREDICTED BY IDOCK:   -1.88 KCAL/MOL
REMARK 927      BINDING AFFINITY PREDICTED BY RF-SCORE:    0.00 PKD
ROOT
HETATM    1  C   UNL     1      -8.350   8.060  64.798  1.00  0.00    -0.086 C  
HETATM    2  C   UNL     1      -8.602   9.579  64.834  1.00  0.00    -0.172 C  
HETATM    3  C   UNL     1      -8.864  10.168  66.379  1.00  0.00    -0.143 C  
HETATM    4  N   UNL     1      -9.814   9.847  64.006  1.00  0.00    -0.467 NA 
HETATM    5  C   UNL     1      -7.401  10.203  64.070  1.00  0.00    -0.110 C  
HETATM    6  H2  UNL     1     -10.625   9.300  64.298  1.00  0.00     0.000 HD 
HETATM    7  N   UNL     1     -10.178  10.158  66.860  1.00  0.00    -0.225 N  
HETATM    8  H1  UNL     1      -9.981  10.853  64.030  1.00  0.00     0.000 HD 
HETATM    9  O   UNL     1      -7.933  10.555  67.083  1.00  0.00    -0.113 OA 
HETATM   10  H   UNL     1     -10.861   9.949  66.132  1.00  0.00     0.000 HD 
ENDROOT
BRANCH   7  11
HETATM   11  C   UNL     1     -10.843  10.395  68.262  1.00  0.00    -0.254 C  
BRANCH  11  12
HETATM   12  C   UNL     1     -10.851  11.792  69.041  1.00  0.00    -0.239 C  
BRANCH  12  13
HETATM   13  C   UNL     1     -11.817  12.010  70.303  1.00  0.00    -0.356 A  
HETATM   14  C   UNL     1     -12.324  11.066  71.176  1.00  0.00    -0.359 A  
HETATM   15  C   UNL     1     -12.983  15.660  71.092  1.00  0.00    -0.539 A  
HETATM   16  C   UNL     1     -14.014  15.323  71.964  1.00  0.00    -0.645 A  
HETATM   17  C   UNL     1     -14.206  13.991  72.328  1.00  0.00    -0.599 A  
HETATM   18  N   UNL     1     -13.259  11.662  72.024  1.00  0.00    -0.495 NA 
HETATM   19  C   UNL     1     -12.174  14.663  70.507  1.00  0.00    -0.389 A  
HETATM   20  C   UNL     1     -12.381  13.289  70.799  1.00  0.00    -0.425 A  
HETATM   21  C   UNL     1     -13.354  13.007  71.759  1.00  0.00    -0.378 A  
HETATM   22  H   UNL     1     -13.795  11.169  72.737  1.00  0.00     0.000 HD 
ENDBRANCH  12  13
ENDBRANCH  11  12
BRANCH  11  23
HETATM   23  C   UNL     1     -10.481   9.172  69.146  1.00  0.00    -0.217 C  
HETATM   24  N   UNL     1     -11.279   8.051  69.035  1.00  0.00    -0.317 N  
HETATM   25  H   UNL     1     -11.981   8.000  68.297  1.00  0.00     0.000 HD 
HETATM   26  O   UNL     1      -9.566   9.251  69.971  1.00  0.00    -0.181 OA 
BRANCH  24  27
HETATM   27  C   UNL     1     -11.126   6.950  69.959  1.00  0.00    -0.299 C  
BRANCH  27  28
HETATM   28  N   UNL     1     -12.291   6.893  70.805  1.00  0.00    -0.541 N  
HETATM   29  O   UNL     1     -11.372   8.117  72.536  1.00  0.00    -0.363 OA 
HETATM   30  C   UNL     1     -12.302   7.499  72.040  1.00  0.00    -0.271 C  
HETATM   31  H   UNL     1     -13.120   6.395  70.483  1.00  0.00     0.000 HD 
ENDBRANCH  27  28
BRANCH  27  32
HETATM   32  C   UNL     1     -10.660   5.589  69.400  1.00  0.00    -0.349 C  
BRANCH  32  33
HETATM   33  C   UNL     1      -9.597   5.302  68.353  1.00  0.00    -0.176 A  
HETATM   34  C   UNL     1      -8.164   4.828  66.611  1.00  0.00    -0.107 A  
HETATM   35  H   UNL     1      -6.421   5.109  67.779  1.00  0.00     0.000 HD 
HETATM   36  C   UNL     1      -7.685   4.496  65.334  1.00  0.00    -0.086 A  
HETATM   37  C   UNL     1      -8.270   5.395  68.765  1.00  0.00    -0.094 A  
HETATM   38  C   UNL     1      -8.622   4.213  64.347  1.00  0.00    -0.115 A  
HETATM   39  N   UNL     1      -7.440   5.111  67.728  1.00  0.00    -0.079 NA 
HETATM   40  C   UNL     1      -9.984   4.258  64.641  1.00  0.00    -0.140 A  
HETATM   41  C   UNL     1     -10.448   4.606  65.928  1.00  0.00    -0.305 A  
HETATM   42  C   UNL     1      -9.528   4.910  66.955  1.00  0.00    -0.156 A  
ENDBRANCH  32  33
ENDBRANCH  27  32
ENDBRANCH  24  27
ENDBRANCH  11  23
ENDBRANCH   7  11
TORSDOF 8
ENDMDL
MODEL      146
REMARK 921   NORMALIZED FREE ENERGY PREDICTED BY IDOCK:   -6.48 KCAL/MOL
REMARK 922        TOTAL FREE ENERGY PREDICTED BY IDOCK:  -11.66 KCAL/MOL
REMARK 923 INTER-LIGAND FREE ENERGY PREDICTED BY IDOCK:   -9.92 KCAL/MOL
REMARK 924 INTRA-LIGAND FREE ENERGY PREDICTED BY IDOCK:   -1.74 KCAL/MOL
REMARK 927      BINDING AFFINITY PREDICTED BY RF-SCORE:    0.00 PKD
ROOT
HETATM    1  C   UNL     1     -12.261  14.484  64.139  1.00  0.00    -0.372 C  
HETATM    2  C   UNL     1     -11.590  13.106  64.301  1.00  0.00    -0.392 C  
HETATM    3  C   UNL     1     -11.308  12.694  65.899  1.00  0.00    -0.334 C  
HETATM    4  N   UNL     1     -10.284  13.161  63.582  1.00  0.00    -0.625 NA 
HETATM    5  C   UNL     1     -12.492  12.125  63.502  1.00  0.00    -0.666 C  
HETATM    6  H2  UNL     1      -9.692  13.933  63.890  1.00  0.00     0.000 HD 
HETATM    7  N   UNL     1     -10.098  13.107  66.469  1.00  0.00    -0.273 N  
HETATM    8  H1  UNL     1      -9.841  12.249  63.689  1.00  0.00     0.000 HD 
HETATM    9  O   UNL     1     -12.148  12.088  66.563  1.00  0.00    -0.617 OA 
HETATM   10  H   UNL     1      -9.442  13.470  65.778  1.00  0.00     0.000 HD 
ENDROOT
BRANCH   7  11
HETATM   11  C   UNL     1      -9.519  13.141  67.927  1.00  0.00    -0.218 C  
BRANCH  11  12
HETATM   12  C   UNL     1      -8.626  14.326  68.525  1.00  0.00    -0.175 C  
BRANCH  12  13
HETATM   13  C   UNL     1      -9.257  15.785  68.741  1.00  0.00    -0.216 A  
HETATM   14  C   UNL     1     -10.177  16.198  69.686  1.00  0.00    -0.243 A  
HETATM   15  C   UNL     1      -8.135  18.631  66.302  1.00  0.00    -0.267 A  
HETATM   16  C   UNL     1      -9.146  19.533  66.619  1.00  0.00    -0.406 A  
HETATM   17  C   UNL     1     -10.042  19.237  67.645  1.00  0.00    -0.485 A  
HETATM   18  N   UNL     1     -10.583  17.503  69.411  1.00  0.00    -0.350 NA 
HETATM   19  C   UNL     1      -8.049  17.381  66.951  1.00  0.00    -0.255 A  
HETATM   20  C   UNL     1      -8.984  17.013  67.954  1.00  0.00    -0.228 A  
HETATM   21  C   UNL     1      -9.913  17.991  68.315  1.00  0.00    -0.371 A  
HETATM   22  H   UNL     1     -11.279  18.022  69.946  1.00  0.00     0.000 HD 
ENDBRANCH  12  13
ENDBRANCH  11  12
BRANCH  11  23
HETATM   23  C   UNL     1      -8.979  11.718  68.232  1.00  0.00    -0.180 C  
HETATM   24  N   UNL     1      -9.849  10.659  68.059  1.00  0.00    -0.157 N  
HETATM   25  H   UNL     1     -10.754  10.815  67.615  1.00  0.00     0.000 HD 
HETATM   26  O   UNL     1      -7.843  11.569  68.692  1.00  0.00    -0.133 OA 
BRANCH  24  27
HETATM   27  C   UNL     1      -9.486   9.334  68.504  1.00  0.00    -0.146 C  
BRANCH  27  28
HETATM   28  N   UNL     1      -9.468   9.320  69.944  1.00  0.00    -0.183 N  
HETATM   29  O   UNL     1     -11.663   9.995  70.203  1.00  0.00    -0.252 OA 
HETATM   30  C   UNL     1     -10.586   9.658  70.672  1.00  0.00    -0.319 C  
HETATM   31  H   UNL     1      -8.613   9.055  70.432  1.00  0.00     0.000 HD 
ENDBRANCH  27  28
BRANCH  27  32
HETATM   32  C   UNL     1     -10.190   8.126  67.850  1.00  0.00    -0.274 C  
BRANCH  32  33
HETATM   33  C   UNL     1      -9.962   6.643  68.093  1.00  0.00    -0.156 A  
HETATM   34  C   UNL     1      -9.647   4.441  68.695  1.00  0.00    -0.149 A  
HETATM   35  H   UNL     1      -9.351   3.789  66.703  1.00  0.00     0.000 HD 
HETATM   36  C   UNL     1      -9.530   3.276  69.470  1.00  0.00    -0.205 A  
HETATM   37  C   UNL     1      -9.728   5.852  66.971  1.00  0.00    -0.141 A  
HETATM   38  C   UNL     1      -9.642   3.406  70.849  1.00  0.00    -0.239 A  
HETATM   39  N   UNL     1      -9.542   4.560  67.343  1.00  0.00    -0.165 NA 
HETATM   40  C   UNL     1      -9.857   4.659  71.420  1.00  0.00    -0.264 A  
HETATM   41  C   UNL     1      -9.984   5.818  70.625  1.00  0.00    -0.251 A  
HETATM   42  C   UNL     1      -9.886   5.727  69.219  1.00  0.00    -0.220 A  
ENDBRANCH  32  33
ENDBRANCH  27  32
ENDBRANCH  24  27
ENDBRANCH  11  23
ENDBRANCH   7  11
TORSDOF 8
ENDMDL
MODEL      147
REMARK 921   NORMALIZED FREE ENERGY PREDICTED BY IDOCK:   -6.48 KCAL/MOL
REMARK 922        TOTAL FREE ENERGY PREDICTED BY IDOCK:  -11.65 KCAL/MOL
REMARK 923 INTER-LIGAND FREE ENERGY PREDICTED BY IDOCK:   -9.31 KCAL/MOL
REMARK 924 INTRA-LIGAND FREE ENERGY PREDICTED BY IDOCK:   -2.34 KCAL/MOL
REMARK 927      BINDING AFFINITY PREDICTED BY RF-SCORE:    0.00 PKD
ROOT
HETATM    1  C   UNL     1      -5.989  11.224  70.500  1.00  0.00    -0.112 C  
HETATM    2  C   UNL     1      -6.992  10.328  69.746  1.00  0.00    -0.129 C  
HETATM    3  C   UNL     1      -7.815  11.137  68.533  1.00  0.00    -0.136 C  
HETATM    4  N   UNL     1      -7.979   9.829  70.746  1.00  0.00    -0.387 NA 
HETATM    5  C   UNL     1      -6.163   9.095  69.290  1.00  0.00    -0.041 C  
HETATM    6  H2  UNL     1      -8.430  10.579  71.271  1.00  0.00     0.000 HD 
HETATM    7  N   UNL     1      -9.000  11.795  68.884  1.00  0.00    -0.386 N  
HETATM    8  H1  UNL     1      -8.642   9.236  70.247  1.00  0.00     0.000 HD 
HETATM    9  O   UNL     1      -7.376  11.189  67.385  1.00  0.00    -0.097 OA 
HETATM   10  H   UNL     1      -9.319  11.554  69.822  1.00  0.00     0.000 HD 
ENDROOT
BRANCH   7  11
HETATM   11  C   UNL     1      -9.950  12.817  68.166  1.00  0.00    -0.229 C  
BRANCH  11  12
HETATM   12  C   UNL     1     -10.990  13.774  68.915  1.00  0.00    -0.281 C  
BRANCH  12  13
HETATM   13  C   UNL     1     -10.765  15.361  68.929  1.00  0.00    -0.244 A  
HETATM   14  C   UNL     1     -10.674  16.213  70.014  1.00  0.00    -0.318 A  
HETATM   15  C   UNL     1     -10.446  17.184  65.481  1.00  0.00    -0.158 A  
HETATM   16  C   UNL     1     -10.627  18.479  65.957  1.00  0.00    -0.368 A  
HETATM   17  C   UNL     1     -10.728  18.705  67.329  1.00  0.00    -0.449 A  
HETATM   18  N   UNL     1     -10.651  17.536  69.576  1.00  0.00    -0.301 NA 
HETATM   19  C   UNL     1     -10.442  16.082  66.362  1.00  0.00    -0.313 A  
HETATM   20  C   UNL     1     -10.611  16.263  67.760  1.00  0.00    -0.314 A  
HETATM   21  C   UNL     1     -10.680  17.585  68.203  1.00  0.00    -0.329 A  
HETATM   22  H   UNL     1     -10.617  18.352  70.187  1.00  0.00     0.000 HD 
ENDBRANCH  12  13
ENDBRANCH  11  12
BRANCH  11  23
HETATM   23  C   UNL     1     -10.528  12.097  66.918  1.00  0.00    -0.225 C  
HETATM   24  N   UNL     1      -9.901  12.325  65.708  1.00  0.00    -0.251 N  
HETATM   25  H   UNL     1      -9.017  12.831  65.684  1.00  0.00     0.000 HD 
HETATM   26  O   UNL     1     -11.557  11.423  67.011  1.00  0.00    -0.510 OA 
BRANCH  24  27
HETATM   27  C   UNL     1     -10.492  11.850  64.479  1.00  0.00    -0.296 C  
BRANCH  27  28
HETATM   28  N   UNL     1     -10.921  12.986  63.704  1.00  0.00    -0.558 N  
HETATM   29  O   UNL     1     -13.118  12.299  63.497  1.00  0.00    -0.766 OA 
HETATM   30  C   UNL     1     -12.225  13.105  63.280  1.00  0.00    -0.360 C  
HETATM   31  H   UNL     1     -10.248  13.714  63.466  1.00  0.00     0.000 HD 
ENDBRANCH  27  28
BRANCH  27  32
HETATM   32  C   UNL     1      -9.739  10.764  63.679  1.00  0.00    -0.376 C  
BRANCH  32  33
HETATM   33  C   UNL     1      -8.805   9.680  64.190  1.00  0.00    -0.257 A  
HETATM   34  C   UNL     1      -7.548   7.998  65.141  1.00  0.00    -0.098 A  
HETATM   35  H   UNL     1      -6.005   8.142  63.699  1.00  0.00     0.000 HD 
HETATM   36  C   UNL     1      -7.133   6.970  66.001  1.00  0.00    -0.073 A  
HETATM   37  C   UNL     1      -7.634   9.469  63.467  1.00  0.00    -0.118 A  
HETATM   38  C   UNL     1      -7.946   6.673  67.089  1.00  0.00    -0.109 A  
HETATM   39  N   UNL     1      -6.904   8.478  64.041  1.00  0.00    -0.075 NA 
HETATM   40  C   UNL     1      -9.123   7.389  67.299  1.00  0.00    -0.135 A  
HETATM   41  C   UNL     1      -9.531   8.412  66.416  1.00  0.00    -0.293 A  
HETATM   42  C   UNL     1      -8.738   8.737  65.295  1.00  0.00    -0.216 A  
ENDBRANCH  32  33
ENDBRANCH  27  32
ENDBRANCH  24  27
ENDBRANCH  11  23
ENDBRANCH   7  11
TORSDOF 8
ENDMDL
MODEL      148
REMARK 921   NORMALIZED FREE ENERGY PREDICTED BY IDOCK:   -6.47 KCAL/MOL
REMARK 922        TOTAL FREE ENERGY PREDICTED BY IDOCK:  -11.65 KCAL/MOL
REMARK 923 INTER-LIGAND FREE ENERGY PREDICTED BY IDOCK:  -10.27 KCAL/MOL
REMARK 924 INTRA-LIGAND FREE ENERGY PREDICTED BY IDOCK:   -1.38 KCAL/MOL
REMARK 927      BINDING AFFINITY PREDICTED BY RF-SCORE:    0.00 PKD
ROOT
HETATM    1  C   UNL     1     -14.395  15.001  71.208  1.00  0.00    -0.503 C  
HETATM    2  C   UNL     1     -13.017  14.610  71.774  1.00  0.00    -0.335 C  
HETATM    3  C   UNL     1     -11.753  15.461  71.080  1.00  0.00    -0.364 C  
HETATM    4  N   UNL     1     -12.823  13.156  71.503  1.00  0.00    -0.347 NA 
HETATM    5  C   UNL     1     -13.160  14.756  73.314  1.00  0.00    -0.550 C  
HETATM    6  H2  UNL     1     -12.933  12.915  70.517  1.00  0.00     0.000 HD 
HETATM    7  N   UNL     1     -11.182  14.933  69.915  1.00  0.00    -0.268 N  
HETATM    8  H1  UNL     1     -11.910  12.897  71.878  1.00  0.00     0.000 HD 
HETATM    9  O   UNL     1     -11.367  16.531  71.548  1.00  0.00    -0.257 OA 
HETATM   10  H   UNL     1     -11.496  13.983  69.720  1.00  0.00     0.000 HD 
ENDROOT
BRANCH   7  11
HETATM   11  C   UNL     1     -10.170  15.468  68.842  1.00  0.00    -0.210 C  
BRANCH  11  12
HETATM   12  C   UNL     1      -9.795  17.009  68.633  1.00  0.00    -0.290 C  
BRANCH  12  13
HETATM   13  C   UNL     1      -8.259  17.467  68.569  1.00  0.00    -0.268 A  
HETATM   14  C   UNL     1      -7.133  16.778  68.981  1.00  0.00    -0.221 A  
HETATM   15  C   UNL     1      -7.476  21.006  67.095  1.00  0.00    -0.257 A  
HETATM   16  C   UNL     1      -6.166  21.096  67.559  1.00  0.00    -0.429 A  
HETATM   17  C   UNL     1      -5.583  20.006  68.204  1.00  0.00    -0.233 A  
HETATM   18  N   UNL     1      -6.016  17.610  68.904  1.00  0.00    -0.184 NA 
HETATM   19  C   UNL     1      -8.253  19.854  67.338  1.00  0.00    -0.356 A  
HETATM   20  C   UNL     1      -7.718  18.748  68.052  1.00  0.00    -0.286 A  
HETATM   21  C   UNL     1      -6.370  18.839  68.402  1.00  0.00    -0.216 A  
HETATM   22  H   UNL     1      -5.072  17.344  69.181  1.00  0.00     0.000 HD 
ENDBRANCH  12  13
ENDBRANCH  11  12
BRANCH  11  23
HETATM   23  C   UNL     1     -10.456  14.696  67.526  1.00  0.00    -0.247 C  
HETATM   24  N   UNL     1     -11.645  13.996  67.448  1.00  0.00    -0.347 N  
HETATM   25  H   UNL     1     -12.350  14.113  68.176  1.00  0.00     0.000 HD 
HETATM   26  O   UNL     1      -9.605  14.651  66.634  1.00  0.00    -0.252 OA 
BRANCH  24  27
HETATM   27  C   UNL     1     -11.895  13.101  66.342  1.00  0.00    -0.400 C  
BRANCH  27  28
HETATM   28  N   UNL     1     -11.585  13.788  65.114  1.00  0.00    -0.321 N  
HETATM   29  O   UNL     1     -13.020  12.547  63.794  1.00  0.00    -0.733 OA 
HETATM   30  C   UNL     1     -12.195  13.437  63.931  1.00  0.00    -0.415 C  
HETATM   31  H   UNL     1     -10.903  14.546  65.122  1.00  0.00     0.000 HD 
ENDBRANCH  27  28
BRANCH  27  32
HETATM   32  C   UNL     1     -11.354  11.658  66.435  1.00  0.00    -0.312 C  
BRANCH  32  33
HETATM   33  C   UNL     1     -10.044  11.095  65.908  1.00  0.00    -0.296 A  
HETATM   34  C   UNL     1      -7.950  10.363  65.285  1.00  0.00    -0.143 A  
HETATM   35  H   UNL     1      -8.678   9.207  63.668  1.00  0.00     0.000 HD 
HETATM   36  C   UNL     1      -6.560  10.167  65.262  1.00  0.00    -0.119 A  
HETATM   37  C   UNL     1     -10.124  10.251  64.803  1.00  0.00    -0.266 A  
HETATM   38  C   UNL     1      -5.798  10.847  66.204  1.00  0.00    -0.145 A  
HETATM   39  N   UNL     1      -8.883   9.831  64.448  1.00  0.00    -0.211 NA 
HETATM   40  C   UNL     1      -6.415  11.692  67.126  1.00  0.00    -0.137 A  
HETATM   41  C   UNL     1      -7.815  11.867  67.143  1.00  0.00    -0.168 A  
HETATM   42  C   UNL     1      -8.625  11.186  66.208  1.00  0.00    -0.180 A  
ENDBRANCH  32  33
ENDBRANCH  27  32
ENDBRANCH  24  27
ENDBRANCH  11  23
ENDBRANCH   7  11
TORSDOF 8
ENDMDL
MODEL      149
REMARK 921   NORMALIZED FREE ENERGY PREDICTED BY IDOCK:   -6.47 KCAL/MOL
REMARK 922        TOTAL FREE ENERGY PREDICTED BY IDOCK:  -11.64 KCAL/MOL
REMARK 923 INTER-LIGAND FREE ENERGY PREDICTED BY IDOCK:  -10.02 KCAL/MOL
REMARK 924 INTRA-LIGAND FREE ENERGY PREDICTED BY IDOCK:   -1.62 KCAL/MOL
REMARK 927      BINDING AFFINITY PREDICTED BY RF-SCORE:    0.00 PKD
ROOT
HETATM    1  C   UNL     1     -12.096  14.363  63.894  1.00  0.00    -0.190 C  
HETATM    2  C   UNL     1     -11.534  12.954  64.166  1.00  0.00    -0.396 C  
HETATM    3  C   UNL     1     -11.368  12.614  65.796  1.00  0.00    -0.333 C  
HETATM    4  N   UNL     1     -10.190  12.882  63.521  1.00  0.00    -0.638 NA 
HETATM    5  C   UNL     1     -12.458  11.993  63.368  1.00  0.00    -0.625 C  
HETATM    6  H2  UNL     1      -9.563  13.628  63.822  1.00  0.00     0.000 HD 
HETATM    7  N   UNL     1     -10.165  12.976  66.413  1.00  0.00    -0.273 N  
HETATM    8  H1  UNL     1      -9.818  11.949  63.701  1.00  0.00     0.000 HD 
HETATM    9  O   UNL     1     -12.283  12.103  66.441  1.00  0.00    -0.592 OA 
HETATM   10  H   UNL     1      -9.449  13.255  65.743  1.00  0.00     0.000 HD 
ENDROOT
BRANCH   7  11
HETATM   11  C   UNL     1      -9.664  13.051  67.898  1.00  0.00    -0.218 C  
BRANCH  11  12
HETATM   12  C   UNL     1      -8.754  14.224  68.494  1.00  0.00    -0.175 C  
BRANCH  12  13
HETATM   13  C   UNL     1      -9.387  15.666  68.797  1.00  0.00    -0.213 A  
HETATM   14  C   UNL     1     -10.290  16.024  69.781  1.00  0.00    -0.265 A  
HETATM   15  C   UNL     1      -8.330  18.640  66.486  1.00  0.00    -0.304 A  
HETATM   16  C   UNL     1      -9.338  19.519  66.869  1.00  0.00    -0.424 A  
HETATM   17  C   UNL     1     -10.212  19.165  67.897  1.00  0.00    -0.494 A  
HETATM   18  N   UNL     1     -10.708  17.339  69.581  1.00  0.00    -0.300 NA 
HETATM   19  C   UNL     1      -8.224  17.359  67.068  1.00  0.00    -0.240 A  
HETATM   20  C   UNL     1      -9.137  16.934  68.070  1.00  0.00    -0.234 A  
HETATM   21  C   UNL     1     -10.063  17.886  68.498  1.00  0.00    -0.391 A  
HETATM   22  H   UNL     1     -11.396  17.825  70.157  1.00  0.00     0.000 HD 
ENDBRANCH  12  13
ENDBRANCH  11  12
BRANCH  11  23
HETATM   23  C   UNL     1      -9.204  11.622  68.293  1.00  0.00    -0.187 C  
HETATM   24  N   UNL     1     -10.178  10.649  68.397  1.00  0.00    -0.166 N  
HETATM   25  H   UNL     1     -11.128  10.848  68.085  1.00  0.00     0.000 HD 
HETATM   26  O   UNL     1      -8.023  11.407  68.583  1.00  0.00    -0.135 OA 
BRANCH  24  27
HETATM   27  C   UNL     1      -9.859   9.351  68.945  1.00  0.00    -0.171 C  
BRANCH  27  28
HETATM   28  N   UNL     1      -8.812   8.760  68.151  1.00  0.00    -0.141 N  
HETATM   29  O   UNL     1     -10.142   8.325  66.312  1.00  0.00    -0.215 OA 
HETATM   30  C   UNL     1      -9.060   8.295  66.880  1.00  0.00    -0.150 C  
HETATM   31  H   UNL     1      -7.872   8.685  68.538  1.00  0.00     0.000 HD 
ENDBRANCH  27  28
BRANCH  27  32
HETATM   32  C   UNL     1      -9.666   9.230  70.472  1.00  0.00    -0.316 C  
BRANCH  32  33
HETATM   33  C   UNL     1      -9.997   8.062  71.386  1.00  0.00    -0.221 A  
HETATM   34  C   UNL     1     -10.421   6.147  72.596  1.00  0.00    -0.208 A  
HETATM   35  H   UNL     1     -11.162   7.202  74.275  1.00  0.00     0.000 HD 
HETATM   36  C   UNL     1     -10.509   4.795  72.960  1.00  0.00    -0.258 A  
HETATM   37  C   UNL     1     -10.525   8.374  72.636  1.00  0.00    -0.247 A  
HETATM   38  C   UNL     1     -10.120   3.847  72.021  1.00  0.00    -0.220 A  
HETATM   39  N   UNL     1     -10.771   7.236  73.334  1.00  0.00    -0.387 NA 
HETATM   40  C   UNL     1      -9.668   4.251  70.765  1.00  0.00    -0.274 A  
HETATM   41  C   UNL     1      -9.574   5.617  70.420  1.00  0.00    -0.217 A  
HETATM   42  C   UNL     1      -9.951   6.609  71.351  1.00  0.00    -0.198 A  
ENDBRANCH  32  33
ENDBRANCH  27  32
ENDBRANCH  24  27
ENDBRANCH  11  23
ENDBRANCH   7  11
TORSDOF 8
ENDMDL
MODEL      150
REMARK 921   NORMALIZED FREE ENERGY PREDICTED BY IDOCK:   -6.47 KCAL/MOL
REMARK 922        TOTAL FREE ENERGY PREDICTED BY IDOCK:  -11.64 KCAL/MOL
REMARK 923 INTER-LIGAND FREE ENERGY PREDICTED BY IDOCK:   -9.04 KCAL/MOL
REMARK 924 INTRA-LIGAND FREE ENERGY PREDICTED BY IDOCK:   -2.60 KCAL/MOL
REMARK 927      BINDING AFFINITY PREDICTED BY RF-SCORE:    0.00 PKD
ROOT
HETATM    1  C   UNL     1     -10.124   7.975  71.993  1.00  0.00    -0.280 C  
HETATM    2  C   UNL     1     -10.901   7.481  70.757  1.00  0.00    -0.242 C  
HETATM    3  C   UNL     1     -10.208   7.957  69.309  1.00  0.00    -0.216 C  
HETATM    4  N   UNL     1     -12.277   8.051  70.842  1.00  0.00    -0.489 NA 
HETATM    5  C   UNL     1     -11.046   5.947  70.962  1.00  0.00    -0.315 C  
HETATM    6  H2  UNL     1     -12.282   9.067  70.938  1.00  0.00     0.000 HD 
HETATM    7  N   UNL     1     -10.593   9.197  68.786  1.00  0.00    -0.307 N  
HETATM    8  H1  UNL     1     -12.791   7.724  70.024  1.00  0.00     0.000 HD 
HETATM    9  O   UNL     1      -9.361   7.265  68.746  1.00  0.00    -0.144 OA 
HETATM   10  H   UNL     1     -11.397   9.595  69.271  1.00  0.00     0.000 HD 
ENDROOT
BRANCH   7  11
HETATM   11  C   UNL     1     -10.073  10.114  67.624  1.00  0.00    -0.190 C  
BRANCH  11  12
HETATM   12  C   UNL     1      -9.984   9.676  66.088  1.00  0.00    -0.346 C  
BRANCH  12  13
HETATM   13  C   UNL     1     -10.433  10.691  64.930  1.00  0.00    -0.282 A  
HETATM   14  C   UNL     1     -10.127  10.655  63.582  1.00  0.00    -0.245 A  
HETATM   15  C   UNL     1     -12.673  13.734  65.944  1.00  0.00    -0.452 A  
HETATM   16  C   UNL     1     -12.501  14.468  64.774  1.00  0.00    -0.333 A  
HETATM   17  C   UNL     1     -11.788  13.918  63.710  1.00  0.00    -0.234 A  
HETATM   18  N   UNL     1     -10.576  11.822  62.964  1.00  0.00    -0.682 NA 
HETATM   19  C   UNL     1     -12.069  12.469  66.101  1.00  0.00    -0.357 A  
HETATM   20  C   UNL     1     -11.278  11.903  65.067  1.00  0.00    -0.350 A  
HETATM   21  C   UNL     1     -11.222  12.625  63.873  1.00  0.00    -0.442 A  
HETATM   22  H   UNL     1     -10.444  12.047  61.979  1.00  0.00     0.000 HD 
ENDBRANCH  12  13
ENDBRANCH  11  12
BRANCH  11  23
HETATM   23  C   UNL     1      -8.808  10.842  68.154  1.00  0.00    -0.133 C  
HETATM   24  N   UNL     1      -8.075  11.581  67.247  1.00  0.00    -0.145 N  
HETATM   25  H   UNL     1      -8.445  11.744  66.311  1.00  0.00     0.000 HD 
HETATM   26  O   UNL     1      -8.443  10.682  69.323  1.00  0.00    -0.150 OA 
BRANCH  24  27
HETATM   27  C   UNL     1      -6.789  12.125  67.616  1.00  0.00    -0.119 C  
BRANCH  27  28
HETATM   28  N   UNL     1      -5.804  11.660  66.674  1.00  0.00    -0.222 N  
HETATM   29  O   UNL     1      -5.675   9.514  67.522  1.00  0.00    -0.041 OA 
HETATM   30  C   UNL     1      -5.333  10.367  66.717  1.00  0.00    -0.043 C  
HETATM   31  H   UNL     1      -5.450  12.299  65.962  1.00  0.00     0.000 HD 
ENDBRANCH  27  28
BRANCH  27  32
HETATM   32  C   UNL     1      -6.703  13.627  67.960  1.00  0.00    -0.141 C  
BRANCH  32  33
HETATM   33  C   UNL     1      -7.782  14.693  67.856  1.00  0.00    -0.149 A  
HETATM   34  C   UNL     1      -9.560  16.158  67.822  1.00  0.00    -0.223 A  
HETATM   35  H   UNL     1      -8.507  17.635  66.730  1.00  0.00     0.000 HD 
HETATM   36  C   UNL     1     -10.830  16.716  68.039  1.00  0.00    -0.337 A  
HETATM   37  C   UNL     1      -7.445  15.863  67.180  1.00  0.00    -0.227 A  
HETATM   38  C   UNL     1     -11.768  15.942  68.711  1.00  0.00    -0.355 A  
HETATM   39  N   UNL     1      -8.503  16.713  67.168  1.00  0.00    -0.182 NA 
HETATM   40  C   UNL     1     -11.438  14.658  69.141  1.00  0.00    -0.320 A  
HETATM   41  C   UNL     1     -10.152  14.117  68.926  1.00  0.00    -0.155 A  
HETATM   42  C   UNL     1      -9.168  14.876  68.255  1.00  0.00    -0.187 A  
ENDBRANCH  32  33
ENDBRANCH  27  32
ENDBRANCH  24  27
ENDBRANCH  11  23
ENDBRANCH   7  11
TORSDOF 8
ENDMDL
MODEL      151
REMARK 921   NORMALIZED FREE ENERGY PREDICTED BY IDOCK:   -6.47 KCAL/MOL
REMARK 922        TOTAL FREE ENERGY PREDICTED BY IDOCK:  -11.64 KCAL/MOL
REMARK 923 INTER-LIGAND FREE ENERGY PREDICTED BY IDOCK:   -8.72 KCAL/MOL
REMARK 924 INTRA-LIGAND FREE ENERGY PREDICTED BY IDOCK:   -2.91 KCAL/MOL
REMARK 927      BINDING AFFINITY PREDICTED BY RF-SCORE:    0.00 PKD
ROOT
HETATM    1  C   UNL     1     -11.825  12.888  66.187  1.00  0.00    -0.487 C  
HETATM    2  C   UNL     1     -10.909  13.029  64.956  1.00  0.00    -0.308 C  
HETATM    3  C   UNL     1     -10.139  11.602  64.541  1.00  0.00    -0.278 C  
HETATM    4  N   UNL     1      -9.877  14.054  65.286  1.00  0.00    -0.579 NA 
HETATM    5  C   UNL     1     -11.812  13.651  63.854  1.00  0.00    -0.419 C  
HETATM    6  H2  UNL     1      -9.365  13.842  66.143  1.00  0.00     0.000 HD 
HETATM    7  N   UNL     1      -8.909  11.330  65.152  1.00  0.00    -0.383 N  
HETATM    8  H1  UNL     1      -9.271  14.147  64.471  1.00  0.00     0.000 HD 
HETATM    9  O   UNL     1     -10.650  10.800  63.760  1.00  0.00    -0.287 OA 
HETATM   10  H   UNL     1      -8.538  12.132  65.660  1.00  0.00     0.000 HD 
ENDROOT
BRANCH   7  11
HETATM   11  C   UNL     1      -7.971  10.075  65.236  1.00  0.00    -0.143 C  
BRANCH  11  12
HETATM   12  C   UNL     1      -8.387   8.596  64.790  1.00  0.00    -0.167 C  
BRANCH  12  13
HETATM   13  C   UNL     1      -8.231   7.368  65.809  1.00  0.00    -0.135 A  
HETATM   14  C   UNL     1      -7.240   6.405  65.858  1.00  0.00    -0.078 A  
HETATM   15  C   UNL     1     -10.985   6.921  68.553  1.00  0.00    -0.198 A  
HETATM   16  C   UNL     1     -10.648   5.621  68.919  1.00  0.00    -0.303 A  
HETATM   17  C   UNL     1      -9.523   5.014  68.364  1.00  0.00    -0.178 A  
HETATM   18  N   UNL     1      -7.581   5.424  66.790  1.00  0.00    -0.088 NA 
HETATM   19  C   UNL     1     -10.248   7.609  67.566  1.00  0.00    -0.294 A  
HETATM   20  C   UNL     1      -9.136   7.000  66.926  1.00  0.00    -0.156 A  
HETATM   21  C   UNL     1      -8.770   5.740  67.402  1.00  0.00    -0.107 A  
HETATM   22  H   UNL     1      -7.026   4.592  66.988  1.00  0.00     0.000 HD 
ENDBRANCH  12  13
ENDBRANCH  11  12
BRANCH  11  23
HETATM   23  C   UNL     1      -7.241  10.147  66.604  1.00  0.00    -0.105 C  
HETATM   24  N   UNL     1      -8.023  10.300  67.733  1.00  0.00    -0.102 N  
HETATM   25  H   UNL     1      -9.037  10.223  67.660  1.00  0.00     0.000 HD 
HETATM   26  O   UNL     1      -6.008  10.153  66.652  1.00  0.00    -0.056 OA 
BRANCH  24  27
HETATM   27  C   UNL     1      -7.413  10.569  69.014  1.00  0.00    -0.112 C  
BRANCH  27  28
HETATM   28  N   UNL     1      -7.627  11.954  69.346  1.00  0.00    -0.329 N  
HETATM   29  O   UNL     1      -5.575  12.689  68.578  1.00  0.00    -0.054 OA 
HETATM   30  C   UNL     1      -6.665  12.903  69.087  1.00  0.00    -0.086 C  
HETATM   31  H   UNL     1      -8.506  12.236  69.779  1.00  0.00     0.000 HD 
ENDBRANCH  27  28
BRANCH  27  32
HETATM   32  C   UNL     1      -7.671   9.576  70.168  1.00  0.00    -0.161 C  
BRANCH  32  33
HETATM   33  C   UNL     1      -8.981   9.242  70.863  1.00  0.00    -0.273 A  
HETATM   34  C   UNL     1     -11.069   8.899  71.774  1.00  0.00    -0.363 A  
HETATM   35  H   UNL     1     -10.390   7.429  73.138  1.00  0.00     0.000 HD 
HETATM   36  C   UNL     1     -12.448   9.000  72.021  1.00  0.00    -0.460 A  
HETATM   37  C   UNL     1      -8.931   8.273  71.862  1.00  0.00    -0.187 A  
HETATM   38  C   UNL     1     -13.167   9.934  71.285  1.00  0.00    -0.465 A  
HETATM   39  N   UNL     1     -10.168   8.085  72.390  1.00  0.00    -0.255 NA 
HETATM   40  C   UNL     1     -12.519  10.734  70.345  1.00  0.00    -0.430 A  
HETATM   41  C   UNL     1     -11.134  10.610  70.102  1.00  0.00    -0.341 A  
HETATM   42  C   UNL     1     -10.370   9.666  70.822  1.00  0.00    -0.356 A  
ENDBRANCH  32  33
ENDBRANCH  27  32
ENDBRANCH  24  27
ENDBRANCH  11  23
ENDBRANCH   7  11
TORSDOF 8
ENDMDL
MODEL      152
REMARK 921   NORMALIZED FREE ENERGY PREDICTED BY IDOCK:   -6.45 KCAL/MOL
REMARK 922        TOTAL FREE ENERGY PREDICTED BY IDOCK:  -11.61 KCAL/MOL
REMARK 923 INTER-LIGAND FREE ENERGY PREDICTED BY IDOCK:   -9.51 KCAL/MOL
REMARK 924 INTRA-LIGAND FREE ENERGY PREDICTED BY IDOCK:   -2.11 KCAL/MOL
REMARK 927      BINDING AFFINITY PREDICTED BY RF-SCORE:    0.00 PKD
ROOT
HETATM    1  C   UNL     1      -9.243   3.282  66.098  1.00  0.00    -0.155 C  
HETATM    2  C   UNL     1      -9.635   4.394  65.106  1.00  0.00    -0.178 C  
HETATM    3  C   UNL     1      -8.803   5.825  65.357  1.00  0.00    -0.085 C  
HETATM    4  N   UNL     1     -11.094   4.649  65.281  1.00  0.00    -0.943 NA 
HETATM    5  C   UNL     1      -9.464   3.754  63.700  1.00  0.00    -0.141 C  
HETATM    6  H2  UNL     1     -11.349   4.867  66.245  1.00  0.00     0.000 HD 
HETATM    7  N   UNL     1      -9.352   6.741  66.263  1.00  0.00    -0.297 N  
HETATM    8  H1  UNL     1     -11.353   5.385  64.623  1.00  0.00     0.000 HD 
HETATM    9  O   UNL     1      -7.729   6.049  64.801  1.00  0.00    -0.087 OA 
HETATM   10  H   UNL     1     -10.303   6.498  66.539  1.00  0.00     0.000 HD 
ENDROOT
BRANCH   7  11
HETATM   11  C   UNL     1      -8.840   8.056  66.950  1.00  0.00    -0.132 C  
BRANCH  11  12
HETATM   12  C   UNL     1      -8.058   8.109  68.344  1.00  0.00    -0.128 C  
BRANCH  12  13
HETATM   13  C   UNL     1      -8.705   7.459  69.661  1.00  0.00    -0.137 A  
HETATM   14  C   UNL     1      -8.446   6.228  70.234  1.00  0.00    -0.134 A  
HETATM   15  C   UNL     1     -11.415   9.536  71.571  1.00  0.00    -0.466 A  
HETATM   16  C   UNL     1     -11.907   8.494  72.352  1.00  0.00    -0.437 A  
HETATM   17  C   UNL     1     -11.291   7.245  72.307  1.00  0.00    -0.310 A  
HETATM   18  N   UNL     1      -9.352   5.989  71.268  1.00  0.00    -0.156 NA 
HETATM   19  C   UNL     1     -10.348   9.327  70.672  1.00  0.00    -0.326 A  
HETATM   20  C   UNL     1      -9.737   8.051  70.547  1.00  0.00    -0.179 A  
HETATM   21  C   UNL     1     -10.191   7.066  71.426  1.00  0.00    -0.196 A  
HETATM   22  H   UNL     1      -9.386   5.137  71.826  1.00  0.00     0.000 HD 
ENDBRANCH  12  13
ENDBRANCH  11  12
BRANCH  11  23
HETATM   23  C   UNL     1      -9.973   9.108  66.813  1.00  0.00    -0.254 C  
HETATM   24  N   UNL     1      -9.600  10.436  66.756  1.00  0.00    -0.167 N  
HETATM   25  H   UNL     1      -8.615  10.682  66.665  1.00  0.00     0.000 HD 
HETATM   26  O   UNL     1     -11.156   8.756  66.843  1.00  0.00     0.114 OA 
BRANCH  24  27
HETATM   27  C   UNL     1     -10.598  11.479  66.823  1.00  0.00    -0.250 C  
BRANCH  27  28
HETATM   28  N   UNL     1     -11.425  11.403  65.646  1.00  0.00    -0.013 N  
HETATM   29  O   UNL     1     -10.326  13.076  64.490  1.00  0.00    -0.366 OA 
HETATM   30  C   UNL     1     -11.201  12.227  64.566  1.00  0.00    -0.326 C  
HETATM   31  H   UNL     1     -12.188  10.728  65.612  1.00  0.00     0.000 HD 
ENDBRANCH  27  28
BRANCH  27  32
HETATM   32  C   UNL     1     -11.368  11.668  68.148  1.00  0.00    -0.358 C  
BRANCH  32  33
HETATM   33  C   UNL     1     -11.407  12.881  69.063  1.00  0.00    -0.341 A  
HETATM   34  C   UNL     1     -11.613  14.592  70.592  1.00  0.00    -0.250 A  
HETATM   35  H   UNL     1     -10.343  15.899  69.516  1.00  0.00     0.000 HD 
HETATM   36  C   UNL     1     -11.997  15.326  71.726  1.00  0.00    -0.453 A  
HETATM   37  C   UNL     1     -10.657  13.987  68.671  1.00  0.00    -0.257 A  
HETATM   38  C   UNL     1     -12.879  14.724  72.615  1.00  0.00    -0.496 A  
HETATM   39  N   UNL     1     -10.792  14.986  69.581  1.00  0.00    -0.264 NA 
HETATM   40  C   UNL     1     -13.358  13.438  72.365  1.00  0.00    -0.629 A  
HETATM   41  C   UNL     1     -12.951  12.710  71.226  1.00  0.00    -0.306 A  
HETATM   42  C   UNL     1     -12.049  13.284  70.304  1.00  0.00    -0.405 A  
ENDBRANCH  32  33
ENDBRANCH  27  32
ENDBRANCH  24  27
ENDBRANCH  11  23
ENDBRANCH   7  11
TORSDOF 8
ENDMDL
MODEL      153
REMARK 921   NORMALIZED FREE ENERGY PREDICTED BY IDOCK:   -6.43 KCAL/MOL
REMARK 922        TOTAL FREE ENERGY PREDICTED BY IDOCK:  -11.58 KCAL/MOL
REMARK 923 INTER-LIGAND FREE ENERGY PREDICTED BY IDOCK:  -10.29 KCAL/MOL
REMARK 924 INTRA-LIGAND FREE ENERGY PREDICTED BY IDOCK:   -1.29 KCAL/MOL
REMARK 927      BINDING AFFINITY PREDICTED BY RF-SCORE:    0.00 PKD
ROOT
HETATM    1  C   UNL     1     -10.406   7.713  72.969  1.00  0.00    -0.393 C  
HETATM    2  C   UNL     1     -11.372   7.307  71.839  1.00  0.00    -0.254 C  
HETATM    3  C   UNL     1     -10.946   7.938  70.349  1.00  0.00    -0.249 C  
HETATM    4  N   UNL     1     -12.724   7.817  72.209  1.00  0.00    -0.514 NA 
HETATM    5  C   UNL     1     -11.450   5.756  71.917  1.00  0.00    -0.231 C  
HETATM    6  H2  UNL     1     -12.734   8.819  72.401  1.00  0.00     0.000 HD 
HETATM    7  N   UNL     1     -11.439   9.205  70.019  1.00  0.00    -0.439 N  
HETATM    8  H1  UNL     1     -13.364   7.548  71.461  1.00  0.00     0.000 HD 
HETATM    9  O   UNL     1     -10.194   7.331  69.587  1.00  0.00    -0.199 OA 
HETATM   10  H   UNL     1     -12.156   9.529  70.668  1.00  0.00     0.000 HD 
ENDROOT
BRANCH   7  11
HETATM   11  C   UNL     1     -11.143  10.244  68.880  1.00  0.00    -0.231 C  
BRANCH  11  12
HETATM   12  C   UNL     1      -9.795  10.294  68.022  1.00  0.00    -0.171 C  
BRANCH  12  13
HETATM   13  C   UNL     1      -9.852  10.529  66.436  1.00  0.00    -0.260 A  
HETATM   14  C   UNL     1     -10.686  11.363  65.715  1.00  0.00    -0.251 A  
HETATM   15  C   UNL     1      -7.359   8.501  64.205  1.00  0.00    -0.102 A  
HETATM   16  C   UNL     1      -7.989   8.739  62.988  1.00  0.00    -0.161 A  
HETATM   17  C   UNL     1      -9.084   9.601  62.931  1.00  0.00    -0.241 A  
HETATM   18  N   UNL     1     -10.518  11.133  64.350  1.00  0.00    -0.338 NA 
HETATM   19  C   UNL     1      -7.858   9.058  65.402  1.00  0.00    -0.101 A  
HETATM   20  C   UNL     1      -9.012   9.886  65.396  1.00  0.00    -0.220 A  
HETATM   21  C   UNL     1      -9.546  10.185  64.142  1.00  0.00    -0.272 A  
HETATM   22  H   UNL     1     -11.042  11.602  63.612  1.00  0.00     0.000 HD 
ENDBRANCH  12  13
ENDBRANCH  11  12
BRANCH  11  23
HETATM   23  C   UNL     1     -11.626  11.627  69.393  1.00  0.00    -0.327 C  
HETATM   24  N   UNL     1     -11.428  12.714  68.564  1.00  0.00    -0.286 N  
HETATM   25  H   UNL     1     -11.108  12.570  67.607  1.00  0.00     0.000 HD 
HETATM   26  O   UNL     1     -12.087  11.742  70.532  1.00  0.00    -0.363 OA 
BRANCH  24  27
HETATM   27  C   UNL     1     -11.671  14.054  69.046  1.00  0.00    -0.330 C  
BRANCH  27  28
HETATM   28  N   UNL     1     -10.675  14.376  70.035  1.00  0.00    -0.456 N  
HETATM   29  O   UNL     1     -12.021  15.806  71.254  1.00  0.00    -0.361 OA 
HETATM   30  C   UNL     1     -10.953  15.240  71.070  1.00  0.00    -0.226 C  
HETATM   31  H   UNL     1      -9.747  13.958  69.967  1.00  0.00     0.000 HD 
ENDBRANCH  27  28
BRANCH  27  32
HETATM   32  C   UNL     1     -11.941  15.165  68.009  1.00  0.00    -0.112 C  
BRANCH  32  33
HETATM   33  C   UNL     1     -10.958  16.131  67.368  1.00  0.00    -0.210 A  
HETATM   34  C   UNL     1      -9.475  17.719  66.601  1.00  0.00    -0.292 A  
HETATM   35  H   UNL     1      -9.241  16.795  64.711  1.00  0.00     0.000 HD 
HETATM   36  C   UNL     1      -8.643  18.849  66.548  1.00  0.00    -0.309 A  
HETATM   37  C   UNL     1     -10.549  15.839  66.069  1.00  0.00    -0.326 A  
HETATM   38  C   UNL     1      -8.622  19.686  67.657  1.00  0.00    -0.365 A  
HETATM   39  N   UNL     1      -9.679  16.785  65.632  1.00  0.00    -0.553 NA 
HETATM   40  C   UNL     1      -9.412  19.396  68.769  1.00  0.00    -0.464 A  
HETATM   41  C   UNL     1     -10.234  18.249  68.809  1.00  0.00    -0.342 A  
HETATM   42  C   UNL     1     -10.276  17.369  67.706  1.00  0.00    -0.345 A  
ENDBRANCH  32  33
ENDBRANCH  27  32
ENDBRANCH  24  27
ENDBRANCH  11  23
ENDBRANCH   7  11
TORSDOF 8
ENDMDL
MODEL      154
REMARK 921   NORMALIZED FREE ENERGY PREDICTED BY IDOCK:   -6.42 KCAL/MOL
REMARK 922        TOTAL FREE ENERGY PREDICTED BY IDOCK:  -11.57 KCAL/MOL
REMARK 923 INTER-LIGAND FREE ENERGY PREDICTED BY IDOCK:   -9.39 KCAL/MOL
REMARK 924 INTRA-LIGAND FREE ENERGY PREDICTED BY IDOCK:   -2.18 KCAL/MOL
REMARK 927      BINDING AFFINITY PREDICTED BY RF-SCORE:    0.00 PKD
ROOT
HETATM    1  C   UNL     1     -10.900   5.941  66.886  1.00  0.00    -0.376 C  
HETATM    2  C   UNL     1      -9.398   6.252  66.732  1.00  0.00    -0.142 C  
HETATM    3  C   UNL     1      -8.840   7.374  67.843  1.00  0.00    -0.132 C  
HETATM    4  N   UNL     1      -9.197   6.796  65.358  1.00  0.00    -0.295 NA 
HETATM    5  C   UNL     1      -8.697   4.866  66.765  1.00  0.00    -0.107 C  
HETATM    6  H2  UNL     1      -9.794   7.598  65.155  1.00  0.00     0.000 HD 
HETATM    7  N   UNL     1      -8.933   8.727  67.497  1.00  0.00    -0.134 N  
HETATM    8  H1  UNL     1      -8.203   7.001  65.256  1.00  0.00     0.000 HD 
HETATM    9  O   UNL     1      -8.403   7.027  68.940  1.00  0.00    -0.124 OA 
HETATM   10  H   UNL     1      -9.177   8.865  66.516  1.00  0.00     0.000 HD 
ENDROOT
BRANCH   7  11
HETATM   11  C   UNL     1      -8.748  10.080  68.271  1.00  0.00    -0.119 C  
BRANCH  11  12
HETATM   12  C   UNL     1      -9.219  10.338  69.777  1.00  0.00    -0.101 C  
BRANCH  12  13
HETATM   13  C   UNL     1     -10.770  10.233  70.170  1.00  0.00    -0.334 A  
HETATM   14  C   UNL     1     -11.726  11.232  70.194  1.00  0.00    -0.343 A  
HETATM   15  C   UNL     1     -12.139   6.732  71.255  1.00  0.00    -0.421 A  
HETATM   16  C   UNL     1     -13.332   7.183  71.814  1.00  0.00    -0.347 A  
HETATM   17  C   UNL     1     -13.676   8.531  71.718  1.00  0.00    -0.444 A  
HETATM   18  N   UNL     1     -12.904  10.745  70.760  1.00  0.00    -0.341 NA 
HETATM   19  C   UNL     1     -11.231   7.634  70.661  1.00  0.00    -0.280 A  
HETATM   20  C   UNL     1     -11.513   9.025  70.604  1.00  0.00    -0.291 A  
HETATM   21  C   UNL     1     -12.767   9.415  71.078  1.00  0.00    -0.201 A  
HETATM   22  H   UNL     1     -13.747  11.297  70.916  1.00  0.00     0.000 HD 
ENDBRANCH  12  13
ENDBRANCH  11  12
BRANCH  11  23
HETATM   23  C   UNL     1      -9.115  11.219  67.282  1.00  0.00    -0.156 C  
HETATM   24  N   UNL     1     -10.218  11.025  66.473  1.00  0.00    -0.226 N  
HETATM   25  H   UNL     1     -10.830  10.226  66.634  1.00  0.00     0.000 HD 
HETATM   26  O   UNL     1      -8.388  12.211  67.179  1.00  0.00    -0.170 OA 
BRANCH  24  27
HETATM   27  C   UNL     1     -10.508  11.948  65.399  1.00  0.00    -0.270 C  
BRANCH  27  28
HETATM   28  N   UNL     1     -10.815  11.192  64.212  1.00  0.00    -0.344 N  
HETATM   29  O   UNL     1      -8.707  10.273  63.979  1.00  0.00    -0.176 OA 
HETATM   30  C   UNL     1      -9.862  10.406  63.604  1.00  0.00    -0.223 C  
HETATM   31  H   UNL     1     -11.753  11.239  63.816  1.00  0.00     0.000 HD 
ENDBRANCH  27  28
BRANCH  27  32
HETATM   32  C   UNL     1     -11.464  13.125  65.687  1.00  0.00    -0.351 C  
BRANCH  32  33
HETATM   33  C   UNL     1     -11.340  14.220  66.733  1.00  0.00    -0.357 A  
HETATM   34  C   UNL     1     -11.013  15.998  68.161  1.00  0.00    -0.339 A  
HETATM   35  H   UNL     1     -12.205  15.166  69.700  1.00  0.00     0.000 HD 
HETATM   36  C   UNL     1     -10.575  17.228  68.679  1.00  0.00    -0.329 A  
HETATM   37  C   UNL     1     -12.020  14.023  67.932  1.00  0.00    -0.351 A  
HETATM   38  C   UNL     1      -9.726  17.994  67.889  1.00  0.00    -0.297 A  
HETATM   39  N   UNL     1     -11.815  15.077  68.762  1.00  0.00    -0.320 NA 
HETATM   40  C   UNL     1      -9.333  17.534  66.633  1.00  0.00    -0.275 A  
HETATM   41  C   UNL     1      -9.794  16.301  66.123  1.00  0.00    -0.358 A  
HETATM   42  C   UNL     1     -10.665  15.498  66.891  1.00  0.00    -0.317 A  
ENDBRANCH  32  33
ENDBRANCH  27  32
ENDBRANCH  24  27
ENDBRANCH  11  23
ENDBRANCH   7  11
TORSDOF 8
ENDMDL
MODEL      155
REMARK 921   NORMALIZED FREE ENERGY PREDICTED BY IDOCK:   -6.41 KCAL/MOL
REMARK 922        TOTAL FREE ENERGY PREDICTED BY IDOCK:  -11.55 KCAL/MOL
REMARK 923 INTER-LIGAND FREE ENERGY PREDICTED BY IDOCK:   -9.79 KCAL/MOL
REMARK 924 INTRA-LIGAND FREE ENERGY PREDICTED BY IDOCK:   -1.75 KCAL/MOL
REMARK 927      BINDING AFFINITY PREDICTED BY RF-SCORE:    0.00 PKD
ROOT
HETATM    1  C   UNL     1     -11.461  12.313  63.768  1.00  0.00    -0.545 C  
HETATM    2  C   UNL     1     -11.643  13.374  64.870  1.00  0.00    -0.330 C  
HETATM    3  C   UNL     1     -11.044  12.889  66.357  1.00  0.00    -0.285 C  
HETATM    4  N   UNL     1     -13.106  13.630  65.002  1.00  0.00    -0.727 NA 
HETATM    5  C   UNL     1     -11.019  14.671  64.284  1.00  0.00     0.100 C  
HETATM    6  H2  UNL     1     -13.646  12.780  65.172  1.00  0.00     0.000 HD 
HETATM    7  N   UNL     1     -11.907  12.180  67.200  1.00  0.00    -0.296 N  
HETATM    8  H1  UNL     1     -13.226  14.332  65.731  1.00  0.00     0.000 HD 
HETATM    9  O   UNL     1      -9.878  13.110  66.681  1.00  0.00    -0.247 OA 
HETATM   10  H   UNL     1     -12.872  12.192  66.874  1.00  0.00     0.000 HD 
ENDROOT
BRANCH   7  11
HETATM   11  C   UNL     1     -11.729  11.371  68.534  1.00  0.00    -0.318 C  
BRANCH  11  12
HETATM   12  C   UNL     1     -11.983  11.963  69.998  1.00  0.00    -0.409 C  
BRANCH  12  13
HETATM   13  C   UNL     1     -11.860  13.539  70.267  1.00  0.00    -0.327 A  
HETATM   14  C   UNL     1     -11.340  14.519  69.442  1.00  0.00    -0.279 A  
HETATM   15  C   UNL     1     -13.144  14.904  73.701  1.00  0.00    -0.208 A  
HETATM   16  C   UNL     1     -12.532  16.152  73.626  1.00  0.00    -0.684 A  
HETATM   17  C   UNL     1     -11.853  16.522  72.466  1.00  0.00    -0.438 A  
HETATM   18  N   UNL     1     -11.268  15.729  70.133  1.00  0.00    -0.317 NA 
HETATM   19  C   UNL     1     -13.020  13.972  72.649  1.00  0.00    -0.481 A  
HETATM   20  C   UNL     1     -12.278  14.285  71.479  1.00  0.00    -0.378 A  
HETATM   21  C   UNL     1     -11.775  15.584  71.402  1.00  0.00    -0.408 A  
HETATM   22  H   UNL     1     -10.893  16.596  69.751  1.00  0.00     0.000 HD 
ENDBRANCH  12  13
ENDBRANCH  11  12
BRANCH  11  23
HETATM   23  C   UNL     1     -10.418  10.552  68.394  1.00  0.00    -0.186 C  
HETATM   24  N   UNL     1      -9.256  11.129  68.867  1.00  0.00    -0.336 N  
HETATM   25  H   UNL     1      -9.304  11.992  69.408  1.00  0.00     0.000 HD 
HETATM   26  O   UNL     1     -10.422   9.468  67.802  1.00  0.00    -0.224 OA 
BRANCH  24  27
HETATM   27  C   UNL     1      -7.975  10.518  68.600  1.00  0.00    -0.124 C  
BRANCH  27  28
HETATM   28  N   UNL     1      -7.158  11.457  67.875  1.00  0.00    -0.072 N  
HETATM   29  O   UNL     1      -7.075  13.033  69.563  1.00  0.00     0.086 OA 
HETATM   30  C   UNL     1      -6.776  12.652  68.442  1.00  0.00    -0.082 C  
HETATM   31  H   UNL     1      -6.859  11.233  66.927  1.00  0.00     0.000 HD 
ENDBRANCH  27  28
BRANCH  27  32
HETATM   32  C   UNL     1      -7.258   9.790  69.758  1.00  0.00    -0.105 C  
BRANCH  32  33
HETATM   33  C   UNL     1      -7.856   9.177  71.014  1.00  0.00    -0.152 A  
HETATM   34  C   UNL     1      -8.966   8.226  72.795  1.00  0.00    -0.253 A  
HETATM   35  H   UNL     1      -7.283   8.316  74.077  1.00  0.00     0.000 HD 
HETATM   36  C   UNL     1      -9.974   7.638  73.576  1.00  0.00    -0.354 A  
HETATM   37  C   UNL     1      -7.013   9.062  72.117  1.00  0.00     0.187 A  
HETATM   38  C   UNL     1     -11.229   7.484  72.998  1.00  0.00    -0.373 A  
HETATM   39  N   UNL     1      -7.683   8.502  73.157  1.00  0.00    -0.367 NA 
HETATM   40  C   UNL     1     -11.455   7.911  71.691  1.00  0.00    -0.304 A  
HETATM   41  C   UNL     1     -10.426   8.489  70.916  1.00  0.00    -0.248 A  
HETATM   42  C   UNL     1      -9.135   8.654  71.464  1.00  0.00    -0.308 A  
ENDBRANCH  32  33
ENDBRANCH  27  32
ENDBRANCH  24  27
ENDBRANCH  11  23
ENDBRANCH   7  11
TORSDOF 8
ENDMDL
MODEL      156
REMARK 921   NORMALIZED FREE ENERGY PREDICTED BY IDOCK:   -6.40 KCAL/MOL
REMARK 922        TOTAL FREE ENERGY PREDICTED BY IDOCK:  -11.54 KCAL/MOL
REMARK 923 INTER-LIGAND FREE ENERGY PREDICTED BY IDOCK:   -9.49 KCAL/MOL
REMARK 924 INTRA-LIGAND FREE ENERGY PREDICTED BY IDOCK:   -2.04 KCAL/MOL
REMARK 927      BINDING AFFINITY PREDICTED BY RF-SCORE:    0.00 PKD
ROOT
HETATM    1  C   UNL     1     -10.725   7.710  70.132  1.00  0.00    -0.245 C  
HETATM    2  C   UNL     1     -10.887   8.978  70.993  1.00  0.00    -0.276 C  
HETATM    3  C   UNL     1     -11.399  10.309  70.116  1.00  0.00    -0.316 C  
HETATM    4  N   UNL     1      -9.554   9.280  71.591  1.00  0.00    -0.278 NA 
HETATM    5  C   UNL     1     -11.810   8.549  72.167  1.00  0.00    -0.448 C  
HETATM    6  H2  UNL     1      -8.813   9.363  70.894  1.00  0.00     0.000 HD 
HETATM    7  N   UNL     1     -10.416  11.105  69.517  1.00  0.00    -0.439 N  
HETATM    8  H1  UNL     1      -9.662  10.119  72.161  1.00  0.00     0.000 HD 
HETATM    9  O   UNL     1     -12.595  10.557  69.967  1.00  0.00    -0.277 OA 
HETATM   10  H   UNL     1      -9.476  10.874  69.836  1.00  0.00     0.000 HD 
ENDROOT
BRANCH   7  11
HETATM   11  C   UNL     1     -10.429  12.273  68.469  1.00  0.00    -0.232 C  
BRANCH  11  12
HETATM   12  C   UNL     1     -11.602  13.349  68.319  1.00  0.00    -0.379 C  
BRANCH  12  13
HETATM   13  C   UNL     1     -11.680  14.605  69.314  1.00  0.00    -0.348 A  
HETATM   14  C   UNL     1     -11.167  15.877  69.144  1.00  0.00    -0.334 A  
HETATM   15  C   UNL     1     -13.526  14.106  72.728  1.00  0.00    -0.592 A  
HETATM   16  C   UNL     1     -13.045  15.255  73.349  1.00  0.00    -0.612 A  
HETATM   17  C   UNL     1     -12.266  16.159  72.627  1.00  0.00    -0.625 A  
HETATM   18  N   UNL     1     -11.310  16.606  70.324  1.00  0.00    -0.421 NA 
HETATM   19  C   UNL     1     -13.172  13.800  71.397  1.00  0.00    -0.378 A  
HETATM   20  C   UNL     1     -12.326  14.661  70.649  1.00  0.00    -0.398 A  
HETATM   21  C   UNL     1     -11.956  15.853  71.275  1.00  0.00    -0.442 A  
HETATM   22  H   UNL     1     -10.983  17.561  70.462  1.00  0.00     0.000 HD 
ENDBRANCH  12  13
ENDBRANCH  11  12
BRANCH  11  23
HETATM   23  C   UNL     1      -9.933  11.677  67.124  1.00  0.00    -0.199 C  
HETATM   24  N   UNL     1      -8.784  10.911  67.155  1.00  0.00    -0.132 N  
HETATM   25  H   UNL     1      -8.378  10.644  68.052  1.00  0.00     0.000 HD 
HETATM   26  O   UNL     1     -10.507  11.961  66.068  1.00  0.00    -0.231 OA 
BRANCH  24  27
HETATM   27  C   UNL     1      -8.154  10.486  65.926  1.00  0.00    -0.154 C  
BRANCH  27  28
HETATM   28  N   UNL     1      -6.932  11.229  65.753  1.00  0.00    -0.359 N  
HETATM   29  O   UNL     1      -6.261  11.074  67.959  1.00  0.00    -0.053 OA 
HETATM   30  C   UNL     1      -6.082  11.455  66.811  1.00  0.00    -0.145 C  
HETATM   31  H   UNL     1      -6.694  11.594  64.831  1.00  0.00     0.000 HD 
ENDBRANCH  27  28
BRANCH  27  32
HETATM   32  C   UNL     1      -8.040   8.972  65.651  1.00  0.00    -0.115 C  
BRANCH  32  33
HETATM   33  C   UNL     1      -7.953   7.826  66.645  1.00  0.00    -0.107 A  
HETATM   34  C   UNL     1      -8.035   6.018  68.072  1.00  0.00    -0.109 A  
HETATM   35  H   UNL     1      -6.151   6.436  68.941  1.00  0.00     0.000 HD 
HETATM   36  C   UNL     1      -8.478   4.858  68.727  1.00  0.00    -0.089 A  
HETATM   37  C   UNL     1      -6.804   7.762  67.430  1.00  0.00    -0.069 A  
HETATM   38  C   UNL     1      -9.729   4.361  68.384  1.00  0.00    -0.172 A  
HETATM   39  N   UNL     1      -6.870   6.694  68.266  1.00  0.00    -0.072 NA 
HETATM   40  C   UNL     1     -10.502   5.013  67.424  1.00  0.00    -0.121 A  
HETATM   41  C   UNL     1     -10.036   6.172  66.766  1.00  0.00    -0.218 A  
HETATM   42  C   UNL     1      -8.766   6.702  67.080  1.00  0.00    -0.111 A  
ENDBRANCH  32  33
ENDBRANCH  27  32
ENDBRANCH  24  27
ENDBRANCH  11  23
ENDBRANCH   7  11
TORSDOF 8
ENDMDL
MODEL      157
REMARK 921   NORMALIZED FREE ENERGY PREDICTED BY IDOCK:   -6.39 KCAL/MOL
REMARK 922        TOTAL FREE ENERGY PREDICTED BY IDOCK:  -11.53 KCAL/MOL
REMARK 923 INTER-LIGAND FREE ENERGY PREDICTED BY IDOCK:   -9.02 KCAL/MOL
REMARK 924 INTRA-LIGAND FREE ENERGY PREDICTED BY IDOCK:   -2.51 KCAL/MOL
REMARK 927      BINDING AFFINITY PREDICTED BY RF-SCORE:    0.00 PKD
ROOT
HETATM    1  C   UNL     1      -8.713   6.858  69.532  1.00  0.00    -0.133 C  
HETATM    2  C   UNL     1     -10.146   7.421  69.467  1.00  0.00    -0.187 C  
HETATM    3  C   UNL     1     -10.345   8.582  68.278  1.00  0.00    -0.201 C  
HETATM    4  N   UNL     1     -10.440   8.036  70.794  1.00  0.00    -0.204 NA 
HETATM    5  C   UNL     1     -11.061   6.171  69.348  1.00  0.00    -0.479 C  
HETATM    6  H2  UNL     1      -9.750   8.734  71.072  1.00  0.00     0.000 HD 
HETATM    7  N   UNL     1     -10.072   9.911  68.621  1.00  0.00    -0.168 N  
HETATM    8  H1  UNL     1     -11.389   8.408  70.751  1.00  0.00     0.000 HD 
HETATM    9  O   UNL     1     -10.678   8.277  67.133  1.00  0.00    -0.302 OA 
HETATM   10  H   UNL     1      -9.947  10.040  69.625  1.00  0.00     0.000 HD 
ENDROOT
BRANCH   7  11
HETATM   11  C   UNL     1      -9.915  11.249  67.816  1.00  0.00    -0.176 C  
BRANCH  11  12
HETATM   12  C   UNL     1      -8.516  11.932  67.450  1.00  0.00    -0.166 C  
BRANCH  12  13
HETATM   13  C   UNL     1      -7.450  12.262  68.602  1.00  0.00    -0.100 A  
HETATM   14  C   UNL     1      -6.884  11.405  69.528  1.00  0.00    -0.097 A  
HETATM   15  C   UNL     1      -6.239  15.966  68.955  1.00  0.00    -0.120 A  
HETATM   16  C   UNL     1      -5.665  15.837  70.216  1.00  0.00    -0.149 A  
HETATM   17  C   UNL     1      -5.600  14.583  70.823  1.00  0.00    -0.163 A  
HETATM   18  N   UNL     1      -6.141  12.135  70.455  1.00  0.00    -0.481 NA 
HETATM   19  C   UNL     1      -6.830  14.858  68.310  1.00  0.00    -0.121 A  
HETATM   20  C   UNL     1      -6.845  13.578  68.924  1.00  0.00    -0.111 A  
HETATM   21  C   UNL     1      -6.163  13.472  70.138  1.00  0.00    -0.077 A  
HETATM   22  H   UNL     1      -5.651  11.734  71.254  1.00  0.00     0.000 HD 
ENDBRANCH  12  13
ENDBRANCH  11  12
BRANCH  11  23
HETATM   23  C   UNL     1     -10.983  12.234  68.363  1.00  0.00    -0.236 C  
HETATM   24  N   UNL     1     -10.645  13.573  68.409  1.00  0.00    -0.242 N  
HETATM   25  H   UNL     1      -9.785  13.894  67.966  1.00  0.00     0.000 HD 
HETATM   26  O   UNL     1     -12.049  11.807  68.814  1.00  0.00    -0.358 OA 
BRANCH  24  27
HETATM   27  C   UNL     1     -11.505  14.520  69.081  1.00  0.00    -0.294 C  
BRANCH  27  28
HETATM   28  N   UNL     1     -11.354  14.352  70.503  1.00  0.00    -0.496 N  
HETATM   29  O   UNL     1     -13.610  14.482  70.986  1.00  0.00    -0.359 OA 
HETATM   30  C   UNL     1     -12.448  14.346  71.338  1.00  0.00    -0.359 C  
HETATM   31  H   UNL     1     -10.421  14.234  70.899  1.00  0.00     0.000 HD 
ENDBRANCH  27  28
BRANCH  27  32
HETATM   32  C   UNL     1     -11.496  15.986  68.595  1.00  0.00    -0.377 C  
BRANCH  32  33
HETATM   33  C   UNL     1     -10.492  16.685  67.692  1.00  0.00    -0.320 A  
HETATM   34  C   UNL     1      -8.896  17.862  66.519  1.00  0.00    -0.261 A  
HETATM   35  H   UNL     1      -9.381  16.955  64.669  1.00  0.00     0.000 HD 
HETATM   36  C   UNL     1      -7.846  18.743  66.216  1.00  0.00    -0.295 A  
HETATM   37  C   UNL     1     -10.507  16.330  66.346  1.00  0.00    -0.294 A  
HETATM   38  C   UNL     1      -7.339  19.520  67.251  1.00  0.00    -0.249 A  
HETATM   39  N   UNL     1      -9.563  17.034  65.669  1.00  0.00    -0.530 NA 
HETATM   40  C   UNL     1      -7.874  19.415  68.534  1.00  0.00    -0.389 A  
HETATM   41  C   UNL     1      -8.922  18.514  68.823  1.00  0.00    -0.268 A  
HETATM   42  C   UNL     1      -9.458  17.700  67.801  1.00  0.00    -0.260 A  
ENDBRANCH  32  33
ENDBRANCH  27  32
ENDBRANCH  24  27
ENDBRANCH  11  23
ENDBRANCH   7  11
TORSDOF 8
ENDMDL
MODEL      158
REMARK 921   NORMALIZED FREE ENERGY PREDICTED BY IDOCK:   -6.39 KCAL/MOL
REMARK 922        TOTAL FREE ENERGY PREDICTED BY IDOCK:  -11.52 KCAL/MOL
REMARK 923 INTER-LIGAND FREE ENERGY PREDICTED BY IDOCK:   -9.47 KCAL/MOL
REMARK 924 INTRA-LIGAND FREE ENERGY PREDICTED BY IDOCK:   -2.05 KCAL/MOL
REMARK 927      BINDING AFFINITY PREDICTED BY RF-SCORE:    0.00 PKD
ROOT
HETATM    1  C   UNL     1      -7.602  13.644  68.557  1.00  0.00    -0.130 C  
HETATM    2  C   UNL     1      -6.506  12.693  69.079  1.00  0.00    -0.097 C  
HETATM    3  C   UNL     1      -6.911  11.076  68.928  1.00  0.00    -0.088 C  
HETATM    4  N   UNL     1      -6.301  13.005  70.523  1.00  0.00    -0.454 NA 
HETATM    5  C   UNL     1      -5.210  13.134  68.343  1.00  0.00    -0.074 C  
HETATM    6  H2  UNL     1      -7.163  12.959  71.068  1.00  0.00     0.000 HD 
HETATM    7  N   UNL     1      -7.619  10.487  69.982  1.00  0.00    -0.340 N  
HETATM    8  H1  UNL     1      -5.576  12.376  70.868  1.00  0.00     0.000 HD 
HETATM    9  O   UNL     1      -6.635  10.437  67.913  1.00  0.00    -0.061 OA 
HETATM   10  H   UNL     1      -7.656  11.080  70.810  1.00  0.00     0.000 HD 
ENDROOT
BRANCH   7  11
HETATM   11  C   UNL     1      -8.370   9.123  70.182  1.00  0.00    -0.165 C  
BRANCH  11  12
HETATM   12  C   UNL     1      -7.825   7.703  69.686  1.00  0.00    -0.108 C  
BRANCH  12  13
HETATM   13  C   UNL     1      -8.417   6.347  70.305  1.00  0.00    -0.135 A  
HETATM   14  C   UNL     1      -8.463   5.086  69.741  1.00  0.00    -0.088 A  
HETATM   15  C   UNL     1      -9.999   6.520  73.880  1.00  0.00    -0.297 A  
HETATM   16  C   UNL     1     -10.656   5.294  73.833  1.00  0.00    -0.335 A  
HETATM   17  C   UNL     1     -10.474   4.451  72.737  1.00  0.00    -0.253 A  
HETATM   18  N   UNL     1      -9.217   4.234  70.549  1.00  0.00    -0.110 NA 
HETATM   19  C   UNL     1      -9.211   6.962  72.796  1.00  0.00    -0.152 A  
HETATM   20  C   UNL     1      -9.056   6.163  71.632  1.00  0.00    -0.147 A  
HETATM   21  C   UNL     1      -9.642   4.897  71.675  1.00  0.00    -0.159 A  
HETATM   22  H   UNL     1      -9.422   3.259  70.334  1.00  0.00     0.000 HD 
ENDBRANCH  12  13
ENDBRANCH  11  12
BRANCH  11  23
HETATM   23  C   UNL     1      -9.867   9.380  69.863  1.00  0.00    -0.210 C  
HETATM   24  N   UNL     1     -10.638   9.949  70.858  1.00  0.00    -0.350 N  
HETATM   25  H   UNL     1     -10.192  10.306  71.702  1.00  0.00     0.000 HD 
HETATM   26  O   UNL     1     -10.348   9.004  68.790  1.00  0.00    -0.207 OA 
BRANCH  24  27
HETATM   27  C   UNL     1     -12.072  10.040  70.709  1.00  0.00    -0.327 C  
BRANCH  27  28
HETATM   28  N   UNL     1     -12.691   9.637  71.946  1.00  0.00    -0.399 N  
HETATM   29  O   UNL     1     -12.538   7.366  71.544  1.00  0.00    -0.336 OA 
HETATM   30  C   UNL     1     -12.865   8.306  72.252  1.00  0.00    -0.277 C  
HETATM   31  H   UNL     1     -13.004  10.348  72.605  1.00  0.00     0.000 HD 
ENDBRANCH  27  28
BRANCH  27  32
HETATM   32  C   UNL     1     -12.660  11.318  70.074  1.00  0.00    -0.169 C  
BRANCH  32  33
HETATM   33  C   UNL     1     -12.264  12.767  70.306  1.00  0.00    -0.351 A  
HETATM   34  C   UNL     1     -11.774  14.947  70.871  1.00  0.00    -0.323 A  
HETATM   35  H   UNL     1     -10.744  15.335  69.063  1.00  0.00     0.000 HD 
HETATM   36  C   UNL     1     -11.695  16.151  71.588  1.00  0.00    -0.558 A  
HETATM   37  C   UNL     1     -11.539  13.390  69.293  1.00  0.00    -0.310 A  
HETATM   38  C   UNL     1     -12.329  16.208  72.823  1.00  0.00    -0.585 A  
HETATM   39  N   UNL     1     -11.262  14.672  69.640  1.00  0.00    -0.268 NA 
HETATM   40  C   UNL     1     -13.018  15.098  73.309  1.00  0.00    -0.645 A  
HETATM   41  C   UNL     1     -13.076  13.890  72.580  1.00  0.00    -0.533 A  
HETATM   42  C   UNL     1     -12.437  13.790  71.325  1.00  0.00    -0.428 A  
ENDBRANCH  32  33
ENDBRANCH  27  32
ENDBRANCH  24  27
ENDBRANCH  11  23
ENDBRANCH   7  11
TORSDOF 8
ENDMDL
MODEL      159
REMARK 921   NORMALIZED FREE ENERGY PREDICTED BY IDOCK:   -6.39 KCAL/MOL
REMARK 922        TOTAL FREE ENERGY PREDICTED BY IDOCK:  -11.52 KCAL/MOL
REMARK 923 INTER-LIGAND FREE ENERGY PREDICTED BY IDOCK:  -10.67 KCAL/MOL
REMARK 924 INTRA-LIGAND FREE ENERGY PREDICTED BY IDOCK:   -0.85 KCAL/MOL
REMARK 927      BINDING AFFINITY PREDICTED BY RF-SCORE:    0.00 PKD
ROOT
HETATM    1  C   UNL     1     -14.375  15.267  71.614  1.00  0.00    -0.666 C  
HETATM    2  C   UNL     1     -12.871  14.999  71.813  1.00  0.00    -0.338 C  
HETATM    3  C   UNL     1     -12.082  14.589  70.394  1.00  0.00    -0.322 C  
HETATM    4  N   UNL     1     -12.747  13.866  72.776  1.00  0.00    -0.212 NA 
HETATM    5  C   UNL     1     -12.332  16.260  72.543  1.00  0.00    -0.489 C  
HETATM    6  H2  UNL     1     -13.266  13.037  72.485  1.00  0.00     0.000 HD 
HETATM    7  N   UNL     1     -12.054  13.236  70.037  1.00  0.00    -0.328 N  
HETATM    8  H1  UNL     1     -11.751  13.689  72.907  1.00  0.00     0.000 HD 
HETATM    9  O   UNL     1     -11.580  15.447  69.669  1.00  0.00    -0.285 OA 
HETATM   10  H   UNL     1     -12.377  12.626  70.788  1.00  0.00     0.000 HD 
ENDROOT
BRANCH   7  11
HETATM   11  C   UNL     1     -11.642  12.442  68.748  1.00  0.00    -0.326 C  
BRANCH  11  12
HETATM   12  C   UNL     1     -11.733  10.853  68.589  1.00  0.00    -0.334 C  
BRANCH  12  13
HETATM   13  C   UNL     1     -10.930  10.109  67.417  1.00  0.00    -0.295 A  
HETATM   14  C   UNL     1     -10.191   8.942  67.481  1.00  0.00    -0.248 A  
HETATM   15  C   UNL     1     -10.971  11.743  63.862  1.00  0.00    -0.476 A  
HETATM   16  C   UNL     1      -9.919  11.005  63.325  1.00  0.00    -0.414 A  
HETATM   17  C   UNL     1      -9.342   9.978  64.071  1.00  0.00    -0.324 A  
HETATM   18  N   UNL     1      -9.517   8.744  66.276  1.00  0.00    -0.216 NA 
HETATM   19  C   UNL     1     -11.412  11.520  65.184  1.00  0.00    -0.090 A  
HETATM   20  C   UNL     1     -10.805  10.528  66.000  1.00  0.00    -0.006 A  
HETATM   21  C   UNL     1      -9.830   9.741  65.384  1.00  0.00    -0.295 A  
HETATM   22  H   UNL     1      -8.884   7.968  66.084  1.00  0.00     0.000 HD 
ENDBRANCH  12  13
ENDBRANCH  11  12
BRANCH  11  23
HETATM   23  C   UNL     1     -10.308  13.058  68.245  1.00  0.00    -0.252 C  
HETATM   24  N   UNL     1     -10.388  14.021  67.258  1.00  0.00    -0.262 N  
HETATM   25  H   UNL     1     -11.297  14.397  66.989  1.00  0.00     0.000 HD 
HETATM   26  O   UNL     1      -9.229  12.629  68.662  1.00  0.00    -0.106 OA 
BRANCH  24  27
HETATM   27  C   UNL     1      -9.191  14.499  66.605  1.00  0.00    -0.266 C  
BRANCH  27  28
HETATM   28  N   UNL     1      -9.565  15.140  65.371  1.00  0.00    -0.385 N  
HETATM   29  O   UNL     1     -11.841  14.847  65.644  1.00  0.00    -0.265 OA 
HETATM   30  C   UNL     1     -10.886  15.257  65.002  1.00  0.00    -0.439 C  
HETATM   31  H   UNL     1      -8.839  15.514  64.760  1.00  0.00     0.000 HD 
ENDBRANCH  27  28
BRANCH  27  32
HETATM   32  C   UNL     1      -8.156  15.270  67.452  1.00  0.00    -0.205 C  
BRANCH  32  33
HETATM   33  C   UNL     1      -8.025  16.769  67.665  1.00  0.00    -0.189 A  
HETATM   34  C   UNL     1      -8.047  19.062  67.894  1.00  0.00    -0.278 A  
HETATM   35  H   UNL     1      -6.112  19.138  68.751  1.00  0.00     0.000 HD 
HETATM   36  C   UNL     1      -8.469  20.400  67.856  1.00  0.00    -0.141 A  
HETATM   37  C   UNL     1      -6.838  17.220  68.237  1.00  0.00    -0.184 A  
HETATM   38  C   UNL     1      -9.713  20.667  67.297  1.00  0.00    -0.562 A  
HETATM   39  N   UNL     1      -6.866  18.572  68.362  1.00  0.00    -0.244 NA 
HETATM   40  C   UNL     1     -10.493  19.627  66.793  1.00  0.00    -0.605 A  
HETATM   41  C   UNL     1     -10.057  18.286  66.852  1.00  0.00    -0.377 A  
HETATM   42  C   UNL     1      -8.804  17.972  67.421  1.00  0.00    -0.245 A  
ENDBRANCH  32  33
ENDBRANCH  27  32
ENDBRANCH  24  27
ENDBRANCH  11  23
ENDBRANCH   7  11
TORSDOF 8
ENDMDL
MODEL      160
REMARK 921   NORMALIZED FREE ENERGY PREDICTED BY IDOCK:   -6.39 KCAL/MOL
REMARK 922        TOTAL FREE ENERGY PREDICTED BY IDOCK:  -11.52 KCAL/MOL
REMARK 923 INTER-LIGAND FREE ENERGY PREDICTED BY IDOCK:  -10.17 KCAL/MOL
REMARK 924 INTRA-LIGAND FREE ENERGY PREDICTED BY IDOCK:   -1.34 KCAL/MOL
REMARK 927      BINDING AFFINITY PREDICTED BY RF-SCORE:    0.00 PKD
ROOT
HETATM    1  C   UNL     1     -11.953  14.091  64.417  1.00  0.00    -0.480 C  
HETATM    2  C   UNL     1     -11.440  12.651  64.219  1.00  0.00    -0.363 C  
HETATM    3  C   UNL     1     -10.736  12.008  65.595  1.00  0.00    -0.272 C  
HETATM    4  N   UNL     1     -10.420  12.691  63.131  1.00  0.00    -0.514 NA 
HETATM    5  C   UNL     1     -12.656  11.866  63.655  1.00  0.00    -0.555 C  
HETATM    6  H2  UNL     1      -9.672  13.361  63.310  1.00  0.00     0.000 HD 
HETATM    7  N   UNL     1      -9.369  12.237  65.788  1.00  0.00    -0.427 N  
HETATM    8  H1  UNL     1     -10.081  11.738  63.000  1.00  0.00     0.000 HD 
HETATM    9  O   UNL     1     -11.401  11.392  66.427  1.00  0.00    -0.301 OA 
HETATM   10  H   UNL     1      -8.916  12.631  64.964  1.00  0.00     0.000 HD 
ENDROOT
BRANCH   7  11
HETATM   11  C   UNL     1      -8.372  12.026  66.982  1.00  0.00    -0.178 C  
BRANCH  11  12
HETATM   12  C   UNL     1      -7.883  10.601  67.519  1.00  0.00    -0.106 C  
BRANCH  12  13
HETATM   13  C   UNL     1      -8.651   9.263  67.080  1.00  0.00    -0.128 A  
HETATM   14  C   UNL     1      -8.803   8.729  65.814  1.00  0.00    -0.195 A  
HETATM   15  C   UNL     1     -10.394   7.164  69.884  1.00  0.00    -0.224 A  
HETATM   16  C   UNL     1     -11.177   6.377  69.044  1.00  0.00    -0.402 A  
HETATM   17  C   UNL     1     -11.029   6.480  67.662  1.00  0.00    -0.426 A  
HETATM   18  N   UNL     1      -9.687   7.651  65.860  1.00  0.00    -0.398 NA 
HETATM   19  C   UNL     1      -9.506   8.125  69.357  1.00  0.00    -0.162 A  
HETATM   20  C   UNL     1      -9.376   8.309  67.955  1.00  0.00    -0.150 A  
HETATM   21  C   UNL     1     -10.098   7.425  67.151  1.00  0.00    -0.244 A  
HETATM   22  H   UNL     1      -9.985   7.108  65.050  1.00  0.00     0.000 HD 
ENDBRANCH  12  13
ENDBRANCH  11  12
BRANCH  11  23
HETATM   23  C   UNL     1      -8.788  13.020  68.099  1.00  0.00    -0.194 C  
HETATM   24  N   UNL     1      -9.971  13.712  67.923  1.00  0.00    -0.238 N  
HETATM   25  H   UNL     1     -10.596  13.460  67.158  1.00  0.00     0.000 HD 
HETATM   26  O   UNL     1      -8.036  13.233  69.054  1.00  0.00     0.069 OA 
BRANCH  24  27
HETATM   27  C   UNL     1     -10.327  14.790  68.817  1.00  0.00    -0.248 C  
BRANCH  27  28
HETATM   28  N   UNL     1     -10.732  14.227  70.079  1.00  0.00    -0.436 N  
HETATM   29  O   UNL     1     -12.959  14.811  69.882  1.00  0.00    -0.093 OA 
HETATM   30  C   UNL     1     -12.041  14.291  70.498  1.00  0.00    -0.343 C  
HETATM   31  H   UNL     1     -10.037  13.774  70.672  1.00  0.00     0.000 HD 
ENDBRANCH  27  28
BRANCH  27  32
HETATM   32  C   UNL     1      -9.372  15.999  68.919  1.00  0.00    -0.231 C  
BRANCH  32  33
HETATM   33  C   UNL     1      -9.075  17.070  67.882  1.00  0.00    -0.232 A  
HETATM   34  C   UNL     1      -8.479  18.793  66.474  1.00  0.00    -0.301 A  
HETATM   35  H   UNL     1      -9.691  18.102  64.882  1.00  0.00     0.000 HD 
HETATM   36  C   UNL     1      -7.867  19.953  65.974  1.00  0.00    -0.335 A  
HETATM   37  C   UNL     1      -9.714  16.945  66.652  1.00  0.00    -0.271 A  
HETATM   38  C   UNL     1      -7.027  20.658  66.828  1.00  0.00    -0.343 A  
HETATM   39  N   UNL     1      -9.354  17.969  65.835  1.00  0.00    -0.504 NA 
HETATM   40  C   UNL     1      -6.821  20.212  68.133  1.00  0.00    -0.326 A  
HETATM   41  C   UNL     1      -7.436  19.036  68.615  1.00  0.00    -0.361 A  
HETATM   42  C   UNL     1      -8.288  18.287  67.775  1.00  0.00    -0.261 A  
ENDBRANCH  32  33
ENDBRANCH  27  32
ENDBRANCH  24  27
ENDBRANCH  11  23
ENDBRANCH   7  11
TORSDOF 8
ENDMDL
MODEL      161
REMARK 921   NORMALIZED FREE ENERGY PREDICTED BY IDOCK:   -6.39 KCAL/MOL
REMARK 922        TOTAL FREE ENERGY PREDICTED BY IDOCK:  -11.51 KCAL/MOL
REMARK 923 INTER-LIGAND FREE ENERGY PREDICTED BY IDOCK:   -9.79 KCAL/MOL
REMARK 924 INTRA-LIGAND FREE ENERGY PREDICTED BY IDOCK:   -1.73 KCAL/MOL
REMARK 927      BINDING AFFINITY PREDICTED BY RF-SCORE:    0.00 PKD
ROOT
HETATM    1  C   UNL     1      -8.433   8.815  64.598  1.00  0.00    -0.169 C  
HETATM    2  C   UNL     1      -7.821  10.223  64.731  1.00  0.00    -0.130 C  
HETATM    3  C   UNL     1      -8.429  11.086  66.030  1.00  0.00    -0.158 C  
HETATM    4  N   UNL     1      -8.135  10.962  63.473  1.00  0.00    -0.365 NA 
HETATM    5  C   UNL     1      -6.284   9.993  64.735  1.00  0.00    -0.119 C  
HETATM    6  H2  UNL     1      -9.132  10.979  63.258  1.00  0.00     0.000 HD 
HETATM    7  N   UNL     1      -9.585  11.846  65.816  1.00  0.00    -0.252 N  
HETATM    8  H1  UNL     1      -7.729  11.894  63.562  1.00  0.00     0.000 HD 
HETATM    9  O   UNL     1      -7.907  11.024  67.142  1.00  0.00    -0.123 OA 
HETATM   10  H   UNL     1      -9.828  11.922  64.829  1.00  0.00     0.000 HD 
ENDROOT
BRANCH   7  11
HETATM   11  C   UNL     1     -10.594  12.607  66.747  1.00  0.00    -0.237 C  
BRANCH  11  12
HETATM   12  C   UNL     1     -10.375  14.089  67.307  1.00  0.00    -0.264 C  
BRANCH  12  13
HETATM   13  C   UNL     1     -10.689  15.360  66.381  1.00  0.00    -0.311 A  
HETATM   14  C   UNL     1     -11.070  15.388  65.052  1.00  0.00    -0.418 A  
HETATM   15  C   UNL     1     -10.327  18.912  67.981  1.00  0.00    -0.457 A  
HETATM   16  C   UNL     1     -10.333  19.634  66.791  1.00  0.00    -0.591 A  
HETATM   17  C   UNL     1     -10.557  18.977  65.582  1.00  0.00    -0.273 A  
HETATM   18  N   UNL     1     -11.070  16.704  64.589  1.00  0.00    -0.898 NA 
HETATM   19  C   UNL     1     -10.466  17.508  67.977  1.00  0.00    -0.387 A  
HETATM   20  C   UNL     1     -10.627  16.793  66.760  1.00  0.00    -0.203 A  
HETATM   21  C   UNL     1     -10.735  17.567  65.604  1.00  0.00    -0.089 A  
HETATM   22  H   UNL     1     -11.288  16.984  63.633  1.00  0.00     0.000 HD 
ENDBRANCH  12  13
ENDBRANCH  11  12
BRANCH  11  23
HETATM   23  C   UNL     1     -11.085  11.588  67.810  1.00  0.00    -0.260 C  
HETATM   24  N   UNL     1     -10.566  11.703  69.085  1.00  0.00    -0.388 N  
HETATM   25  H   UNL     1      -9.998  12.514  69.329  1.00  0.00     0.000 HD 
HETATM   26  O   UNL     1     -11.842  10.668  67.487  1.00  0.00    -0.346 OA 
BRANCH  24  27
HETATM   27  C   UNL     1     -10.822  10.681  70.074  1.00  0.00    -0.217 C  
BRANCH  27  28
HETATM   28  N   UNL     1     -12.141  10.147  69.852  1.00  0.00    -0.481 N  
HETATM   29  O   UNL     1     -12.951  10.667  71.953  1.00  0.00    -0.458 OA 
HETATM   30  C   UNL     1     -13.102  10.195  70.836  1.00  0.00    -0.335 C  
HETATM   31  H   UNL     1     -12.367   9.725  68.951  1.00  0.00     0.000 HD 
ENDBRANCH  27  28
BRANCH  27  32
HETATM   32  C   UNL     1      -9.727   9.625  70.333  1.00  0.00    -0.304 C  
BRANCH  32  33
HETATM   33  C   UNL     1      -9.154   8.591  69.377  1.00  0.00    -0.150 A  
HETATM   34  C   UNL     1      -8.510   6.978  67.863  1.00  0.00    -0.124 A  
HETATM   35  H   UNL     1      -6.447   7.207  68.278  1.00  0.00     0.000 HD 
HETATM   36  C   UNL     1      -8.564   5.982  66.875  1.00  0.00    -0.108 A  
HETATM   37  C   UNL     1      -7.768   8.450  69.364  1.00  0.00    -0.097 A  
HETATM   38  C   UNL     1      -9.818   5.588  66.425  1.00  0.00    -0.192 A  
HETATM   39  N   UNL     1      -7.407   7.496  68.469  1.00  0.00    -0.096 NA 
HETATM   40  C   UNL     1     -10.968   6.171  66.956  1.00  0.00    -0.414 A  
HETATM   41  C   UNL     1     -10.895   7.181  67.939  1.00  0.00    -0.219 A  
HETATM   42  C   UNL     1      -9.639   7.616  68.415  1.00  0.00    -0.155 A  
ENDBRANCH  32  33
ENDBRANCH  27  32
ENDBRANCH  24  27
ENDBRANCH  11  23
ENDBRANCH   7  11
TORSDOF 8
ENDMDL
MODEL      162
REMARK 921   NORMALIZED FREE ENERGY PREDICTED BY IDOCK:   -6.38 KCAL/MOL
REMARK 922        TOTAL FREE ENERGY PREDICTED BY IDOCK:  -11.51 KCAL/MOL
REMARK 923 INTER-LIGAND FREE ENERGY PREDICTED BY IDOCK:  -10.24 KCAL/MOL
REMARK 924 INTRA-LIGAND FREE ENERGY PREDICTED BY IDOCK:   -1.27 KCAL/MOL
REMARK 927      BINDING AFFINITY PREDICTED BY RF-SCORE:    0.00 PKD
ROOT
HETATM    1  C   UNL     1     -10.530   4.914  66.042  1.00  0.00    -0.327 C  
HETATM    2  C   UNL     1      -9.015   5.180  65.942  1.00  0.00    -0.145 C  
HETATM    3  C   UNL     1      -8.485   6.374  66.989  1.00  0.00    -0.112 C  
HETATM    4  N   UNL     1      -8.732   5.608  64.541  1.00  0.00    -0.340 NA 
HETATM    5  C   UNL     1      -8.351   3.786  66.119  1.00  0.00    -0.109 C  
HETATM    6  H2  UNL     1      -9.298   6.405  64.246  1.00  0.00     0.000 HD 
HETATM    7  N   UNL     1      -8.527   7.697  66.534  1.00  0.00    -0.127 N  
HETATM    8  H1  UNL     1      -7.729   5.784  64.476  1.00  0.00     0.000 HD 
HETATM    9  O   UNL     1      -8.113   6.107  68.130  1.00  0.00    -0.109 OA 
HETATM   10  H   UNL     1      -8.718   7.763  65.534  1.00  0.00     0.000 HD 
ENDROOT
BRANCH   7  11
HETATM   11  C   UNL     1      -8.348   9.103  67.208  1.00  0.00    -0.121 C  
BRANCH  11  12
HETATM   12  C   UNL     1      -8.749   9.447  68.717  1.00  0.00    -0.131 C  
BRANCH  12  13
HETATM   13  C   UNL     1     -10.273   9.777  69.095  1.00  0.00    -0.211 A  
HETATM   14  C   UNL     1     -11.165  10.607  68.443  1.00  0.00    -0.288 A  
HETATM   15  C   UNL     1     -11.762   8.082  72.291  1.00  0.00    -0.428 A  
HETATM   16  C   UNL     1     -12.885   8.897  72.407  1.00  0.00    -0.446 A  
HETATM   17  C   UNL     1     -13.156   9.846  71.422  1.00  0.00    -0.500 A  
HETATM   18  N   UNL     1     -12.327  10.742  69.203  1.00  0.00    -0.736 NA 
HETATM   19  C   UNL     1     -10.848   8.255  71.231  1.00  0.00    -0.285 A  
HETATM   20  C   UNL     1     -11.052   9.256  70.245  1.00  0.00    -0.289 A  
HETATM   21  C   UNL     1     -12.244   9.975  70.340  1.00  0.00    -0.170 A  
HETATM   22  H   UNL     1     -13.123  11.327  68.950  1.00  0.00     0.000 HD 
ENDBRANCH  12  13
ENDBRANCH  11  12
BRANCH  11  23
HETATM   23  C   UNL     1      -8.801  10.164  66.169  1.00  0.00    -0.145 C  
HETATM   24  N   UNL     1      -9.485   9.710  65.057  1.00  0.00    -0.351 N  
HETATM   25  H   UNL     1      -9.791   8.738  65.013  1.00  0.00     0.000 HD 
HETATM   26  O   UNL     1      -8.478  11.347  66.306  1.00  0.00    -0.177 OA 
BRANCH  24  27
HETATM   27  C   UNL     1      -9.768  10.604  63.958  1.00  0.00    -0.315 C  
BRANCH  27  28
HETATM   28  N   UNL     1      -9.455   9.930  62.724  1.00  0.00    -0.507 N  
HETATM   29  O   UNL     1      -7.766   8.621  63.605  1.00  0.00    -0.121 OA 
HETATM   30  C   UNL     1      -8.461   8.979  62.666  1.00  0.00    -0.210 C  
HETATM   31  H   UNL     1      -9.977  10.163  61.879  1.00  0.00     0.000 HD 
ENDBRANCH  27  28
BRANCH  27  32
HETATM   32  C   UNL     1     -11.113  11.362  63.962  1.00  0.00    -0.400 C  
BRANCH  32  33
HETATM   33  C   UNL     1     -11.368  12.849  64.143  1.00  0.00    -0.442 A  
HETATM   34  C   UNL     1     -11.559  15.109  64.554  1.00  0.00    -0.329 A  
HETATM   35  H   UNL     1     -13.313  15.318  63.389  1.00  0.00     0.000 HD 
HETATM   36  C   UNL     1     -11.298  16.401  65.036  1.00  0.00    -0.025 A  
HETATM   37  C   UNL     1     -12.481  13.378  63.494  1.00  0.00    -0.210 A  
HETATM   38  C   UNL     1     -10.205  16.566  65.879  1.00  0.00    -0.368 A  
HETATM   39  N   UNL     1     -12.580  14.708  63.749  1.00  0.00    -0.733 NA 
HETATM   40  C   UNL     1      -9.415  15.471  66.224  1.00  0.00    -0.356 A  
HETATM   41  C   UNL     1      -9.684  14.180  65.719  1.00  0.00    -0.246 A  
HETATM   42  C   UNL     1     -10.780  13.973  64.852  1.00  0.00    -0.432 A  
ENDBRANCH  32  33
ENDBRANCH  27  32
ENDBRANCH  24  27
ENDBRANCH  11  23
ENDBRANCH   7  11
TORSDOF 8
ENDMDL
MODEL      163
REMARK 921   NORMALIZED FREE ENERGY PREDICTED BY IDOCK:   -6.37 KCAL/MOL
REMARK 922        TOTAL FREE ENERGY PREDICTED BY IDOCK:  -11.49 KCAL/MOL
REMARK 923 INTER-LIGAND FREE ENERGY PREDICTED BY IDOCK:   -8.55 KCAL/MOL
REMARK 924 INTRA-LIGAND FREE ENERGY PREDICTED BY IDOCK:   -2.94 KCAL/MOL
REMARK 927      BINDING AFFINITY PREDICTED BY RF-SCORE:    0.00 PKD
ROOT
HETATM    1  C   UNL     1     -14.298  15.166  71.513  1.00  0.00    -0.660 C  
HETATM    2  C   UNL     1     -12.841  14.668  71.435  1.00  0.00    -0.330 C  
HETATM    3  C   UNL     1     -12.069  15.111  70.017  1.00  0.00    -0.345 C  
HETATM    4  N   UNL     1     -12.878  13.179  71.518  1.00  0.00    -0.347 NA 
HETATM    5  C   UNL     1     -12.177  15.167  72.748  1.00  0.00    -0.485 C  
HETATM    6  H2  UNL     1     -13.483  12.755  70.814  1.00  0.00     0.000 HD 
HETATM    7  N   UNL     1     -12.191  14.252  68.919  1.00  0.00    -0.548 N  
HETATM    8  H1  UNL     1     -11.913  12.850  71.466  1.00  0.00     0.000 HD 
HETATM    9  O   UNL     1     -11.450  16.171  69.928  1.00  0.00    -0.324 OA 
HETATM   10  H   UNL     1     -12.603  13.353  69.168  1.00  0.00     0.000 HD 
ENDROOT
BRANCH   7  11
HETATM   11  C   UNL     1     -11.841  14.354  67.393  1.00  0.00    -0.400 C  
BRANCH  11  12
HETATM   12  C   UNL     1     -12.351  13.334  66.271  1.00  0.00    -0.382 C  
BRANCH  12  13
HETATM   13  C   UNL     1     -11.401  12.146  65.765  1.00  0.00    -0.402 A  
HETATM   14  C   UNL     1     -10.924  11.903  64.490  1.00  0.00    -0.322 A  
HETATM   15  C   UNL     1     -10.238   9.498  68.400  1.00  0.00    -0.221 A  
HETATM   16  C   UNL     1      -9.787   8.544  67.493  1.00  0.00    -0.231 A  
HETATM   17  C   UNL     1      -9.777   8.834  66.129  1.00  0.00    -0.320 A  
HETATM   18  N   UNL     1     -10.275  10.670  64.456  1.00  0.00    -0.349 NA 
HETATM   19  C   UNL     1     -10.762  10.730  67.955  1.00  0.00    -0.270 A  
HETATM   20  C   UNL     1     -10.832  11.037  66.570  1.00  0.00    -0.269 A  
HETATM   21  C   UNL     1     -10.270  10.098  65.705  1.00  0.00    -0.213 A  
HETATM   22  H   UNL     1      -9.862  10.252  63.622  1.00  0.00     0.000 HD 
ENDBRANCH  12  13
ENDBRANCH  11  12
BRANCH  11  23
HETATM   23  C   UNL     1     -10.332  14.704  67.298  1.00  0.00    -0.256 C  
HETATM   24  N   UNL     1      -9.487  14.120  68.221  1.00  0.00    -0.207 N  
HETATM   25  H   UNL     1      -9.838  13.386  68.836  1.00  0.00     0.000 HD 
HETATM   26  O   UNL     1      -9.937  15.540  66.480  1.00  0.00    -0.249 OA 
BRANCH  24  27
HETATM   27  C   UNL     1      -8.109  14.543  68.322  1.00  0.00    -0.140 C  
BRANCH  27  28
HETATM   28  N   UNL     1      -7.813  14.826  69.702  1.00  0.00    -0.402 N  
HETATM   29  O   UNL     1      -6.280  16.500  69.265  1.00  0.00    -0.158 OA 
HETATM   30  C   UNL     1      -6.907  15.803  70.049  1.00  0.00     0.058 C  
HETATM   31  H   UNL     1      -8.282  14.295  70.435  1.00  0.00     0.000 HD 
ENDBRANCH  27  28
BRANCH  27  32
HETATM   32  C   UNL     1      -7.036  13.714  67.583  1.00  0.00    -0.183 C  
BRANCH  32  33
HETATM   33  C   UNL     1      -6.811  12.211  67.602  1.00  0.00    -0.119 A  
HETATM   34  C   UNL     1      -6.467   9.949  67.871  1.00  0.00    -0.059 A  
HETATM   35  H   UNL     1      -6.464   9.557  65.790  1.00  0.00     0.000 HD 
HETATM   36  C   UNL     1      -6.271   8.693  68.467  1.00  0.00    -0.053 A  
HETATM   37  C   UNL     1      -6.753  11.570  66.367  1.00  0.00     0.057 A  
HETATM   38  C   UNL     1      -6.188   8.644  69.854  1.00  0.00    -0.034 A  
HETATM   39  N   UNL     1      -6.547  10.240  66.543  1.00  0.00    -0.080 NA 
HETATM   40  C   UNL     1      -6.293   9.815  70.603  1.00  0.00    -0.105 A  
HETATM   41  C   UNL     1      -6.503  11.068  69.987  1.00  0.00    -0.144 A  
HETATM   42  C   UNL     1      -6.602  11.158  68.581  1.00  0.00    -0.059 A  
ENDBRANCH  32  33
ENDBRANCH  27  32
ENDBRANCH  24  27
ENDBRANCH  11  23
ENDBRANCH   7  11
TORSDOF 8
ENDMDL
MODEL      164
REMARK 921   NORMALIZED FREE ENERGY PREDICTED BY IDOCK:   -6.36 KCAL/MOL
REMARK 922        TOTAL FREE ENERGY PREDICTED BY IDOCK:  -11.47 KCAL/MOL
REMARK 923 INTER-LIGAND FREE ENERGY PREDICTED BY IDOCK:  -10.37 KCAL/MOL
REMARK 924 INTRA-LIGAND FREE ENERGY PREDICTED BY IDOCK:   -1.11 KCAL/MOL
REMARK 927      BINDING AFFINITY PREDICTED BY RF-SCORE:    0.00 PKD
ROOT
HETATM    1  C   UNL     1     -12.901  11.904  64.223  1.00  0.00    -0.094 C  
HETATM    2  C   UNL     1     -11.720  12.893  64.268  1.00  0.00    -0.386 C  
HETATM    3  C   UNL     1     -11.213  13.244  65.824  1.00  0.00    -0.294 C  
HETATM    4  N   UNL     1     -12.173  14.154  63.614  1.00  0.00    -1.049 NA 
HETATM    5  C   UNL     1     -10.644  12.273  63.333  1.00  0.00    -0.427 C  
HETATM    6  H2  UNL     1     -13.027  14.533  64.026  1.00  0.00     0.000 HD 
HETATM    7  N   UNL     1     -11.843  14.305  66.485  1.00  0.00    -0.402 N  
HETATM    8  H1  UNL     1     -11.391  14.808  63.644  1.00  0.00     0.000 HD 
HETATM    9  O   UNL     1     -10.349  12.570  66.384  1.00  0.00    -0.237 OA 
HETATM   10  H   UNL     1     -12.430  14.861  65.864  1.00  0.00     0.000 HD 
ENDROOT
BRANCH   7  11
HETATM   11  C   UNL     1     -11.853  14.836  67.962  1.00  0.00    -0.294 C  
BRANCH  11  12
HETATM   12  C   UNL     1     -11.226  16.230  68.432  1.00  0.00    -0.349 C  
BRANCH  12  13
HETATM   13  C   UNL     1      -9.840  16.746  67.810  1.00  0.00    -0.257 A  
HETATM   14  C   UNL     1      -8.698  16.022  67.523  1.00  0.00    -0.182 A  
HETATM   15  C   UNL     1      -9.526  20.556  66.980  1.00  0.00    -0.516 A  
HETATM   16  C   UNL     1      -8.142  20.583  66.832  1.00  0.00    -0.279 A  
HETATM   17  C   UNL     1      -7.415  19.395  66.896  1.00  0.00    -0.239 A  
HETATM   18  N   UNL     1      -7.669  16.888  67.156  1.00  0.00    -0.167 NA 
HETATM   19  C   UNL     1     -10.200  19.352  67.271  1.00  0.00    -0.525 A  
HETATM   20  C   UNL     1      -9.488  18.131  67.412  1.00  0.00    -0.255 A  
HETATM   21  C   UNL     1      -8.118  18.187  67.149  1.00  0.00    -0.221 A  
HETATM   22  H   UNL     1      -6.719  16.599  66.926  1.00  0.00     0.000 HD 
ENDBRANCH  12  13
ENDBRANCH  11  12
BRANCH  11  23
HETATM   23  C   UNL     1     -11.496  13.634  68.877  1.00  0.00    -0.303 C  
HETATM   24  N   UNL     1     -12.530  13.036  69.570  1.00  0.00     0.022 N  
HETATM   25  H   UNL     1     -13.494  13.296  69.364  1.00  0.00     0.000 HD 
HETATM   26  O   UNL     1     -10.318  13.298  69.031  1.00  0.00    -0.115 OA 
BRANCH  24  27
HETATM   27  C   UNL     1     -12.254  12.044  70.583  1.00  0.00    -0.316 C  
BRANCH  27  28
HETATM   28  N   UNL     1     -13.175  12.231  71.674  1.00  0.00    -0.351 N  
HETATM   29  O   UNL     1     -12.731  14.481  71.961  1.00  0.00    -0.319 OA 
HETATM   30  C   UNL     1     -13.330  13.462  72.270  1.00  0.00    -0.544 C  
HETATM   31  H   UNL     1     -13.721  11.438  72.011  1.00  0.00     0.000 HD 
ENDBRANCH  27  28
BRANCH  27  32
HETATM   32  C   UNL     1     -12.063  10.578  70.137  1.00  0.00    -0.380 C  
BRANCH  32  33
HETATM   33  C   UNL     1     -10.799   9.885  69.655  1.00  0.00    -0.281 A  
HETATM   34  C   UNL     1      -8.968   8.860  68.703  1.00  0.00    -0.137 A  
HETATM   35  H   UNL     1      -8.008   8.528  70.560  1.00  0.00     0.000 HD 
HETATM   36  C   UNL     1      -8.085   8.330  67.748  1.00  0.00    -0.127 A  
HETATM   37  C   UNL     1      -9.882   9.503  70.632  1.00  0.00    -0.262 A  
HETATM   38  C   UNL     1      -8.476   8.372  66.415  1.00  0.00    -0.127 A  
HETATM   39  N   UNL     1      -8.812   8.899  70.054  1.00  0.00    -0.150 NA 
HETATM   40  C   UNL     1      -9.709   8.921  66.064  1.00  0.00    -0.308 A  
HETATM   41  C   UNL     1     -10.579   9.461  67.036  1.00  0.00    -0.272 A  
HETATM   42  C   UNL     1     -10.214   9.445  68.400  1.00  0.00    -0.224 A  
ENDBRANCH  32  33
ENDBRANCH  27  32
ENDBRANCH  24  27
ENDBRANCH  11  23
ENDBRANCH   7  11
TORSDOF 8
ENDMDL
MODEL      165
REMARK 921   NORMALIZED FREE ENERGY PREDICTED BY IDOCK:   -6.35 KCAL/MOL
REMARK 922        TOTAL FREE ENERGY PREDICTED BY IDOCK:  -11.46 KCAL/MOL
REMARK 923 INTER-LIGAND FREE ENERGY PREDICTED BY IDOCK:   -9.79 KCAL/MOL
REMARK 924 INTRA-LIGAND FREE ENERGY PREDICTED BY IDOCK:   -1.67 KCAL/MOL
REMARK 927      BINDING AFFINITY PREDICTED BY RF-SCORE:    0.00 PKD
ROOT
HETATM    1  C   UNL     1      -6.844  13.474  68.901  1.00  0.00    -0.111 C  
HETATM    2  C   UNL     1      -6.757  11.937  68.966  1.00  0.00    -0.099 C  
HETATM    3  C   UNL     1      -8.163  11.176  68.470  1.00  0.00    -0.149 C  
HETATM    4  N   UNL     1      -6.486  11.569  70.386  1.00  0.00    -0.514 NA 
HETATM    5  C   UNL     1      -5.476  11.574  68.165  1.00  0.00    -0.042 C  
HETATM    6  H2  UNL     1      -7.169  11.959  71.037  1.00  0.00     0.000 HD 
HETATM    7  N   UNL     1      -9.147  10.944  69.438  1.00  0.00    -0.400 N  
HETATM    8  H1  UNL     1      -6.428  10.552  70.429  1.00  0.00     0.000 HD 
HETATM    9  O   UNL     1      -8.344  10.868  67.293  1.00  0.00    -0.120 OA 
HETATM   10  H   UNL     1      -8.814  11.115  70.386  1.00  0.00     0.000 HD 
ENDROOT
BRANCH   7  11
HETATM   11  C   UNL     1     -10.646  10.481  69.399  1.00  0.00    -0.240 C  
BRANCH  11  12
HETATM   12  C   UNL     1     -11.903  11.468  69.329  1.00  0.00    -0.414 C  
BRANCH  12  13
HETATM   13  C   UNL     1     -11.722  13.031  69.641  1.00  0.00    -0.364 A  
HETATM   14  C   UNL     1     -11.006  13.977  68.932  1.00  0.00    -0.259 A  
HETATM   15  C   UNL     1     -13.477  14.465  72.831  1.00  0.00    -0.516 A  
HETATM   16  C   UNL     1     -12.779  15.668  72.880  1.00  0.00    -0.559 A  
HETATM   17  C   UNL     1     -11.890  15.996  71.858  1.00  0.00    -0.619 A  
HETATM   18  N   UNL     1     -10.971  15.176  69.645  1.00  0.00    -0.267 NA 
HETATM   19  C   UNL     1     -13.239  13.531  71.800  1.00  0.00    -0.490 A  
HETATM   20  C   UNL     1     -12.290  13.798  70.777  1.00  0.00    -0.451 A  
HETATM   21  C   UNL     1     -11.695  15.060  70.807  1.00  0.00    -0.320 A  
HETATM   22  H   UNL     1     -10.479  16.017  69.346  1.00  0.00     0.000 HD 
ENDBRANCH  12  13
ENDBRANCH  11  12
BRANCH  11  23
HETATM   23  C   UNL     1     -10.792   9.334  70.434  1.00  0.00    -0.254 C  
HETATM   24  N   UNL     1     -11.752   8.373  70.185  1.00  0.00    -0.454 N  
HETATM   25  H   UNL     1     -12.233   8.359  69.285  1.00  0.00     0.000 HD 
HETATM   26  O   UNL     1     -10.127   9.346  71.474  1.00  0.00    -0.288 OA 
BRANCH  24  27
HETATM   27  C   UNL     1     -12.080   7.388  71.190  1.00  0.00    -0.325 C  
BRANCH  27  28
HETATM   28  N   UNL     1     -13.495   7.127  71.135  1.00  0.00    -0.521 N  
HETATM   29  O   UNL     1     -14.138   9.208  71.909  1.00  0.00    -0.358 OA 
HETATM   30  C   UNL     1     -14.409   8.087  71.507  1.00  0.00    -0.434 C  
HETATM   31  H   UNL     1     -13.826   6.217  70.817  1.00  0.00     0.000 HD 
ENDBRANCH  27  28
BRANCH  27  32
HETATM   32  C   UNL     1     -11.190   6.131  71.297  1.00  0.00    -0.348 C  
BRANCH  32  33
HETATM   33  C   UNL     1      -9.707   6.037  71.615  1.00  0.00    -0.180 A  
HETATM   34  C   UNL     1      -7.422   6.042  71.912  1.00  0.00    -0.095 A  
HETATM   35  H   UNL     1      -7.491   4.739  73.578  1.00  0.00     0.000 HD 
HETATM   36  C   UNL     1      -6.057   6.326  71.741  1.00  0.00    -0.041 A  
HETATM   37  C   UNL     1      -9.347   5.238  72.697  1.00  0.00    -0.137 A  
HETATM   38  C   UNL     1      -5.697   7.143  70.676  1.00  0.00    -0.027 A  
HETATM   39  N   UNL     1      -7.999   5.250  72.856  1.00  0.00    -0.102 NA 
HETATM   40  C   UNL     1      -6.674   7.647  69.818  1.00  0.00    -0.039 A  
HETATM   41  C   UNL     1      -8.043   7.362  70.013  1.00  0.00    -0.129 A  
HETATM   42  C   UNL     1      -8.450   6.543  71.089  1.00  0.00    -0.126 A  
ENDBRANCH  32  33
ENDBRANCH  27  32
ENDBRANCH  24  27
ENDBRANCH  11  23
ENDBRANCH   7  11
TORSDOF 8
ENDMDL
MODEL      166
REMARK 921   NORMALIZED FREE ENERGY PREDICTED BY IDOCK:   -6.34 KCAL/MOL
REMARK 922        TOTAL FREE ENERGY PREDICTED BY IDOCK:  -11.45 KCAL/MOL
REMARK 923 INTER-LIGAND FREE ENERGY PREDICTED BY IDOCK:   -9.07 KCAL/MOL
REMARK 924 INTRA-LIGAND FREE ENERGY PREDICTED BY IDOCK:   -2.38 KCAL/MOL
REMARK 927      BINDING AFFINITY PREDICTED BY RF-SCORE:    0.00 PKD
ROOT
HETATM    1  C   UNL     1      -8.885   4.357  66.712  1.00  0.00    -0.114 C  
HETATM    2  C   UNL     1      -8.985   5.779  66.128  1.00  0.00    -0.149 C  
HETATM    3  C   UNL     1      -8.125   6.915  67.008  1.00  0.00    -0.117 C  
HETATM    4  N   UNL     1     -10.427   6.159  66.132  1.00  0.00    -0.433 NA 
HETATM    5  C   UNL     1      -8.573   5.630  64.637  1.00  0.00    -0.029 C  
HETATM    6  H2  UNL     1     -10.860   6.074  67.052  1.00  0.00     0.000 HD 
HETATM    7  N   UNL     1      -8.784   7.541  68.072  1.00  0.00    -0.122 N  
HETATM    8  H1  UNL     1     -10.493   7.101  65.745  1.00  0.00     0.000 HD 
HETATM    9  O   UNL     1      -6.946   7.162  66.757  1.00  0.00    -0.069 OA 
HETATM   10  H   UNL     1      -9.786   7.352  68.079  1.00  0.00     0.000 HD 
ENDROOT
BRANCH   7  11
HETATM   11  C   UNL     1      -8.335   8.466  69.258  1.00  0.00    -0.121 C  
BRANCH  11  12
HETATM   12  C   UNL     1      -8.870   8.344  70.760  1.00  0.00    -0.171 C  
BRANCH  12  13
HETATM   13  C   UNL     1     -10.273   7.629  71.065  1.00  0.00    -0.200 A  
HETATM   14  C   UNL     1     -10.590   6.285  71.002  1.00  0.00    -0.238 A  
HETATM   15  C   UNL     1     -13.284   9.900  72.105  1.00  0.00    -0.511 A  
HETATM   16  C   UNL     1     -14.286   8.952  71.911  1.00  0.00    -0.421 A  
HETATM   17  C   UNL     1     -13.944   7.643  71.573  1.00  0.00    -0.500 A  
HETATM   18  N   UNL     1     -11.963   6.115  71.177  1.00  0.00    -0.080 NA 
HETATM   19  C   UNL     1     -11.928   9.576  71.889  1.00  0.00    -0.381 A  
HETATM   20  C   UNL     1     -11.545   8.272  71.478  1.00  0.00    -0.326 A  
HETATM   21  C   UNL     1     -12.570   7.328  71.400  1.00  0.00    -0.388 A  
HETATM   22  H   UNL     1     -12.448   5.219  71.142  1.00  0.00     0.000 HD 
ENDBRANCH  12  13
ENDBRANCH  11  12
BRANCH  11  23
HETATM   23  C   UNL     1      -8.297   9.917  68.709  1.00  0.00    -0.116 C  
HETATM   24  N   UNL     1      -9.300  10.291  67.836  1.00  0.00    -0.138 N  
HETATM   25  H   UNL     1     -10.096   9.672  67.685  1.00  0.00     0.000 HD 
HETATM   26  O   UNL     1      -7.353  10.663  68.987  1.00  0.00    -0.088 OA 
BRANCH  24  27
HETATM   27  C   UNL     1      -9.227  11.552  67.135  1.00  0.00    -0.169 C  
BRANCH  27  28
HETATM   28  N   UNL     1      -8.458  11.367  65.931  1.00  0.00    -0.354 N  
HETATM   29  O   UNL     1      -9.687   9.571  65.154  1.00  0.00    -0.277 OA 
HETATM   30  C   UNL     1      -8.772  10.372  65.034  1.00  0.00    -0.182 C  
HETATM   31  H   UNL     1      -7.669  11.984  65.740  1.00  0.00     0.000 HD 
ENDBRANCH  27  28
BRANCH  27  32
HETATM   32  C   UNL     1     -10.527  12.365  66.959  1.00  0.00    -0.238 C  
BRANCH  32  33
HETATM   33  C   UNL     1     -11.062  13.506  67.809  1.00  0.00    -0.291 A  
HETATM   34  C   UNL     1     -11.912  15.072  69.270  1.00  0.00    -0.289 A  
HETATM   35  H   UNL     1     -11.652  16.682  67.920  1.00  0.00     0.000 HD 
HETATM   36  C   UNL     1     -12.462  15.660  70.420  1.00  0.00    -0.409 A  
HETATM   37  C   UNL     1     -11.048  14.775  67.236  1.00  0.00    -0.332 A  
HETATM   38  C   UNL     1     -12.780  14.823  71.482  1.00  0.00    -0.401 A  
HETATM   39  N   UNL     1     -11.554  15.685  68.108  1.00  0.00    -0.330 NA 
HETATM   40  C   UNL     1     -12.558  13.450  71.383  1.00  0.00    -0.374 A  
HETATM   41  C   UNL     1     -11.992  12.878  70.224  1.00  0.00    -0.359 A  
HETATM   42  C   UNL     1     -11.646  13.696  69.127  1.00  0.00    -0.356 A  
ENDBRANCH  32  33
ENDBRANCH  27  32
ENDBRANCH  24  27
ENDBRANCH  11  23
ENDBRANCH   7  11
TORSDOF 8
ENDMDL
MODEL      167
REMARK 921   NORMALIZED FREE ENERGY PREDICTED BY IDOCK:   -6.34 KCAL/MOL
REMARK 922        TOTAL FREE ENERGY PREDICTED BY IDOCK:  -11.45 KCAL/MOL
REMARK 923 INTER-LIGAND FREE ENERGY PREDICTED BY IDOCK:   -9.34 KCAL/MOL
REMARK 924 INTRA-LIGAND FREE ENERGY PREDICTED BY IDOCK:   -2.10 KCAL/MOL
REMARK 927      BINDING AFFINITY PREDICTED BY RF-SCORE:    0.00 PKD
ROOT
HETATM    1  C   UNL     1     -12.952   9.517  70.670  1.00  0.00     0.044 C  
HETATM    2  C   UNL     1     -11.915  10.602  70.322  1.00  0.00    -0.339 C  
HETATM    3  C   UNL     1     -11.616  10.726  68.679  1.00  0.00    -0.272 C  
HETATM    4  N   UNL     1     -10.645  10.240  71.016  1.00  0.00    -0.116 NA 
HETATM    5  C   UNL     1     -12.440  11.893  71.010  1.00  0.00    -0.390 C  
HETATM    6  H2  UNL     1     -10.325   9.296  70.795  1.00  0.00     0.000 HD 
HETATM    7  N   UNL     1     -10.617   9.907  68.141  1.00  0.00    -0.213 N  
HETATM    8  H1  UNL     1      -9.958  10.958  70.785  1.00  0.00     0.000 HD 
HETATM    9  O   UNL     1     -12.276  11.477  67.962  1.00  0.00    -0.582 OA 
HETATM   10  H   UNL     1     -10.059   9.445  68.859  1.00  0.00     0.000 HD 
ENDROOT
BRANCH   7  11
HETATM   11  C   UNL     1     -10.158   9.535  66.687  1.00  0.00    -0.252 C  
BRANCH  11  12
HETATM   12  C   UNL     1      -9.175   8.327  66.323  1.00  0.00    -0.258 C  
BRANCH  12  13
HETATM   13  C   UNL     1      -9.365   6.893  67.015  1.00  0.00    -0.170 A  
HETATM   14  C   UNL     1      -9.603   5.669  66.418  1.00  0.00    -0.157 A  
HETATM   15  C   UNL     1      -9.178   6.718  70.920  1.00  0.00    -0.157 A  
HETATM   16  C   UNL     1      -9.731   5.447  71.058  1.00  0.00    -0.235 A  
HETATM   17  C   UNL     1     -10.023   4.692  69.924  1.00  0.00    -0.296 A  
HETATM   18  N   UNL     1      -9.875   4.712  67.395  1.00  0.00    -0.176 NA 
HETATM   19  C   UNL     1      -8.982   7.287  69.644  1.00  0.00    -0.141 A  
HETATM   20  C   UNL     1      -9.330   6.576  68.464  1.00  0.00    -0.123 A  
HETATM   21  C   UNL     1      -9.779   5.267  68.648  1.00  0.00    -0.145 A  
HETATM   22  H   UNL     1     -10.112   3.738  67.206  1.00  0.00     0.000 HD 
ENDBRANCH  12  13
ENDBRANCH  11  12
BRANCH  11  23
HETATM   23  C   UNL     1      -9.826  10.868  65.964  1.00  0.00    -0.233 C  
HETATM   24  N   UNL     1     -10.883  11.576  65.424  1.00  0.00    -0.280 N  
HETATM   25  H   UNL     1     -11.840  11.291  65.629  1.00  0.00     0.000 HD 
HETATM   26  O   UNL     1      -8.652  11.218  65.812  1.00  0.00    -0.160 OA 
BRANCH  24  27
HETATM   27  C   UNL     1     -10.639  12.718  64.574  1.00  0.00    -0.360 C  
BRANCH  27  28
HETATM   28  N   UNL     1     -11.289  12.497  63.308  1.00  0.00    -0.719 N  
HETATM   29  O   UNL     1     -13.379  12.070  64.199  1.00  0.00    -0.725 OA 
HETATM   30  C   UNL     1     -12.629  12.189  63.241  1.00  0.00    -0.368 C  
HETATM   31  H   UNL     1     -10.748  12.569  62.446  1.00  0.00     0.000 HD 
ENDBRANCH  27  28
BRANCH  27  32
HETATM   32  C   UNL     1     -10.838  14.128  65.170  1.00  0.00    -0.380 C  
BRANCH  32  33
HETATM   33  C   UNL     1     -10.382  14.668  66.515  1.00  0.00    -0.283 A  
HETATM   34  C   UNL     1      -9.915  15.451  68.631  1.00  0.00    -0.210 A  
HETATM   35  H   UNL     1      -7.880  15.840  68.194  1.00  0.00     0.000 HD 
HETATM   36  C   UNL     1     -10.065  15.826  69.976  1.00  0.00    -0.174 A  
HETATM   37  C   UNL     1      -9.045  15.042  66.620  1.00  0.00    -0.280 A  
HETATM   38  C   UNL     1     -11.332  15.716  70.538  1.00  0.00    -0.386 A  
HETATM   39  N   UNL     1      -8.787  15.503  67.871  1.00  0.00    -0.170 NA 
HETATM   40  C   UNL     1     -12.400  15.252  69.771  1.00  0.00    -0.288 A  
HETATM   41  C   UNL     1     -12.228  14.868  68.424  1.00  0.00    -0.053 A  
HETATM   42  C   UNL     1     -10.955  14.956  67.820  1.00  0.00    -0.294 A  
ENDBRANCH  32  33
ENDBRANCH  27  32
ENDBRANCH  24  27
ENDBRANCH  11  23
ENDBRANCH   7  11
TORSDOF 8
ENDMDL
MODEL      168
REMARK 921   NORMALIZED FREE ENERGY PREDICTED BY IDOCK:   -6.33 KCAL/MOL
REMARK 922        TOTAL FREE ENERGY PREDICTED BY IDOCK:  -11.44 KCAL/MOL
REMARK 923 INTER-LIGAND FREE ENERGY PREDICTED BY IDOCK:   -9.21 KCAL/MOL
REMARK 924 INTRA-LIGAND FREE ENERGY PREDICTED BY IDOCK:   -2.23 KCAL/MOL
REMARK 927      BINDING AFFINITY PREDICTED BY RF-SCORE:    0.00 PKD
ROOT
HETATM    1  C   UNL     1      -8.332   6.469  71.445  1.00  0.00    -0.125 C  
HETATM    2  C   UNL     1      -9.836   6.804  71.472  1.00  0.00    -0.170 C  
HETATM    3  C   UNL     1     -10.307   7.820  70.228  1.00  0.00    -0.215 C  
HETATM    4  N   UNL     1     -10.116   7.475  72.774  1.00  0.00    -0.217 NA 
HETATM    5  C   UNL     1     -10.552   5.426  71.523  1.00  0.00    -0.285 C  
HETATM    6  H2  UNL     1      -9.523   8.289  72.939  1.00  0.00     0.000 HD 
HETATM    7  N   UNL     1     -10.218   9.199  70.452  1.00  0.00    -0.206 N  
HETATM    8  H1  UNL     1     -11.112   7.697  72.792  1.00  0.00     0.000 HD 
HETATM    9  O   UNL     1     -10.679   7.376  69.143  1.00  0.00    -0.217 OA 
HETATM   10  H   UNL     1     -10.036   9.427  71.429  1.00  0.00     0.000 HD 
ENDROOT
BRANCH   7  11
HETATM   11  C   UNL     1     -10.335  10.475  69.546  1.00  0.00    -0.221 C  
BRANCH  11  12
HETATM   12  C   UNL     1     -11.497  10.728  68.476  1.00  0.00    -0.362 C  
BRANCH  12  13
HETATM   13  C   UNL     1     -11.723  12.190  67.857  1.00  0.00    -0.403 A  
HETATM   14  C   UNL     1     -12.027  13.369  68.512  1.00  0.00    -0.328 A  
HETATM   15  C   UNL     1     -11.430  12.588  63.975  1.00  0.00    -0.476 A  
HETATM   16  C   UNL     1     -12.028  13.842  63.888  1.00  0.00    -0.414 A  
HETATM   17  C   UNL     1     -12.383  14.522  65.052  1.00  0.00    -0.353 A  
HETATM   18  N   UNL     1     -12.308  14.368  67.580  1.00  0.00    -0.600 NA 
HETATM   19  C   UNL     1     -11.248  11.957  65.224  1.00  0.00    -0.351 A  
HETATM   20  C   UNL     1     -11.659  12.587  66.429  1.00  0.00    -0.449 A  
HETATM   21  C   UNL     1     -12.153  13.887  66.302  1.00  0.00    -0.451 A  
HETATM   22  H   UNL     1     -12.588  15.320  67.814  1.00  0.00     0.000 HD 
ENDBRANCH  12  13
ENDBRANCH  11  12
BRANCH  11  23
HETATM   23  C   UNL     1      -8.908  10.792  69.025  1.00  0.00    -0.127 C  
HETATM   24  N   UNL     1      -8.800  11.332  67.758  1.00  0.00    -0.138 N  
HETATM   25  H   UNL     1      -9.639  11.632  67.263  1.00  0.00     0.000 HD 
HETATM   26  O   UNL     1      -7.919  10.486  69.697  1.00  0.00    -0.143 OA 
BRANCH  24  27
HETATM   27  C   UNL     1      -7.506  11.473  67.131  1.00  0.00    -0.142 C  
BRANCH  27  28
HETATM   28  N   UNL     1      -7.632  11.139  65.736  1.00  0.00    -0.368 N  
HETATM   29  O   UNL     1      -8.521   9.035  66.086  1.00  0.00    -0.119 OA 
HETATM   30  C   UNL     1      -8.142   9.924  65.338  1.00  0.00    -0.137 C  
HETATM   31  H   UNL     1      -7.338  11.815  65.030  1.00  0.00     0.000 HD 
ENDBRANCH  27  28
BRANCH  27  32
HETATM   32  C   UNL     1      -6.689  12.749  67.425  1.00  0.00    -0.138 C  
BRANCH  32  33
HETATM   33  C   UNL     1      -7.173  14.095  67.938  1.00  0.00    -0.165 A  
HETATM   34  C   UNL     1      -8.050  16.143  68.524  1.00  0.00    -0.181 A  
HETATM   35  H   UNL     1      -6.887  16.298  70.287  1.00  0.00     0.000 HD 
HETATM   36  C   UNL     1      -8.819  17.318  68.504  1.00  0.00    -0.269 A  
HETATM   37  C   UNL     1      -6.613  14.549  69.130  1.00  0.00    -0.111 A  
HETATM   38  C   UNL     1      -9.666  17.515  67.420  1.00  0.00    -0.274 A  
HETATM   39  N   UNL     1      -7.139  15.757  69.459  1.00  0.00    -0.202 NA 
HETATM   40  C   UNL     1      -9.729  16.567  66.400  1.00  0.00    -0.305 A  
HETATM   41  C   UNL     1      -8.959  15.385  66.443  1.00  0.00    -0.351 A  
HETATM   42  C   UNL     1      -8.093  15.145  67.532  1.00  0.00    -0.196 A  
ENDBRANCH  32  33
ENDBRANCH  27  32
ENDBRANCH  24  27
ENDBRANCH  11  23
ENDBRANCH   7  11
TORSDOF 8
ENDMDL
MODEL      169
REMARK 921   NORMALIZED FREE ENERGY PREDICTED BY IDOCK:   -6.33 KCAL/MOL
REMARK 922        TOTAL FREE ENERGY PREDICTED BY IDOCK:  -11.43 KCAL/MOL
REMARK 923 INTER-LIGAND FREE ENERGY PREDICTED BY IDOCK:  -10.86 KCAL/MOL
REMARK 924 INTRA-LIGAND FREE ENERGY PREDICTED BY IDOCK:   -0.58 KCAL/MOL
REMARK 927      BINDING AFFINITY PREDICTED BY RF-SCORE:    0.00 PKD
ROOT
HETATM    1  C   UNL     1     -11.496  13.989  64.228  1.00  0.00    -0.314 C  
HETATM    2  C   UNL     1     -11.541  12.451  64.307  1.00  0.00    -0.368 C  
HETATM    3  C   UNL     1     -11.166  11.857  65.827  1.00  0.00    -0.312 C  
HETATM    4  N   UNL     1     -10.545  11.927  63.327  1.00  0.00    -0.632 NA 
HETATM    5  C   UNL     1     -12.943  12.063  63.760  1.00  0.00    -0.331 C  
HETATM    6  H2  UNL     1      -9.609  12.307  63.469  1.00  0.00     0.000 HD 
HETATM    7  N   UNL     1      -9.817  11.615  66.110  1.00  0.00    -0.216 N  
HETATM    8  H1  UNL     1     -10.576  10.909  63.380  1.00  0.00     0.000 HD 
HETATM    9  O   UNL     1     -12.035  11.680  66.679  1.00  0.00    -0.503 OA 
HETATM   10  H   UNL     1      -9.226  11.667  65.281  1.00  0.00     0.000 HD 
ENDROOT
BRANCH   7  11
HETATM   11  C   UNL     1      -9.004  11.282  67.411  1.00  0.00    -0.144 C  
BRANCH  11  12
HETATM   12  C   UNL     1      -9.222   9.978  68.311  1.00  0.00    -0.129 C  
BRANCH  12  13
HETATM   13  C   UNL     1     -10.442   9.905  69.349  1.00  0.00    -0.250 A  
HETATM   14  C   UNL     1     -11.185  10.941  69.884  1.00  0.00    -0.282 A  
HETATM   15  C   UNL     1     -11.529   6.373  70.634  1.00  0.00    -0.426 A  
HETATM   16  C   UNL     1     -12.302   6.813  71.705  1.00  0.00    -0.409 A  
HETATM   17  C   UNL     1     -12.518   8.178  71.888  1.00  0.00    -0.368 A  
HETATM   18  N   UNL     1     -12.034  10.449  70.876  1.00  0.00    -0.348 NA 
HETATM   19  C   UNL     1     -10.893   7.292  69.773  1.00  0.00    -0.251 A  
HETATM   20  C   UNL     1     -11.032   8.692  69.967  1.00  0.00    -0.208 A  
HETATM   21  C   UNL     1     -11.902   9.086  70.985  1.00  0.00    -0.285 A  
HETATM   22  H   UNL     1     -12.662  11.021  71.440  1.00  0.00     0.000 HD 
ENDBRANCH  12  13
ENDBRANCH  11  12
BRANCH  11  23
HETATM   23  C   UNL     1      -8.882  12.602  68.218  1.00  0.00    -0.172 C  
HETATM   24  N   UNL     1     -10.000  13.411  68.282  1.00  0.00    -0.237 N  
HETATM   25  H   UNL     1     -10.893  13.069  67.929  1.00  0.00     0.000 HD 
HETATM   26  O   UNL     1      -7.797  12.938  68.702  1.00  0.00    -0.120 OA 
BRANCH  24  27
HETATM   27  C   UNL     1      -9.910  14.738  68.846  1.00  0.00    -0.222 C  
BRANCH  27  28
HETATM   28  N   UNL     1     -10.487  14.719  70.166  1.00  0.00    -0.472 N  
HETATM   29  O   UNL     1     -12.588  14.038  69.483  1.00  0.00    -0.222 OA 
HETATM   30  C   UNL     1     -11.802  14.359  70.361  1.00  0.00    -0.312 C  
HETATM   31  H   UNL     1      -9.913  14.975  70.968  1.00  0.00     0.000 HD 
ENDBRANCH  27  28
BRANCH  27  32
HETATM   32  C   UNL     1      -8.566  15.489  68.735  1.00  0.00    -0.188 C  
BRANCH  32  33
HETATM   33  C   UNL     1      -8.317  16.963  68.456  1.00  0.00    -0.257 A  
HETATM   34  C   UNL     1      -8.165  19.206  67.952  1.00  0.00    -0.290 A  
HETATM   35  H   UNL     1      -6.163  19.367  68.619  1.00  0.00     0.000 HD 
HETATM   36  C   UNL     1      -8.500  20.500  67.521  1.00  0.00    -0.316 A  
HETATM   37  C   UNL     1      -7.057  17.458  68.782  1.00  0.00    -0.246 A  
HETATM   38  C   UNL     1      -9.767  20.693  66.985  1.00  0.00    -0.485 A  
HETATM   39  N   UNL     1      -6.984  18.779  68.477  1.00  0.00    -0.256 NA 
HETATM   40  C   UNL     1     -10.656  19.623  66.884  1.00  0.00    -0.603 A  
HETATM   41  C   UNL     1     -10.307  18.332  67.335  1.00  0.00    -0.409 A  
HETATM   42  C   UNL     1      -9.032  18.097  67.894  1.00  0.00    -0.273 A  
ENDBRANCH  32  33
ENDBRANCH  27  32
ENDBRANCH  24  27
ENDBRANCH  11  23
ENDBRANCH   7  11
TORSDOF 8
ENDMDL
MODEL      170
REMARK 921   NORMALIZED FREE ENERGY PREDICTED BY IDOCK:   -6.32 KCAL/MOL
REMARK 922        TOTAL FREE ENERGY PREDICTED BY IDOCK:  -11.42 KCAL/MOL
REMARK 923 INTER-LIGAND FREE ENERGY PREDICTED BY IDOCK:   -9.15 KCAL/MOL
REMARK 924 INTRA-LIGAND FREE ENERGY PREDICTED BY IDOCK:   -2.27 KCAL/MOL
REMARK 927      BINDING AFFINITY PREDICTED BY RF-SCORE:    0.00 PKD
ROOT
HETATM    1  C   UNL     1     -10.472   7.573  73.227  1.00  0.00    -0.426 C  
HETATM    2  C   UNL     1     -11.691   7.628  72.286  1.00  0.00    -0.324 C  
HETATM    3  C   UNL     1     -11.391   8.463  70.866  1.00  0.00    -0.268 C  
HETATM    4  N   UNL     1     -12.790   8.314  73.024  1.00  0.00    -0.537 NA 
HETATM    5  C   UNL     1     -12.132   6.147  72.116  1.00  0.00    -0.263 C  
HETATM    6  H2  UNL     1     -12.520   9.232  73.380  1.00  0.00     0.000 HD 
HETATM    7  N   UNL     1     -11.608   9.845  70.872  1.00  0.00    -0.343 N  
HETATM    8  H1  UNL     1     -13.597   8.350  72.401  1.00  0.00     0.000 HD 
HETATM    9  O   UNL     1     -10.957   7.892  69.866  1.00  0.00    -0.243 OA 
HETATM   10  H   UNL     1     -12.099  10.162  71.708  1.00  0.00     0.000 HD 
ENDROOT
BRANCH   7  11
HETATM   11  C   UNL     1     -11.271  11.020  69.887  1.00  0.00    -0.252 C  
BRANCH  11  12
HETATM   12  C   UNL     1     -12.273  12.208  69.510  1.00  0.00    -0.169 C  
BRANCH  12  13
HETATM   13  C   UNL     1     -11.862  13.733  69.786  1.00  0.00    -0.394 A  
HETATM   14  C   UNL     1     -12.547  14.698  70.500  1.00  0.00    -0.350 A  
HETATM   15  C   UNL     1      -8.499  15.016  68.251  1.00  0.00    -0.147 A  
HETATM   16  C   UNL     1      -8.740  16.375  68.427  1.00  0.00    -0.213 A  
HETATM   17  C   UNL     1      -9.884  16.794  69.107  1.00  0.00    -0.228 A  
HETATM   18  N   UNL     1     -11.920  15.935  70.346  1.00  0.00    -0.373 NA 
HETATM   19  C   UNL     1      -9.434  14.052  68.682  1.00  0.00    -0.142 A  
HETATM   20  C   UNL     1     -10.644  14.440  69.318  1.00  0.00    -0.190 A  
HETATM   21  C   UNL     1     -10.793  15.805  69.570  1.00  0.00    -0.287 A  
HETATM   22  H   UNL     1     -12.250  16.810  70.751  1.00  0.00     0.000 HD 
ENDBRANCH  12  13
ENDBRANCH  11  12
BRANCH  11  23
HETATM   23  C   UNL     1     -10.536  10.394  68.672  1.00  0.00    -0.196 C  
HETATM   24  N   UNL     1      -9.155  10.388  68.701  1.00  0.00    -0.149 N  
HETATM   25  H   UNL     1      -8.665  10.656  69.554  1.00  0.00     0.000 HD 
HETATM   26  O   UNL     1     -11.176  10.003  67.692  1.00  0.00    -0.248 OA 
BRANCH  24  27
HETATM   27  C   UNL     1      -8.401  10.003  67.531  1.00  0.00    -0.118 C  
BRANCH  27  28
HETATM   28  N   UNL     1      -8.762   8.655  67.173  1.00  0.00    -0.127 N  
HETATM   29  O   UNL     1      -7.406   7.634  68.742  1.00  0.00    -0.086 OA 
HETATM   30  C   UNL     1      -8.218   7.575  67.831  1.00  0.00    -0.123 C  
HETATM   31  H   UNL     1      -9.431   8.498  66.420  1.00  0.00     0.000 HD 
ENDBRANCH  27  28
BRANCH  27  32
HETATM   32  C   UNL     1      -8.331  10.993  66.349  1.00  0.00    -0.165 C  
BRANCH  32  33
HETATM   33  C   UNL     1      -9.387  11.303  65.301  1.00  0.00    -0.225 A  
HETATM   34  C   UNL     1     -11.088  11.919  63.874  1.00  0.00    -0.412 A  
HETATM   35  H   UNL     1     -10.392  10.702  62.288  1.00  0.00     0.000 HD 
HETATM   36  C   UNL     1     -12.236  12.545  63.363  1.00  0.00    -0.613 A  
HETATM   37  C   UNL     1      -9.256  10.665  64.071  1.00  0.00    -0.239 A  
HETATM   38  C   UNL     1     -12.941  13.391  64.210  1.00  0.00     0.251 A  
HETATM   39  N   UNL     1     -10.267  11.037  63.244  1.00  0.00    -0.338 NA 
HETATM   40  C   UNL     1     -12.507  13.591  65.520  1.00  0.00    -0.538 A  
HETATM   41  C   UNL     1     -11.344  12.963  66.014  1.00  0.00    -0.354 A  
HETATM   42  C   UNL     1     -10.594  12.104  65.181  1.00  0.00    -0.324 A  
ENDBRANCH  32  33
ENDBRANCH  27  32
ENDBRANCH  24  27
ENDBRANCH  11  23
ENDBRANCH   7  11
TORSDOF 8
ENDMDL
MODEL      171
REMARK 921   NORMALIZED FREE ENERGY PREDICTED BY IDOCK:   -6.31 KCAL/MOL
REMARK 922        TOTAL FREE ENERGY PREDICTED BY IDOCK:  -11.41 KCAL/MOL
REMARK 923 INTER-LIGAND FREE ENERGY PREDICTED BY IDOCK:   -9.64 KCAL/MOL
REMARK 924 INTRA-LIGAND FREE ENERGY PREDICTED BY IDOCK:   -1.77 KCAL/MOL
REMARK 927      BINDING AFFINITY PREDICTED BY RF-SCORE:    0.00 PKD
ROOT
HETATM    1  C   UNL     1     -11.386   9.250  71.704  1.00  0.00    -0.467 C  
HETATM    2  C   UNL     1     -10.810   8.881  70.323  1.00  0.00    -0.239 C  
HETATM    3  C   UNL     1     -10.441  10.217  69.384  1.00  0.00    -0.236 C  
HETATM    4  N   UNL     1     -11.840   8.066  69.617  1.00  0.00     0.062 NA 
HETATM    5  C   UNL     1      -9.623   7.925  70.628  1.00  0.00    -0.167 C  
HETATM    6  H2  UNL     1     -12.747   8.532  69.560  1.00  0.00     0.000 HD 
HETATM    7  N   UNL     1     -11.459  10.740  68.578  1.00  0.00    -0.347 N  
HETATM    8  H1  UNL     1     -11.458   7.822  68.703  1.00  0.00     0.000 HD 
HETATM    9  O   UNL     1      -9.332  10.748  69.431  1.00  0.00    -0.131 OA 
HETATM   10  H   UNL     1     -12.273  10.128  68.526  1.00  0.00     0.000 HD 
ENDROOT
BRANCH   7  11
HETATM   11  C   UNL     1     -11.636  12.052  67.734  1.00  0.00    -0.330 C  
BRANCH  11  12
HETATM   12  C   UNL     1     -11.852  12.093  66.150  1.00  0.00    -0.327 C  
BRANCH  12  13
HETATM   13  C   UNL     1     -10.625  11.805  65.158  1.00  0.00    -0.332 A  
HETATM   14  C   UNL     1     -10.126  12.603  64.145  1.00  0.00    -0.267 A  
HETATM   15  C   UNL     1      -8.736   8.400  65.542  1.00  0.00    -0.196 A  
HETATM   16  C   UNL     1      -8.061   8.444  64.325  1.00  0.00    -0.151 A  
HETATM   17  C   UNL     1      -8.157   9.577  63.519  1.00  0.00    -0.151 A  
HETATM   18  N   UNL     1      -9.167  11.898  63.418  1.00  0.00    -0.608 NA 
HETATM   19  C   UNL     1      -9.582   9.457  65.939  1.00  0.00    -0.338 A  
HETATM   20  C   UNL     1      -9.761  10.600  65.114  1.00  0.00    -0.327 A  
HETATM   21  C   UNL     1      -8.983  10.648  63.957  1.00  0.00    -0.196 A  
HETATM   22  H   UNL     1      -8.674  12.260  62.602  1.00  0.00     0.000 HD 
ENDBRANCH  12  13
ENDBRANCH  11  12
BRANCH  11  23
HETATM   23  C   UNL     1     -10.593  13.073  68.263  1.00  0.00    -0.247 C  
HETATM   24  N   UNL     1      -9.322  13.018  67.726  1.00  0.00    -0.192 N  
HETATM   25  H   UNL     1      -9.139  12.421  66.919  1.00  0.00     0.000 HD 
HETATM   26  O   UNL     1     -10.884  13.836  69.189  1.00  0.00    -0.237 OA 
BRANCH  24  27
HETATM   27  C   UNL     1      -8.251  13.799  68.299  1.00  0.00    -0.156 C  
BRANCH  27  28
HETATM   28  N   UNL     1      -7.180  12.910  68.671  1.00  0.00    -0.099 N  
HETATM   29  O   UNL     1      -7.011  11.885  66.606  1.00  0.00    -0.057 OA 
HETATM   30  C   UNL     1      -6.649  12.020  67.765  1.00  0.00    -0.093 C  
HETATM   31  H   UNL     1      -6.809  12.941  69.620  1.00  0.00     0.000 HD 
ENDBRANCH  27  28
BRANCH  27  32
HETATM   32  C   UNL     1      -7.807  15.080  67.562  1.00  0.00    -0.203 C  
BRANCH  32  33
HETATM   33  C   UNL     1      -8.665  16.186  66.970  1.00  0.00    -0.228 A  
HETATM   34  C   UNL     1      -9.862  18.011  66.230  1.00  0.00    -0.307 A  
HETATM   35  H   UNL     1     -10.920  16.904  64.768  1.00  0.00     0.000 HD 
HETATM   36  C   UNL     1     -10.341  19.323  66.095  1.00  0.00    -0.578 A  
HETATM   37  C   UNL     1      -9.526  15.826  65.936  1.00  0.00    -0.342 A  
HETATM   38  C   UNL     1      -9.845  20.284  66.968  1.00  0.00    -0.607 A  
HETATM   39  N   UNL     1     -10.224  16.911  65.513  1.00  0.00    -0.614 NA 
HETATM   40  C   UNL     1      -8.909  19.930  67.939  1.00  0.00    -0.365 A  
HETATM   41  C   UNL     1      -8.429  18.608  68.052  1.00  0.00    -0.314 A  
HETATM   42  C   UNL     1      -8.901  17.605  67.177  1.00  0.00    -0.251 A  
ENDBRANCH  32  33
ENDBRANCH  27  32
ENDBRANCH  24  27
ENDBRANCH  11  23
ENDBRANCH   7  11
TORSDOF 8
ENDMDL
MODEL      172
REMARK 921   NORMALIZED FREE ENERGY PREDICTED BY IDOCK:   -6.30 KCAL/MOL
REMARK 922        TOTAL FREE ENERGY PREDICTED BY IDOCK:  -11.38 KCAL/MOL
REMARK 923 INTER-LIGAND FREE ENERGY PREDICTED BY IDOCK:   -9.33 KCAL/MOL
REMARK 924 INTRA-LIGAND FREE ENERGY PREDICTED BY IDOCK:   -2.05 KCAL/MOL
REMARK 927      BINDING AFFINITY PREDICTED BY RF-SCORE:    0.00 PKD
ROOT
HETATM    1  C   UNL     1      -9.603   5.453  68.616  1.00  0.00    -0.173 C  
HETATM    2  C   UNL     1     -10.051   6.188  67.338  1.00  0.00    -0.156 C  
HETATM    3  C   UNL     1      -9.322   7.683  67.147  1.00  0.00    -0.146 C  
HETATM    4  N   UNL     1     -11.527   6.381  67.432  1.00  0.00    -0.697 NA 
HETATM    5  C   UNL     1      -9.812   5.170  66.187  1.00  0.00    -0.204 C  
HETATM    6  H2  UNL     1     -11.813   6.858  68.287  1.00  0.00     0.000 HD 
HETATM    7  N   UNL     1      -9.948   8.786  67.738  1.00  0.00    -0.182 N  
HETATM    8  H1  UNL     1     -11.823   6.867  66.585  1.00  0.00     0.000 HD 
HETATM    9  O   UNL     1      -8.255   7.804  66.546  1.00  0.00    -0.117 OA 
HETATM   10  H   UNL     1     -10.885   8.571  68.077  1.00  0.00     0.000 HD 
ENDROOT
BRANCH   7  11
HETATM   11  C   UNL     1      -9.539  10.279  67.999  1.00  0.00    -0.145 C  
BRANCH  11  12
HETATM   12  C   UNL     1      -8.262  10.738  68.845  1.00  0.00    -0.149 C  
BRANCH  12  13
HETATM   13  C   UNL     1      -7.707   9.819  70.037  1.00  0.00    -0.179 A  
HETATM   14  C   UNL     1      -6.398   9.506  70.350  1.00  0.00    -0.073 A  
HETATM   15  C   UNL     1     -10.326   8.163  72.426  1.00  0.00    -0.382 A  
HETATM   16  C   UNL     1      -9.462   7.241  73.011  1.00  0.00    -0.212 A  
HETATM   17  C   UNL     1      -8.103   7.271  72.699  1.00  0.00    -0.117 A  
HETATM   18  N   UNL     1      -6.370   8.539  71.355  1.00  0.00    -0.045 NA 
HETATM   19  C   UNL     1      -9.861   9.080  71.460  1.00  0.00    -0.381 A  
HETATM   20  C   UNL     1      -8.497   9.097  71.064  1.00  0.00    -0.221 A  
HETATM   21  C   UNL     1      -7.648   8.230  71.754  1.00  0.00    -0.099 A  
HETATM   22  H   UNL     1      -5.523   8.121  71.738  1.00  0.00     0.000 HD 
ENDBRANCH  12  13
ENDBRANCH  11  12
BRANCH  11  23
HETATM   23  C   UNL     1     -10.842  11.052  68.339  1.00  0.00    -0.220 C  
HETATM   24  N   UNL     1     -10.792  11.947  69.389  1.00  0.00    -0.448 N  
HETATM   25  H   UNL     1      -9.895  12.179  69.815  1.00  0.00     0.000 HD 
HETATM   26  O   UNL     1     -11.890  10.797  67.738  1.00  0.00    -0.538 OA 
BRANCH  24  27
HETATM   27  C   UNL     1     -12.003  12.557  69.888  1.00  0.00    -0.301 C  
BRANCH  27  28
HETATM   28  N   UNL     1     -12.157  12.207  71.277  1.00  0.00    -0.136 N  
HETATM   29  O   UNL     1     -13.317  10.246  70.887  1.00  0.00    -0.370 OA 
HETATM   30  C   UNL     1     -12.813  11.056  71.651  1.00  0.00    -0.435 C  
HETATM   31  H   UNL     1     -11.774  12.822  71.994  1.00  0.00     0.000 HD 
ENDBRANCH  27  28
BRANCH  27  32
HETATM   32  C   UNL     1     -12.260  14.043  69.559  1.00  0.00    -0.355 C  
BRANCH  32  33
HETATM   33  C   UNL     1     -11.707  14.876  68.415  1.00  0.00    -0.336 A  
HETATM   34  C   UNL     1     -10.800  16.298  66.845  1.00  0.00    -0.151 A  
HETATM   35  H   UNL     1     -11.305  15.050  65.212  1.00  0.00     0.000 HD 
HETATM   36  C   UNL     1     -10.150  17.398  66.262  1.00  0.00    -0.328 A  
HETATM   37  C   UNL     1     -11.855  14.356  67.132  1.00  0.00    -0.410 A  
HETATM   38  C   UNL     1      -9.732  18.421  67.105  1.00  0.00    -0.307 A  
HETATM   39  N   UNL     1     -11.318  15.206  66.220  1.00  0.00    -0.276 NA 
HETATM   40  C   UNL     1      -9.964  18.337  68.477  1.00  0.00    -0.413 A  
HETATM   41  C   UNL     1     -10.607  17.217  69.048  1.00  0.00    -0.282 A  
HETATM   42  C   UNL     1     -11.039  16.153  68.226  1.00  0.00    -0.348 A  
ENDBRANCH  32  33
ENDBRANCH  27  32
ENDBRANCH  24  27
ENDBRANCH  11  23
ENDBRANCH   7  11
TORSDOF 8
ENDMDL
MODEL      173
REMARK 921   NORMALIZED FREE ENERGY PREDICTED BY IDOCK:   -6.30 KCAL/MOL
REMARK 922        TOTAL FREE ENERGY PREDICTED BY IDOCK:  -11.38 KCAL/MOL
REMARK 923 INTER-LIGAND FREE ENERGY PREDICTED BY IDOCK:   -8.33 KCAL/MOL
REMARK 924 INTRA-LIGAND FREE ENERGY PREDICTED BY IDOCK:   -3.05 KCAL/MOL
REMARK 927      BINDING AFFINITY PREDICTED BY RF-SCORE:    0.00 PKD
ROOT
HETATM    1  C   UNL     1     -12.316  13.437  66.259  1.00  0.00    -0.410 C  
HETATM    2  C   UNL     1     -11.424  13.908  67.425  1.00  0.00    -0.348 C  
HETATM    3  C   UNL     1     -10.114  12.903  67.700  1.00  0.00    -0.221 C  
HETATM    4  N   UNL     1     -12.275  13.936  68.649  1.00  0.00    -0.487 NA 
HETATM    5  C   UNL     1     -11.080  15.387  67.093  1.00  0.00    -0.291 C  
HETATM    6  H2  UNL     1     -12.737  13.045  68.835  1.00  0.00     0.000 HD 
HETATM    7  N   UNL     1     -10.301  11.821  68.569  1.00  0.00    -0.213 N  
HETATM    8  H1  UNL     1     -11.684  14.249  69.421  1.00  0.00     0.000 HD 
HETATM    9  O   UNL     1      -9.038  13.082  67.131  1.00  0.00    -0.209 OA 
HETATM   10  H   UNL     1     -11.184  11.873  69.076  1.00  0.00     0.000 HD 
ENDROOT
BRANCH   7  11
HETATM   11  C   UNL     1      -9.465  10.547  68.941  1.00  0.00    -0.193 C  
BRANCH  11  12
HETATM   12  C   UNL     1      -8.986   9.435  67.896  1.00  0.00    -0.126 C  
BRANCH  12  13
HETATM   13  C   UNL     1      -9.661   7.979  67.897  1.00  0.00    -0.189 A  
HETATM   14  C   UNL     1     -10.736   7.524  67.156  1.00  0.00    -0.309 A  
HETATM   15  C   UNL     1      -8.166   5.282  70.304  1.00  0.00    -0.095 A  
HETATM   16  C   UNL     1      -9.226   4.383  70.231  1.00  0.00    -0.193 A  
HETATM   17  C   UNL     1     -10.284   4.630  69.356  1.00  0.00    -0.079 A  
HETATM   18  N   UNL     1     -11.103   6.251  67.590  1.00  0.00    -0.499 NA 
HETATM   19  C   UNL     1      -8.180   6.482  69.562  1.00  0.00    -0.126 A  
HETATM   20  C   UNL     1      -9.270   6.802  68.710  1.00  0.00    -0.130 A  
HETATM   21  C   UNL     1     -10.258   5.824  68.586  1.00  0.00    -0.197 A  
HETATM   22  H   UNL     1     -11.887   5.713  67.220  1.00  0.00     0.000 HD 
ENDBRANCH  12  13
ENDBRANCH  11  12
BRANCH  11  23
HETATM   23  C   UNL     1     -10.072   9.974  70.250  1.00  0.00    -0.168 C  
HETATM   24  N   UNL     1     -11.450   9.950  70.351  1.00  0.00    -0.282 N  
HETATM   25  H   UNL     1     -12.021  10.169  69.536  1.00  0.00     0.000 HD 
HETATM   26  O   UNL     1      -9.337   9.641  71.183  1.00  0.00    -0.169 OA 
BRANCH  24  27
HETATM   27  C   UNL     1     -12.084   9.615  71.605  1.00  0.00    -0.402 C  
BRANCH  27  28
HETATM   28  N   UNL     1     -13.149  10.554  71.848  1.00  0.00    -0.479 N  
HETATM   29  O   UNL     1     -11.958  12.421  71.185  1.00  0.00     0.030 OA 
HETATM   30  C   UNL     1     -12.980  11.899  71.606  1.00  0.00    -0.342 C  
HETATM   31  H   UNL     1     -14.043  10.218  72.205  1.00  0.00     0.000 HD 
ENDBRANCH  27  28
BRANCH  27  32
HETATM   32  C   UNL     1     -12.447   8.138  71.868  1.00  0.00    -0.368 C  
BRANCH  32  33
HETATM   33  C   UNL     1     -11.606   7.050  72.516  1.00  0.00    -0.245 A  
HETATM   34  C   UNL     1     -10.171   5.572  73.548  1.00  0.00    -0.209 A  
HETATM   35  H   UNL     1     -11.423   3.899  73.212  1.00  0.00     0.000 HD 
HETATM   36  C   UNL     1      -9.063   5.052  74.236  1.00  0.00    -0.114 A  
HETATM   37  C   UNL     1     -12.126   5.759  72.493  1.00  0.00    -0.024 A  
HETATM   38  C   UNL     1      -8.037   5.931  74.562  1.00  0.00    -0.108 A  
HETATM   39  N   UNL     1     -11.268   4.901  73.103  1.00  0.00    -0.317 NA 
HETATM   40  C   UNL     1      -8.125   7.276  74.204  1.00  0.00    -0.177 A  
HETATM   41  C   UNL     1      -9.253   7.784  73.524  1.00  0.00    -0.350 A  
HETATM   42  C   UNL     1     -10.321   6.925  73.183  1.00  0.00    -0.293 A  
ENDBRANCH  32  33
ENDBRANCH  27  32
ENDBRANCH  24  27
ENDBRANCH  11  23
ENDBRANCH   7  11
TORSDOF 8
ENDMDL
MODEL      174
REMARK 921   NORMALIZED FREE ENERGY PREDICTED BY IDOCK:   -6.29 KCAL/MOL
REMARK 922        TOTAL FREE ENERGY PREDICTED BY IDOCK:  -11.38 KCAL/MOL
REMARK 923 INTER-LIGAND FREE ENERGY PREDICTED BY IDOCK:   -9.15 KCAL/MOL
REMARK 924 INTRA-LIGAND FREE ENERGY PREDICTED BY IDOCK:   -2.24 KCAL/MOL
REMARK 927      BINDING AFFINITY PREDICTED BY RF-SCORE:    0.00 PKD
ROOT
HETATM    1  C   UNL     1     -10.153  10.430  65.235  1.00  0.00    -0.370 C  
HETATM    2  C   UNL     1      -8.713  10.120  65.686  1.00  0.00    -0.158 C  
HETATM    3  C   UNL     1      -8.643   9.141  67.042  1.00  0.00    -0.123 C  
HETATM    4  N   UNL     1      -8.057  11.423  65.999  1.00  0.00    -0.371 NA 
HETATM    5  C   UNL     1      -8.007   9.565  64.418  1.00  0.00    -0.135 C  
HETATM    6  H2  UNL     1      -8.577  11.978  66.679  1.00  0.00     0.000 HD 
HETATM    7  N   UNL     1      -8.667   9.768  68.293  1.00  0.00    -0.119 N  
HETATM    8  H1  UNL     1      -7.103  11.217  66.297  1.00  0.00     0.000 HD 
HETATM    9  O   UNL     1      -8.613   7.915  66.947  1.00  0.00    -0.124 OA 
HETATM   10  H   UNL     1      -8.549  10.779  68.228  1.00  0.00     0.000 HD 
ENDROOT
BRANCH   7  11
HETATM   11  C   UNL     1      -8.835   9.273  69.773  1.00  0.00    -0.167 C  
BRANCH  11  12
HETATM   12  C   UNL     1      -7.914   8.169  70.474  1.00  0.00    -0.095 C  
BRANCH  12  13
HETATM   13  C   UNL     1      -8.512   6.724  70.829  1.00  0.00    -0.133 A  
HETATM   14  C   UNL     1      -8.583   5.597  70.031  1.00  0.00    -0.122 A  
HETATM   15  C   UNL     1     -10.028   6.209  74.399  1.00  0.00    -0.321 A  
HETATM   16  C   UNL     1     -10.700   5.021  74.127  1.00  0.00    -0.297 A  
HETATM   17  C   UNL     1     -10.548   4.407  72.885  1.00  0.00    -0.264 A  
HETATM   18  N   UNL     1      -9.333   4.611  70.671  1.00  0.00    -0.142 NA 
HETATM   19  C   UNL     1      -9.254   6.847  73.407  1.00  0.00    -0.170 A  
HETATM   20  C   UNL     1      -9.129   6.289  72.106  1.00  0.00    -0.141 A  
HETATM   21  C   UNL     1      -9.730   5.045  71.913  1.00  0.00    -0.160 A  
HETATM   22  H   UNL     1      -9.554   3.698  70.275  1.00  0.00     0.000 HD 
ENDBRANCH  12  13
ENDBRANCH  11  12
BRANCH  11  23
HETATM   23  C   UNL     1     -10.356   9.085  70.017  1.00  0.00    -0.206 C  
HETATM   24  N   UNL     1     -10.917   9.765  71.080  1.00  0.00    -0.352 N  
HETATM   25  H   UNL     1     -10.368  10.464  71.580  1.00  0.00     0.000 HD 
HETATM   26  O   UNL     1     -11.002   8.287  69.330  1.00  0.00    -0.144 OA 
BRANCH  24  27
HETATM   27  C   UNL     1     -12.276   9.493  71.488  1.00  0.00    -0.386 C  
BRANCH  27  28
HETATM   28  N   UNL     1     -12.278   8.330  72.337  1.00  0.00    -0.467 N  
HETATM   29  O   UNL     1     -13.635   7.054  70.970  1.00  0.00    -0.195 OA 
HETATM   30  C   UNL     1     -12.972   7.194  71.986  1.00  0.00    -0.146 C  
HETATM   31  H   UNL     1     -11.756   8.348  73.213  1.00  0.00     0.000 HD 
ENDBRANCH  27  28
BRANCH  27  32
HETATM   32  C   UNL     1     -13.136  10.670  71.994  1.00  0.00    -0.501 C  
BRANCH  32  33
HETATM   33  C   UNL     1     -13.040  12.144  71.636  1.00  0.00    -0.413 A  
HETATM   34  C   UNL     1     -12.785  14.310  70.891  1.00  0.00    -0.357 A  
HETATM   35  H   UNL     1     -13.735  15.156  72.583  1.00  0.00     0.000 HD 
HETATM   36  C   UNL     1     -12.440  15.411  70.091  1.00  0.00    -0.370 A  
HETATM   37  C   UNL     1     -13.584  13.047  72.546  1.00  0.00    -0.434 A  
HETATM   38  C   UNL     1     -11.755  15.159  68.909  1.00  0.00    -0.357 A  
HETATM   39  N   UNL     1     -13.423  14.317  72.093  1.00  0.00    -0.391 NA 
HETATM   40  C   UNL     1     -11.428  13.851  68.553  1.00  0.00    -0.346 A  
HETATM   41  C   UNL     1     -11.794  12.755  69.364  1.00  0.00    -0.359 A  
HETATM   42  C   UNL     1     -12.499  12.969  70.568  1.00  0.00    -0.306 A  
ENDBRANCH  32  33
ENDBRANCH  27  32
ENDBRANCH  24  27
ENDBRANCH  11  23
ENDBRANCH   7  11
TORSDOF 8
ENDMDL
MODEL      175
REMARK 921   NORMALIZED FREE ENERGY PREDICTED BY IDOCK:   -6.29 KCAL/MOL
REMARK 922        TOTAL FREE ENERGY PREDICTED BY IDOCK:  -11.37 KCAL/MOL
REMARK 923 INTER-LIGAND FREE ENERGY PREDICTED BY IDOCK:   -9.90 KCAL/MOL
REMARK 924 INTRA-LIGAND FREE ENERGY PREDICTED BY IDOCK:   -1.47 KCAL/MOL
REMARK 927      BINDING AFFINITY PREDICTED BY RF-SCORE:    0.00 PKD
ROOT
HETATM    1  C   UNL     1     -10.324   7.837  71.882  1.00  0.00    -0.256 C  
HETATM    2  C   UNL     1     -10.983   7.231  70.628  1.00  0.00    -0.256 C  
HETATM    3  C   UNL     1     -10.457   7.933  69.202  1.00  0.00    -0.209 C  
HETATM    4  N   UNL     1     -12.454   7.445  70.754  1.00  0.00    -0.564 NA 
HETATM    5  C   UNL     1     -10.748   5.700  70.752  1.00  0.00    -0.320 C  
HETATM    6  H2  UNL     1     -12.704   8.423  70.904  1.00  0.00     0.000 HD 
HETATM    7  N   UNL     1     -11.142   9.066  68.749  1.00  0.00    -0.442 N  
HETATM    8  H1  UNL     1     -12.891   7.044  69.924  1.00  0.00     0.000 HD 
HETATM    9  O   UNL     1      -9.479   7.497  68.596  1.00  0.00    -0.146 OA 
HETATM   10  H   UNL     1     -12.008   9.233  69.261  1.00  0.00     0.000 HD 
ENDROOT
BRANCH   7  11
HETATM   11  C   UNL     1     -10.884  10.140  67.633  1.00  0.00    -0.290 C  
BRANCH  11  12
HETATM   12  C   UNL     1     -10.211   9.835  66.215  1.00  0.00    -0.282 C  
BRANCH  12  13
HETATM   13  C   UNL     1     -10.529  10.769  64.950  1.00  0.00    -0.324 A  
HETATM   14  C   UNL     1     -10.105  10.627  63.642  1.00  0.00    -0.245 A  
HETATM   15  C   UNL     1     -12.774  13.920  65.535  1.00  0.00    -0.536 A  
HETATM   16  C   UNL     1     -12.479  14.562  64.336  1.00  0.00    -0.335 A  
HETATM   17  C   UNL     1     -11.688  13.921  63.383  1.00  0.00     0.326 A  
HETATM   18  N   UNL     1     -10.469  11.753  62.903  1.00  0.00    -0.633 NA 
HETATM   19  C   UNL     1     -12.218  12.658  65.837  1.00  0.00    -0.375 A  
HETATM   20  C   UNL     1     -11.352  12.003  64.922  1.00  0.00    -0.366 A  
HETATM   21  C   UNL     1     -11.173  12.633  63.690  1.00  0.00    -0.466 A  
HETATM   22  H   UNL     1     -10.244  11.902  61.920  1.00  0.00     0.000 HD 
ENDBRANCH  12  13
ENDBRANCH  11  12
BRANCH  11  23
HETATM   23  C   UNL     1     -10.332  11.405  68.343  1.00  0.00    -0.195 C  
HETATM   24  N   UNL     1      -9.384  12.148  67.667  1.00  0.00    -0.182 N  
HETATM   25  H   UNL     1      -9.177  11.938  66.691  1.00  0.00     0.000 HD 
HETATM   26  O   UNL     1     -10.675  11.669  69.499  1.00  0.00    -0.107 OA 
BRANCH  24  27
HETATM   27  C   UNL     1      -8.685  13.222  68.334  1.00  0.00    -0.126 C  
BRANCH  27  28
HETATM   28  N   UNL     1      -7.466  12.699  68.896  1.00  0.00    -0.284 N  
HETATM   29  O   UNL     1      -6.727  11.703  66.946  1.00  0.00    -0.134 OA 
HETATM   30  C   UNL     1      -6.583  11.975  68.129  1.00  0.00    -0.055 C  
HETATM   31  H   UNL     1      -7.255  12.868  69.880  1.00  0.00     0.000 HD 
ENDBRANCH  27  28
BRANCH  27  32
HETATM   32  C   UNL     1      -8.534  14.567  67.591  1.00  0.00    -0.189 C  
BRANCH  32  33
HETATM   33  C   UNL     1      -9.439  15.787  67.635  1.00  0.00    -0.218 A  
HETATM   34  C   UNL     1     -10.630  17.760  67.603  1.00  0.00    -0.379 A  
HETATM   35  H   UNL     1     -12.358  16.897  68.468  1.00  0.00     0.000 HD 
HETATM   36  C   UNL     1     -10.972  19.105  67.396  1.00  0.00    -0.419 A  
HETATM   37  C   UNL     1     -10.716  15.602  68.159  1.00  0.00    -0.287 A  
HETATM   38  C   UNL     1      -9.999  19.943  66.864  1.00  0.00    -0.563 A  
HETATM   39  N   UNL     1     -11.402  16.773  68.135  1.00  0.00    -0.156 NA 
HETATM   40  C   UNL     1      -8.734  19.443  66.561  1.00  0.00    -0.374 A  
HETATM   41  C   UNL     1      -8.411  18.084  66.765  1.00  0.00    -0.271 A  
HETATM   42  C   UNL     1      -9.375  17.199  67.294  1.00  0.00    -0.242 A  
ENDBRANCH  32  33
ENDBRANCH  27  32
ENDBRANCH  24  27
ENDBRANCH  11  23
ENDBRANCH   7  11
TORSDOF 8
ENDMDL
MODEL      176
REMARK 921   NORMALIZED FREE ENERGY PREDICTED BY IDOCK:   -6.27 KCAL/MOL
REMARK 922        TOTAL FREE ENERGY PREDICTED BY IDOCK:  -11.35 KCAL/MOL
REMARK 923 INTER-LIGAND FREE ENERGY PREDICTED BY IDOCK:   -9.93 KCAL/MOL
REMARK 924 INTRA-LIGAND FREE ENERGY PREDICTED BY IDOCK:   -1.42 KCAL/MOL
REMARK 927      BINDING AFFINITY PREDICTED BY RF-SCORE:    0.00 PKD
ROOT
HETATM    1  C   UNL     1     -10.835  18.707  67.496  1.00  0.00    -0.373 C  
HETATM    2  C   UNL     1      -9.995  17.805  68.421  1.00  0.00    -0.362 C  
HETATM    3  C   UNL     1      -9.785  16.257  67.819  1.00  0.00    -0.233 C  
HETATM    4  N   UNL     1     -10.711  17.720  69.727  1.00  0.00    -0.015 NA 
HETATM    5  C   UNL     1      -8.690  18.607  68.685  1.00  0.00    -0.333 C  
HETATM    6  H2  UNL     1     -11.677  17.405  69.632  1.00  0.00     0.000 HD 
HETATM    7  N   UNL     1     -10.759  15.303  68.136  1.00  0.00    -0.251 N  
HETATM    8  H1  UNL     1     -10.155  17.123  70.339  1.00  0.00     0.000 HD 
HETATM    9  O   UNL     1      -8.834  15.975  67.092  1.00  0.00    -0.190 OA 
HETATM   10  H   UNL     1     -11.407  15.627  68.854  1.00  0.00     0.000 HD 
ENDROOT
BRANCH   7  11
HETATM   11  C   UNL     1     -11.084  13.850  67.641  1.00  0.00    -0.277 C  
BRANCH  11  12
HETATM   12  C   UNL     1     -12.134  13.495  66.488  1.00  0.00    -0.460 C  
BRANCH  12  13
HETATM   13  C   UNL     1     -11.623  12.982  65.057  1.00  0.00    -0.359 A  
HETATM   14  C   UNL     1     -12.071  13.340  63.799  1.00  0.00    -0.482 A  
HETATM   15  C   UNL     1      -8.741  10.336  64.997  1.00  0.00    -0.195 A  
HETATM   16  C   UNL     1      -8.891   9.953  63.667  1.00  0.00    -0.256 A  
HETATM   17  C   UNL     1      -9.806  10.620  62.853  1.00  0.00    -0.271 A  
HETATM   18  N   UNL     1     -11.472  12.528  62.836  1.00  0.00    -0.615 NA 
HETATM   19  C   UNL     1      -9.559  11.339  65.559  1.00  0.00    -0.259 A  
HETATM   20  C   UNL     1     -10.549  11.995  64.781  1.00  0.00    -0.340 A  
HETATM   21  C   UNL     1     -10.590  11.656  63.428  1.00  0.00    -0.409 A  
HETATM   22  H   UNL     1     -11.661  12.575  61.835  1.00  0.00     0.000 HD 
ENDBRANCH  12  13
ENDBRANCH  11  12
BRANCH  11  23
HETATM   23  C   UNL     1     -11.197  12.956  68.905  1.00  0.00    -0.279 C  
HETATM   24  N   UNL     1     -10.751  11.653  68.802  1.00  0.00    -0.212 N  
HETATM   25  H   UNL     1     -10.244  11.356  67.968  1.00  0.00     0.000 HD 
HETATM   26  O   UNL     1     -11.746  13.386  69.924  1.00  0.00    -0.297 OA 
BRANCH  24  27
HETATM   27  C   UNL     1     -10.999  10.709  69.867  1.00  0.00    -0.274 C  
BRANCH  27  28
HETATM   28  N   UNL     1     -12.352  10.229  69.752  1.00  0.00    -0.531 N  
HETATM   29  O   UNL     1     -12.998  10.865  71.878  1.00  0.00    -0.458 OA 
HETATM   30  C   UNL     1     -13.243  10.359  70.793  1.00  0.00    -0.196 C  
HETATM   31  H   UNL     1     -12.655   9.785  68.885  1.00  0.00     0.000 HD 
ENDBRANCH  27  28
BRANCH  27  32
HETATM   32  C   UNL     1      -9.941   9.617  70.134  1.00  0.00    -0.309 C  
BRANCH  32  33
HETATM   33  C   UNL     1      -9.527   8.994  71.457  1.00  0.00    -0.316 A  
HETATM   34  C   UNL     1      -8.671   8.084  73.393  1.00  0.00    -0.259 A  
HETATM   35  H   UNL     1     -10.579   7.690  74.221  1.00  0.00     0.000 HD 
HETATM   36  C   UNL     1      -7.764   7.636  74.366  1.00  0.00    -0.205 A  
HETATM   37  C   UNL     1     -10.552   8.594  72.310  1.00  0.00    -0.305 A  
HETATM   38  C   UNL     1      -6.408   7.734  74.077  1.00  0.00    -0.090 A  
HETATM   39  N   UNL     1     -10.031   8.058  73.444  1.00  0.00    -0.217 NA 
HETATM   40  C   UNL     1      -5.988   8.256  72.855  1.00  0.00    -0.067 A  
HETATM   41  C   UNL     1      -6.915   8.714  71.893  1.00  0.00    -0.091 A  
HETATM   42  C   UNL     1      -8.300   8.641  72.153  1.00  0.00    -0.146 A  
ENDBRANCH  32  33
ENDBRANCH  27  32
ENDBRANCH  24  27
ENDBRANCH  11  23
ENDBRANCH   7  11
TORSDOF 8
ENDMDL
MODEL      177
REMARK 921   NORMALIZED FREE ENERGY PREDICTED BY IDOCK:   -6.26 KCAL/MOL
REMARK 922        TOTAL FREE ENERGY PREDICTED BY IDOCK:  -11.32 KCAL/MOL
REMARK 923 INTER-LIGAND FREE ENERGY PREDICTED BY IDOCK:   -8.35 KCAL/MOL
REMARK 924 INTRA-LIGAND FREE ENERGY PREDICTED BY IDOCK:   -2.98 KCAL/MOL
REMARK 927      BINDING AFFINITY PREDICTED BY RF-SCORE:    0.00 PKD
ROOT
HETATM    1  C   UNL     1      -9.627   3.234  66.350  1.00  0.00    -0.025 C  
HETATM    2  C   UNL     1      -9.938   4.238  65.222  1.00  0.00    -0.219 C  
HETATM    3  C   UNL     1      -8.894   5.546  65.198  1.00  0.00    -0.079 C  
HETATM    4  N   UNL     1     -11.327   4.735  65.443  1.00  0.00    -1.000 NA 
HETATM    5  C   UNL     1      -9.977   3.383  63.925  1.00  0.00    -0.178 C  
HETATM    6  H2  UNL     1     -11.468   5.126  66.375  1.00  0.00     0.000 HD 
HETATM    7  N   UNL     1      -9.231   6.656  65.982  1.00  0.00    -0.332 N  
HETATM    8  H1  UNL     1     -11.532   5.399  64.696  1.00  0.00     0.000 HD 
HETATM    9  O   UNL     1      -7.848   5.520  64.550  1.00  0.00    -0.095 OA 
HETATM   10  H   UNL     1     -10.180   6.603  66.349  1.00  0.00     0.000 HD 
ENDROOT
BRANCH   7  11
HETATM   11  C   UNL     1      -8.483   7.962  66.425  1.00  0.00    -0.138 C  
BRANCH  11  12
HETATM   12  C   UNL     1      -7.248   8.004  67.440  1.00  0.00    -0.088 C  
BRANCH  12  13
HETATM   13  C   UNL     1      -7.242   7.074  68.747  1.00  0.00    -0.091 A  
HETATM   14  C   UNL     1      -6.174   6.712  69.546  1.00  0.00    -0.037 A  
HETATM   15  C   UNL     1     -10.652   5.544  69.905  1.00  0.00    -0.387 A  
HETATM   16  C   UNL     1     -10.124   4.594  70.775  1.00  0.00    -0.264 A  
HETATM   17  C   UNL     1      -8.752   4.567  71.021  1.00  0.00    -0.142 A  
HETATM   18  N   UNL     1      -6.582   5.754  70.474  1.00  0.00    -0.042 NA 
HETATM   19  C   UNL     1      -9.809   6.433  69.205  1.00  0.00    -0.167 A  
HETATM   20  C   UNL     1      -8.400   6.393  69.377  1.00  0.00    -0.122 A  
HETATM   21  C   UNL     1      -7.925   5.499  70.337  1.00  0.00    -0.102 A  
HETATM   22  H   UNL     1      -5.970   5.306  71.156  1.00  0.00     0.000 HD 
ENDBRANCH  12  13
ENDBRANCH  11  12
BRANCH  11  23
HETATM   23  C   UNL     1      -9.570   9.035  66.698  1.00  0.00    -0.213 C  
HETATM   24  N   UNL     1      -9.159  10.352  66.763  1.00  0.00    -0.143 N  
HETATM   25  H   UNL     1      -8.206  10.599  66.499  1.00  0.00     0.000 HD 
HETATM   26  O   UNL     1     -10.734   8.696  66.930  1.00  0.00    -0.252 OA 
BRANCH  24  27
HETATM   27  C   UNL     1     -10.072  11.382  67.202  1.00  0.00    -0.198 C  
BRANCH  27  28
HETATM   28  N   UNL     1     -11.306  11.248  66.471  1.00  0.00    -0.156 N  
HETATM   29  O   UNL     1     -11.594  13.510  66.097  1.00  0.00    -0.321 OA 
HETATM   30  C   UNL     1     -11.962  12.352  65.975  1.00  0.00    -0.350 C  
HETATM   31  H   UNL     1     -11.699  10.320  66.318  1.00  0.00     0.000 HD 
ENDBRANCH  27  28
BRANCH  27  32
HETATM   32  C   UNL     1     -10.237  11.612  68.720  1.00  0.00    -0.190 C  
BRANCH  32  33
HETATM   33  C   UNL     1     -10.894  10.713  69.754  1.00  0.00    -0.317 A  
HETATM   34  C   UNL     1     -11.668   9.282  71.386  1.00  0.00    -0.361 A  
HETATM   35  H   UNL     1     -13.703   9.725  71.010  1.00  0.00     0.000 HD 
HETATM   36  C   UNL     1     -11.697   8.349  72.435  1.00  0.00    -0.452 A  
HETATM   37  C   UNL     1     -12.285  10.737  69.813  1.00  0.00    -0.288 A  
HETATM   38  C   UNL     1     -10.482   7.839  72.876  1.00  0.00    -0.412 A  
HETATM   39  N   UNL     1     -12.724   9.887  70.777  1.00  0.00    -0.264 NA 
HETATM   40  C   UNL     1      -9.291   8.250  72.280  1.00  0.00    -0.323 A  
HETATM   41  C   UNL     1      -9.280   9.199  71.235  1.00  0.00    -0.261 A  
HETATM   42  C   UNL     1     -10.492   9.748  70.764  1.00  0.00    -0.339 A  
ENDBRANCH  32  33
ENDBRANCH  27  32
ENDBRANCH  24  27
ENDBRANCH  11  23
ENDBRANCH   7  11
TORSDOF 8
ENDMDL
MODEL      178
REMARK 921   NORMALIZED FREE ENERGY PREDICTED BY IDOCK:   -6.25 KCAL/MOL
REMARK 922        TOTAL FREE ENERGY PREDICTED BY IDOCK:  -11.32 KCAL/MOL
REMARK 923 INTER-LIGAND FREE ENERGY PREDICTED BY IDOCK:   -9.23 KCAL/MOL
REMARK 924 INTRA-LIGAND FREE ENERGY PREDICTED BY IDOCK:   -2.09 KCAL/MOL
REMARK 927      BINDING AFFINITY PREDICTED BY RF-SCORE:    0.00 PKD
ROOT
HETATM    1  C   UNL     1      -6.122  11.258  70.426  1.00  0.00    -0.120 C  
HETATM    2  C   UNL     1      -7.098  10.418  69.580  1.00  0.00    -0.135 C  
HETATM    3  C   UNL     1      -7.950  11.325  68.461  1.00  0.00    -0.145 C  
HETATM    4  N   UNL     1      -8.066   9.784  70.521  1.00  0.00    -0.354 NA 
HETATM    5  C   UNL     1      -6.233   9.267  68.996  1.00  0.00    -0.043 C  
HETATM    6  H2  UNL     1      -8.539  10.459  71.123  1.00  0.00     0.000 HD 
HETATM    7  N   UNL     1      -9.153  11.904  68.880  1.00  0.00    -0.391 N  
HETATM    8  H1  UNL     1      -8.712   9.227  69.961  1.00  0.00     0.000 HD 
HETATM    9  O   UNL     1      -7.516  11.513  67.325  1.00  0.00    -0.122 OA 
HETATM   10  H   UNL     1      -9.462  11.555  69.786  1.00  0.00     0.000 HD 
ENDROOT
BRANCH   7  11
HETATM   11  C   UNL     1     -10.137  12.967  68.275  1.00  0.00    -0.239 C  
BRANCH  11  12
HETATM   12  C   UNL     1     -10.966  14.033  69.132  1.00  0.00    -0.263 C  
BRANCH  12  13
HETATM   13  C   UNL     1     -10.628  15.597  69.025  1.00  0.00    -0.234 A  
HETATM   14  C   UNL     1     -11.497  16.660  68.866  1.00  0.00    -0.023 A  
HETATM   15  C   UNL     1      -6.867  16.661  69.195  1.00  0.00    -0.224 A  
HETATM   16  C   UNL     1      -7.037  17.959  68.720  1.00  0.00    -0.268 A  
HETATM   17  C   UNL     1      -8.321  18.447  68.482  1.00  0.00    -0.344 A  
HETATM   18  N   UNL     1     -10.773  17.832  68.646  1.00  0.00    -0.313 NA 
HETATM   19  C   UNL     1      -7.972  15.801  69.365  1.00  0.00    -0.211 A  
HETATM   20  C   UNL     1      -9.291  16.238  69.069  1.00  0.00    -0.254 A  
HETATM   21  C   UNL     1      -9.424  17.578  68.700  1.00  0.00    -0.278 A  
HETATM   22  H   UNL     1     -11.187  18.747  68.470  1.00  0.00     0.000 HD 
ENDBRANCH  12  13
ENDBRANCH  11  12
BRANCH  11  23
HETATM   23  C   UNL     1     -10.967  12.243  67.181  1.00  0.00    -0.262 C  
HETATM   24  N   UNL     1     -10.966  12.797  65.915  1.00  0.00    -0.270 N  
HETATM   25  H   UNL     1     -10.329  13.562  65.698  1.00  0.00     0.000 HD 
HETATM   26  O   UNL     1     -11.661  11.265  67.472  1.00  0.00    -0.574 OA 
BRANCH  24  27
HETATM   27  C   UNL     1     -11.862  12.297  64.898  1.00  0.00    -0.358 C  
BRANCH  27  28
HETATM   28  N   UNL     1     -12.789  13.341  64.547  1.00  0.00    -0.680 N  
HETATM   29  O   UNL     1     -11.218  15.035  64.513  1.00  0.00    -0.343 OA 
HETATM   30  C   UNL     1     -12.367  14.641  64.382  1.00  0.00    -0.398 C  
HETATM   31  H   UNL     1     -13.775  13.114  64.418  1.00  0.00     0.000 HD 
ENDBRANCH  27  28
BRANCH  27  32
HETATM   32  C   UNL     1     -11.254  11.536  63.700  1.00  0.00    -0.451 C  
BRANCH  32  33
HETATM   33  C   UNL     1      -9.957  10.748  63.630  1.00  0.00    -0.405 A  
HETATM   34  C   UNL     1      -8.055   9.450  63.731  1.00  0.00    -0.155 A  
HETATM   35  H   UNL     1      -7.269  10.208  61.917  1.00  0.00     0.000 HD 
HETATM   36  C   UNL     1      -7.100   8.519  64.169  1.00  0.00    -0.086 A  
HETATM   37  C   UNL     1      -9.139  10.983  62.528  1.00  0.00    -0.323 A  
HETATM   38  C   UNL     1      -7.333   7.877  65.379  1.00  0.00    -0.076 A  
HETATM   39  N   UNL     1      -8.023  10.213  62.604  1.00  0.00    -0.136 NA 
HETATM   40  C   UNL     1      -8.479   8.169  66.117  1.00  0.00    -0.143 A  
HETATM   41  C   UNL     1      -9.435   9.100  65.656  1.00  0.00    -0.309 A  
HETATM   42  C   UNL     1      -9.239   9.765  64.426  1.00  0.00    -0.301 A  
ENDBRANCH  32  33
ENDBRANCH  27  32
ENDBRANCH  24  27
ENDBRANCH  11  23
ENDBRANCH   7  11
TORSDOF 8
ENDMDL
MODEL      179
REMARK 921   NORMALIZED FREE ENERGY PREDICTED BY IDOCK:   -6.23 KCAL/MOL
REMARK 922        TOTAL FREE ENERGY PREDICTED BY IDOCK:  -11.29 KCAL/MOL
REMARK 923 INTER-LIGAND FREE ENERGY PREDICTED BY IDOCK:   -9.69 KCAL/MOL
REMARK 924 INTRA-LIGAND FREE ENERGY PREDICTED BY IDOCK:   -1.60 KCAL/MOL
REMARK 927      BINDING AFFINITY PREDICTED BY RF-SCORE:    0.00 PKD
ROOT
HETATM    1  C   UNL     1     -11.965   8.080  70.596  1.00  0.00    -0.044 C  
HETATM    2  C   UNL     1     -11.473   9.539  70.672  1.00  0.00    -0.297 C  
HETATM    3  C   UNL     1     -11.267  10.244  69.168  1.00  0.00    -0.215 C  
HETATM    4  N   UNL     1     -10.161   9.527  71.381  1.00  0.00    -0.212 NA 
HETATM    5  C   UNL     1     -12.479  10.251  71.618  1.00  0.00    -0.491 C  
HETATM    6  H2  UNL     1      -9.481   8.898  70.952  1.00  0.00     0.000 HD 
HETATM    7  N   UNL     1     -10.023  10.087  68.545  1.00  0.00    -0.157 N  
HETATM    8  H1  UNL     1      -9.836  10.493  71.431  1.00  0.00     0.000 HD 
HETATM    9  O   UNL     1     -12.185  10.843  68.609  1.00  0.00    -0.533 OA 
HETATM   10  H   UNL     1      -9.318   9.698  69.170  1.00  0.00     0.000 HD 
ENDROOT
BRANCH   7  11
HETATM   11  C   UNL     1      -9.465  10.370  67.106  1.00  0.00    -0.159 C  
BRANCH  11  12
HETATM   12  C   UNL     1      -8.239   9.593  66.436  1.00  0.00    -0.119 C  
BRANCH  12  13
HETATM   13  C   UNL     1      -7.789   8.157  66.992  1.00  0.00    -0.104 A  
HETATM   14  C   UNL     1      -6.540   7.747  67.418  1.00  0.00    -0.063 A  
HETATM   15  C   UNL     1     -10.507   5.349  67.184  1.00  0.00    -0.298 A  
HETATM   16  C   UNL     1      -9.632   4.279  67.353  1.00  0.00    -0.219 A  
HETATM   17  C   UNL     1      -8.267   4.517  67.502  1.00  0.00    -0.100 A  
HETATM   18  N   UNL     1      -6.549   6.373  67.657  1.00  0.00    -0.055 NA 
HETATM   19  C   UNL     1     -10.024   6.670  67.082  1.00  0.00    -0.209 A  
HETATM   20  C   UNL     1      -8.633   6.948  67.161  1.00  0.00    -0.121 A  
HETATM   21  C   UNL     1      -7.805   5.859  67.439  1.00  0.00    -0.102 A  
HETATM   22  H   UNL     1      -5.740   5.827  67.951  1.00  0.00     0.000 HD 
ENDBRANCH  12  13
ENDBRANCH  11  12
BRANCH  11  23
HETATM   23  C   UNL     1      -9.411  11.913  66.938  1.00  0.00    -0.199 C  
HETATM   24  N   UNL     1     -10.458  12.513  66.266  1.00  0.00    -0.243 N  
HETATM   25  H   UNL     1     -11.285  11.968  66.025  1.00  0.00     0.000 HD 
HETATM   26  O   UNL     1      -8.423  12.546  67.321  1.00  0.00    -0.170 OA 
BRANCH  24  27
HETATM   27  C   UNL     1     -10.387  13.910  65.901  1.00  0.00    -0.311 C  
BRANCH  27  28
HETATM   28  N   UNL     1     -10.906  14.064  64.566  1.00  0.00    -0.563 N  
HETATM   29  O   UNL     1     -13.063  13.420  65.087  1.00  0.00    -0.724 OA 
HETATM   30  C   UNL     1     -12.226  13.801  64.282  1.00  0.00    -0.400 C  
HETATM   31  H   UNL     1     -10.284  14.374  63.819  1.00  0.00     0.000 HD 
ENDBRANCH  27  28
BRANCH  27  32
HETATM   32  C   UNL     1     -10.887  14.956  66.919  1.00  0.00    -0.319 C  
BRANCH  32  33
HETATM   33  C   UNL     1     -10.171  16.186  67.453  1.00  0.00    -0.272 A  
HETATM   34  C   UNL     1      -9.203  18.176  68.095  1.00  0.00    -0.291 A  
HETATM   35  H   UNL     1      -8.063  17.287  69.642  1.00  0.00     0.000 HD 
HETATM   36  C   UNL     1      -8.876  19.540  68.154  1.00  0.00    -0.378 A  
HETATM   37  C   UNL     1      -9.301  15.990  68.522  1.00  0.00    -0.213 A  
HETATM   38  C   UNL     1      -9.456  20.382  67.213  1.00  0.00    -0.568 A  
HETATM   39  N   UNL     1      -8.738  17.170  68.886  1.00  0.00    -0.231 NA 
HETATM   40  C   UNL     1     -10.324  19.867  66.251  1.00  0.00    -0.608 A  
HETATM   41  C   UNL     1     -10.651  18.494  66.215  1.00  0.00    -0.370 A  
HETATM   42  C   UNL     1     -10.090  17.607  67.160  1.00  0.00    -0.328 A  
ENDBRANCH  32  33
ENDBRANCH  27  32
ENDBRANCH  24  27
ENDBRANCH  11  23
ENDBRANCH   7  11
TORSDOF 8
ENDMDL
MODEL      180
REMARK 921   NORMALIZED FREE ENERGY PREDICTED BY IDOCK:   -6.22 KCAL/MOL
REMARK 922        TOTAL FREE ENERGY PREDICTED BY IDOCK:  -11.28 KCAL/MOL
REMARK 923 INTER-LIGAND FREE ENERGY PREDICTED BY IDOCK:   -9.15 KCAL/MOL
REMARK 924 INTRA-LIGAND FREE ENERGY PREDICTED BY IDOCK:   -2.13 KCAL/MOL
REMARK 927      BINDING AFFINITY PREDICTED BY RF-SCORE:    0.00 PKD
ROOT
HETATM    1  C   UNL     1      -9.238   5.600  72.195  1.00  0.00    -0.156 C  
HETATM    2  C   UNL     1     -10.676   5.982  72.594  1.00  0.00    -0.232 C  
HETATM    3  C   UNL     1     -11.354   7.137  71.590  1.00  0.00    -0.251 C  
HETATM    4  N   UNL     1     -10.622   6.525  73.982  1.00  0.00    -0.455 NA 
HETATM    5  C   UNL     1     -11.440   4.631  72.678  1.00  0.00     0.034 C  
HETATM    6  H2  UNL     1      -9.961   7.296  74.084  1.00  0.00     0.000 HD 
HETATM    7  N   UNL     1     -11.140   8.482  71.914  1.00  0.00    -0.301 N  
HETATM    8  H1  UNL     1     -11.574   6.777  74.246  1.00  0.00     0.000 HD 
HETATM    9  O   UNL     1     -11.982   6.820  70.580  1.00  0.00    -0.386 OA 
HETATM   10  H   UNL     1     -10.731   8.601  72.841  1.00  0.00     0.000 HD 
ENDROOT
BRANCH   7  11
HETATM   11  C   UNL     1     -11.383   9.847  71.180  1.00  0.00    -0.370 C  
BRANCH  11  12
HETATM   12  C   UNL     1     -12.814  10.535  70.989  1.00  0.00    -0.502 C  
BRANCH  12  13
HETATM   13  C   UNL     1     -13.024  12.083  71.354  1.00  0.00    -0.362 A  
HETATM   14  C   UNL     1     -13.785  12.637  72.366  1.00  0.00    -0.279 A  
HETATM   15  C   UNL     1     -11.207  14.740  69.130  1.00  0.00    -0.287 A  
HETATM   16  C   UNL     1     -11.932  15.847  69.562  1.00  0.00    -0.274 A  
HETATM   17  C   UNL     1     -12.861  15.707  70.592  1.00  0.00    -0.400 A  
HETATM   18  N   UNL     1     -13.827  14.023  72.221  1.00  0.00    -0.514 NA 
HETATM   19  C   UNL     1     -11.454  13.458  69.664  1.00  0.00    -0.274 A  
HETATM   20  C   UNL     1     -12.440  13.261  70.667  1.00  0.00    -0.373 A  
HETATM   21  C   UNL     1     -13.065  14.414  71.146  1.00  0.00    -0.352 A  
HETATM   22  H   UNL     1     -14.349  14.657  72.825  1.00  0.00     0.000 HD 
ENDBRANCH  12  13
ENDBRANCH  11  12
BRANCH  11  23
HETATM   23  C   UNL     1     -10.503   9.836  69.902  1.00  0.00    -0.261 C  
HETATM   24  N   UNL     1     -11.121   9.513  68.710  1.00  0.00    -0.456 N  
HETATM   25  H   UNL     1     -12.137   9.429  68.673  1.00  0.00     0.000 HD 
HETATM   26  O   UNL     1      -9.286  10.026  69.983  1.00  0.00    -0.208 OA 
BRANCH  24  27
HETATM   27  C   UNL     1     -10.338   9.292  67.516  1.00  0.00    -0.262 C  
BRANCH  27  28
HETATM   28  N   UNL     1      -9.921  10.569  66.996  1.00  0.00    -0.193 N  
HETATM   29  O   UNL     1     -12.036  11.501  66.964  1.00  0.00    -0.556 OA 
HETATM   30  C   UNL     1     -10.832  11.575  66.767  1.00  0.00    -0.282 C  
HETATM   31  H   UNL     1      -8.935  10.730  66.794  1.00  0.00     0.000 HD 
ENDBRANCH  27  28
BRANCH  27  32
HETATM   32  C   UNL     1      -9.234   8.214  67.557  1.00  0.00    -0.154 C  
BRANCH  32  33
HETATM   33  C   UNL     1      -9.378   6.706  67.676  1.00  0.00    -0.119 A  
HETATM   34  C   UNL     1      -9.381   4.419  67.962  1.00  0.00    -0.146 A  
HETATM   35  H   UNL     1     -11.280   4.165  67.062  1.00  0.00     0.000 HD 
HETATM   36  C   UNL     1      -8.987   3.122  68.328  1.00  0.00    -0.187 A  
HETATM   37  C   UNL     1     -10.551   6.146  67.175  1.00  0.00    -0.305 A  
HETATM   38  C   UNL     1      -7.738   2.971  68.918  1.00  0.00    -0.047 A  
HETATM   39  N   UNL     1     -10.535   4.800  67.349  1.00  0.00    -0.021 NA 
HETATM   40  C   UNL     1      -6.921   4.082  69.124  1.00  0.00    -0.046 A  
HETATM   41  C   UNL     1      -7.340   5.381  68.762  1.00  0.00    -0.074 A  
HETATM   42  C   UNL     1      -8.606   5.577  68.168  1.00  0.00    -0.100 A  
ENDBRANCH  32  33
ENDBRANCH  27  32
ENDBRANCH  24  27
ENDBRANCH  11  23
ENDBRANCH   7  11
TORSDOF 8
ENDMDL
MODEL      181
REMARK 921   NORMALIZED FREE ENERGY PREDICTED BY IDOCK:   -6.21 KCAL/MOL
REMARK 922        TOTAL FREE ENERGY PREDICTED BY IDOCK:  -11.26 KCAL/MOL
REMARK 923 INTER-LIGAND FREE ENERGY PREDICTED BY IDOCK:   -8.75 KCAL/MOL
REMARK 924 INTRA-LIGAND FREE ENERGY PREDICTED BY IDOCK:   -2.51 KCAL/MOL
REMARK 927      BINDING AFFINITY PREDICTED BY RF-SCORE:    0.00 PKD
ROOT
HETATM    1  C   UNL     1      -9.920   6.703  71.150  1.00  0.00    -0.198 C  
HETATM    2  C   UNL     1     -10.383   6.302  69.736  1.00  0.00    -0.207 C  
HETATM    3  C   UNL     1      -9.760   7.287  68.535  1.00  0.00    -0.149 C  
HETATM    4  N   UNL     1     -11.871   6.397  69.714  1.00  0.00    -0.530 NA 
HETATM    5  C   UNL     1     -10.036   4.792  69.615  1.00  0.00    -0.275 C  
HETATM    6  H2  UNL     1     -12.216   7.313  70.002  1.00  0.00     0.000 HD 
HETATM    7  N   UNL     1     -10.482   8.441  68.207  1.00  0.00    -0.321 N  
HETATM    8  H1  UNL     1     -12.177   6.131  68.777  1.00  0.00     0.000 HD 
HETATM    9  O   UNL     1      -8.688   7.032  67.988  1.00  0.00    -0.126 OA 
HETATM   10  H   UNL     1     -11.411   8.455  68.628  1.00  0.00     0.000 HD 
ENDROOT
BRANCH   7  11
HETATM   11  C   UNL     1     -10.191   9.716  67.340  1.00  0.00    -0.227 C  
BRANCH  11  12
HETATM   12  C   UNL     1      -9.724   9.691  65.811  1.00  0.00    -0.350 C  
BRANCH  12  13
HETATM   13  C   UNL     1     -10.349  10.724  64.756  1.00  0.00    -0.380 A  
HETATM   14  C   UNL     1     -10.218  10.741  63.380  1.00  0.00    -0.223 A  
HETATM   15  C   UNL     1     -12.531  13.655  66.155  1.00  0.00    -0.449 A  
HETATM   16  C   UNL     1     -12.534  14.430  64.999  1.00  0.00    -0.366 A  
HETATM   17  C   UNL     1     -11.948  13.938  63.833  1.00  0.00    -0.372 A  
HETATM   18  N   UNL     1     -10.779  11.910  62.866  1.00  0.00    -0.599 NA 
HETATM   19  C   UNL     1     -11.874  12.407  66.189  1.00  0.00    -0.442 A  
HETATM   20  C   UNL     1     -11.206  11.901  65.042  1.00  0.00    -0.350 A  
HETATM   21  C   UNL     1     -11.327  12.661  63.878  1.00  0.00    -0.441 A  
HETATM   22  H   UNL     1     -10.783  12.169  61.880  1.00  0.00     0.000 HD 
ENDBRANCH  12  13
ENDBRANCH  11  12
BRANCH  11  23
HETATM   23  C   UNL     1      -9.390  10.699  68.237  1.00  0.00    -0.156 C  
HETATM   24  N   UNL     1      -8.031  10.484  68.355  1.00  0.00    -0.111 N  
HETATM   25  H   UNL     1      -7.574   9.794  67.760  1.00  0.00     0.000 HD 
HETATM   26  O   UNL     1      -9.977  11.576  68.877  1.00  0.00    -0.187 OA 
BRANCH  24  27
HETATM   27  C   UNL     1      -7.254  11.230  69.318  1.00  0.00    -0.094 C  
BRANCH  27  28
HETATM   28  N   UNL     1      -6.467  10.305  70.092  1.00  0.00    -0.112 N  
HETATM   29  O   UNL     1      -8.231   9.512  71.356  1.00  0.00    -0.239 OA 
HETATM   30  C   UNL     1      -7.046   9.515  71.058  1.00  0.00     0.003 C  
HETATM   31  H   UNL     1      -5.464  10.235  69.921  1.00  0.00     0.000 HD 
ENDBRANCH  27  28
BRANCH  27  32
HETATM   32  C   UNL     1      -6.493  12.481  68.828  1.00  0.00    -0.084 C  
BRANCH  32  33
HETATM   33  C   UNL     1      -6.990  13.913  68.708  1.00  0.00    -0.108 A  
HETATM   34  C   UNL     1      -7.881  16.007  68.346  1.00  0.00    -0.149 A  
HETATM   35  H   UNL     1      -6.755  16.911  69.893  1.00  0.00     0.000 HD 
HETATM   36  C   UNL     1      -8.651  17.052  67.811  1.00  0.00    -0.213 A  
HETATM   37  C   UNL     1      -6.455  14.839  69.600  1.00  0.00    -0.150 A  
HETATM   38  C   UNL     1      -9.477  16.758  66.733  1.00  0.00    -0.261 A  
HETATM   39  N   UNL     1      -6.989  16.066  69.372  1.00  0.00    -0.212 NA 
HETATM   40  C   UNL     1      -9.518  15.464  66.215  1.00  0.00    -0.342 A  
HETATM   41  C   UNL     1      -8.747  14.422  66.773  1.00  0.00    -0.187 A  
HETATM   42  C   UNL     1      -7.902  14.679  67.875  1.00  0.00    -0.143 A  
ENDBRANCH  32  33
ENDBRANCH  27  32
ENDBRANCH  24  27
ENDBRANCH  11  23
ENDBRANCH   7  11
TORSDOF 8
ENDMDL
MODEL      182
REMARK 921   NORMALIZED FREE ENERGY PREDICTED BY IDOCK:   -6.21 KCAL/MOL
REMARK 922        TOTAL FREE ENERGY PREDICTED BY IDOCK:  -11.26 KCAL/MOL
REMARK 923 INTER-LIGAND FREE ENERGY PREDICTED BY IDOCK:   -9.61 KCAL/MOL
REMARK 924 INTRA-LIGAND FREE ENERGY PREDICTED BY IDOCK:   -1.65 KCAL/MOL
REMARK 927      BINDING AFFINITY PREDICTED BY RF-SCORE:    0.00 PKD
ROOT
HETATM    1  C   UNL     1     -11.915  15.516  71.918  1.00  0.00    -0.506 C  
HETATM    2  C   UNL     1     -12.458  14.921  70.604  1.00  0.00    -0.352 C  
HETATM    3  C   UNL     1     -11.428  13.796  69.915  1.00  0.00    -0.160 C  
HETATM    4  N   UNL     1     -12.644  16.052  69.649  1.00  0.00    -0.516 NA 
HETATM    5  C   UNL     1     -13.880  14.404  70.957  1.00  0.00    -0.136 C  
HETATM    6  H2  UNL     1     -11.797  16.605  69.517  1.00  0.00     0.000 HD 
HETATM    7  N   UNL     1     -10.445  14.272  69.038  1.00  0.00    -0.317 N  
HETATM    8  H1  UNL     1     -13.003  15.658  68.780  1.00  0.00     0.000 HD 
HETATM    9  O   UNL     1     -11.501  12.601  70.197  1.00  0.00    -0.125 OA 
HETATM   10  H   UNL     1     -10.586  15.250  68.784  1.00  0.00     0.000 HD 
ENDROOT
BRANCH   7  11
HETATM   11  C   UNL     1      -9.177  13.647  68.356  1.00  0.00    -0.169 C  
BRANCH  11  12
HETATM   12  C   UNL     1      -9.021  12.104  67.965  1.00  0.00    -0.189 C  
BRANCH  12  13
HETATM   13  C   UNL     1      -9.751  11.522  66.661  1.00  0.00    -0.221 A  
HETATM   14  C   UNL     1      -9.679  10.250  66.125  1.00  0.00    -0.211 A  
HETATM   15  C   UNL     1     -12.048  13.949  64.626  1.00  0.00    -0.458 A  
HETATM   16  C   UNL     1     -12.146  13.167  63.479  1.00  0.00    -0.585 A  
HETATM   17  C   UNL     1     -11.580  11.893  63.459  1.00  0.00    -0.537 A  
HETATM   18  N   UNL     1     -10.331  10.219  64.893  1.00  0.00    -0.200 NA 
HETATM   19  C   UNL     1     -11.315  13.504  65.746  1.00  0.00    -0.318 A  
HETATM   20  C   UNL     1     -10.666  12.241  65.740  1.00  0.00    -0.298 A  
HETATM   21  C   UNL     1     -10.881  11.447  64.613  1.00  0.00    -0.292 A  
HETATM   22  H   UNL     1     -10.391   9.402  64.286  1.00  0.00     0.000 HD 
ENDBRANCH  12  13
ENDBRANCH  11  12
BRANCH  11  23
HETATM   23  C   UNL     1      -7.937  14.255  69.065  1.00  0.00    -0.027 C  
HETATM   24  N   UNL     1      -7.735  15.615  68.933  1.00  0.00    -0.166 N  
HETATM   25  H   UNL     1      -8.456  16.195  68.505  1.00  0.00     0.000 HD 
HETATM   26  O   UNL     1      -7.131  13.522  69.646  1.00  0.00     0.091 OA 
BRANCH  24  27
HETATM   27  C   UNL     1      -6.507  16.220  69.397  1.00  0.00    -0.197 C  
BRANCH  27  28
HETATM   28  N   UNL     1      -5.399  15.579  68.736  1.00  0.00    -0.098 N  
HETATM   29  O   UNL     1      -5.889  16.398  66.631  1.00  0.00    -0.317 OA 
HETATM   30  C   UNL     1      -5.191  15.737  67.385  1.00  0.00     0.051 C  
HETATM   31  H   UNL     1      -4.759  15.000  69.278  1.00  0.00     0.000 HD 
ENDBRANCH  27  28
BRANCH  27  32
HETATM   32  C   UNL     1      -6.429  17.761  69.453  1.00  0.00    -0.226 C  
BRANCH  32  33
HETATM   33  C   UNL     1      -7.211  18.785  68.647  1.00  0.00    -0.330 A  
HETATM   34  C   UNL     1      -8.575  20.178  67.419  1.00  0.00    -0.343 A  
HETATM   35  H   UNL     1      -7.148  21.740  67.339  1.00  0.00     0.000 HD 
HETATM   36  C   UNL     1      -9.684  20.676  66.717  1.00  0.00    -0.368 A  
HETATM   37  C   UNL     1      -6.573  19.995  68.384  1.00  0.00    -0.296 A  
HETATM   38  C   UNL     1     -10.783  19.838  66.570  1.00  0.00    -0.508 A  
HETATM   39  N   UNL     1      -7.389  20.802  67.659  1.00  0.00    -0.292 NA 
HETATM   40  C   UNL     1     -10.758  18.551  67.105  1.00  0.00    -0.396 A  
HETATM   41  C   UNL     1      -9.639  18.071  67.819  1.00  0.00    -0.278 A  
HETATM   42  C   UNL     1      -8.507  18.896  67.998  1.00  0.00    -0.325 A  
ENDBRANCH  32  33
ENDBRANCH  27  32
ENDBRANCH  24  27
ENDBRANCH  11  23
ENDBRANCH   7  11
TORSDOF 8
ENDMDL
MODEL      183
REMARK 921   NORMALIZED FREE ENERGY PREDICTED BY IDOCK:   -6.21 KCAL/MOL
REMARK 922        TOTAL FREE ENERGY PREDICTED BY IDOCK:  -11.26 KCAL/MOL
REMARK 923 INTER-LIGAND FREE ENERGY PREDICTED BY IDOCK:   -8.71 KCAL/MOL
REMARK 924 INTRA-LIGAND FREE ENERGY PREDICTED BY IDOCK:   -2.54 KCAL/MOL
REMARK 927      BINDING AFFINITY PREDICTED BY RF-SCORE:    0.00 PKD
ROOT
HETATM    1  C   UNL     1     -11.626  16.298  68.226  1.00  0.00    -0.118 C  
HETATM    2  C   UNL     1     -10.447  15.655  68.982  1.00  0.00    -0.229 C  
HETATM    3  C   UNL     1     -10.194  14.053  68.569  1.00  0.00    -0.237 C  
HETATM    4  N   UNL     1     -10.759  15.733  70.439  1.00  0.00    -0.319 NA 
HETATM    5  C   UNL     1      -9.246  16.611  68.738  1.00  0.00    -0.253 C  
HETATM    6  H2  UNL     1     -11.660  15.316  70.676  1.00  0.00     0.000 HD 
HETATM    7  N   UNL     1     -10.901  13.081  69.288  1.00  0.00    -0.442 N  
HETATM    8  H1  UNL     1      -9.979  15.307  70.939  1.00  0.00     0.000 HD 
HETATM    9  O   UNL     1      -9.448  13.739  67.642  1.00  0.00    -0.204 OA 
HETATM   10  H   UNL     1     -11.366  13.463  70.111  1.00  0.00     0.000 HD 
ENDROOT
BRANCH   7  11
HETATM   11  C   UNL     1     -11.141  11.540  69.118  1.00  0.00    -0.259 C  
BRANCH  11  12
HETATM   12  C   UNL     1     -10.430  10.406  69.993  1.00  0.00    -0.235 C  
BRANCH  12  13
HETATM   13  C   UNL     1     -11.309   9.310  70.769  1.00  0.00    -0.349 A  
HETATM   14  C   UNL     1     -12.454   9.495  71.521  1.00  0.00    -0.376 A  
HETATM   15  C   UNL     1     -10.129   5.583  70.604  1.00  0.00    -0.288 A  
HETATM   16  C   UNL     1     -10.921   5.109  71.646  1.00  0.00    -0.050 A  
HETATM   17  C   UNL     1     -11.845   5.958  72.255  1.00  0.00    -0.266 A  
HETATM   18  N   UNL     1     -12.796   8.304  72.160  1.00  0.00    -0.440 NA 
HETATM   19  C   UNL     1     -10.190   6.936  70.205  1.00  0.00    -0.208 A  
HETATM   20  C   UNL     1     -11.068   7.849  70.847  1.00  0.00    -0.268 A  
HETATM   21  C   UNL     1     -11.919   7.305  71.811  1.00  0.00    -0.307 A  
HETATM   22  H   UNL     1     -13.585   8.190  72.795  1.00  0.00     0.000 HD 
ENDBRANCH  12  13
ENDBRANCH  11  12
BRANCH  11  23
HETATM   23  C   UNL     1     -11.163  11.251  67.594  1.00  0.00    -0.292 C  
HETATM   24  N   UNL     1     -10.093  10.555  67.065  1.00  0.00    -0.204 N  
HETATM   25  H   UNL     1      -9.403  10.137  67.689  1.00  0.00     0.000 HD 
HETATM   26  O   UNL     1     -12.065  11.708  66.886  1.00  0.00    -0.512 OA 
BRANCH  24  27
HETATM   27  C   UNL     1      -9.945  10.417  65.635  1.00  0.00    -0.272 C  
BRANCH  27  28
HETATM   28  N   UNL     1      -9.613  11.704  65.079  1.00  0.00    -0.352 N  
HETATM   29  O   UNL     1     -11.269  11.686  63.467  1.00  0.00    -0.410 OA 
HETATM   30  C   UNL     1     -10.326  12.228  64.025  1.00  0.00    -0.397 C  
HETATM   31  H   UNL     1      -8.837  12.236  65.474  1.00  0.00     0.000 HD 
ENDBRANCH  27  28
BRANCH  27  32
HETATM   32  C   UNL     1      -9.102   9.240  65.099  1.00  0.00    -0.263 C  
BRANCH  32  33
HETATM   33  C   UNL     1      -8.580   8.023  65.845  1.00  0.00    -0.171 A  
HETATM   34  C   UNL     1      -8.011   6.086  66.955  1.00  0.00    -0.102 A  
HETATM   35  H   UNL     1      -6.003   6.682  67.262  1.00  0.00     0.000 HD 
HETATM   36  C   UNL     1      -8.095   4.812  67.540  1.00  0.00    -0.101 A  
HETATM   37  C   UNL     1      -7.242   8.047  66.227  1.00  0.00    -0.071 A  
HETATM   38  C   UNL     1      -9.331   4.176  67.524  1.00  0.00    -0.204 A  
HETATM   39  N   UNL     1      -6.924   6.901  66.881  1.00  0.00    -0.068 NA 
HETATM   40  C   UNL     1     -10.435   4.804  66.948  1.00  0.00    -0.140 A  
HETATM   41  C   UNL     1     -10.328   6.080  66.353  1.00  0.00    -0.134 A  
HETATM   42  C   UNL     1      -9.088   6.754  66.340  1.00  0.00    -0.175 A  
ENDBRANCH  32  33
ENDBRANCH  27  32
ENDBRANCH  24  27
ENDBRANCH  11  23
ENDBRANCH   7  11
TORSDOF 8
ENDMDL
MODEL      184
REMARK 921   NORMALIZED FREE ENERGY PREDICTED BY IDOCK:   -6.20 KCAL/MOL
REMARK 922        TOTAL FREE ENERGY PREDICTED BY IDOCK:  -11.24 KCAL/MOL
REMARK 923 INTER-LIGAND FREE ENERGY PREDICTED BY IDOCK:   -9.47 KCAL/MOL
REMARK 924 INTRA-LIGAND FREE ENERGY PREDICTED BY IDOCK:   -1.77 KCAL/MOL
REMARK 927      BINDING AFFINITY PREDICTED BY RF-SCORE:    0.00 PKD
ROOT
HETATM    1  C   UNL     1      -8.888   9.902  64.640  1.00  0.00    -0.234 C  
HETATM    2  C   UNL     1      -8.155   8.651  65.163  1.00  0.00    -0.143 C  
HETATM    3  C   UNL     1      -9.023   7.818  66.327  1.00  0.00    -0.174 C  
HETATM    4  N   UNL     1      -6.867   9.109  65.759  1.00  0.00    -0.076 NA 
HETATM    5  C   UNL     1      -7.788   7.841  63.889  1.00  0.00    -0.126 C  
HETATM    6  H2  UNL     1      -6.991   9.827  66.474  1.00  0.00     0.000 HD 
HETATM    7  N   UNL     1      -8.853   8.207  67.661  1.00  0.00    -0.135 N  
HETATM    8  H1  UNL     1      -6.382   8.280  66.105  1.00  0.00     0.000 HD 
HETATM    9  O   UNL     1      -9.812   6.925  66.022  1.00  0.00     0.086 OA 
HETATM   10  H   UNL     1      -8.073   8.853  67.785  1.00  0.00     0.000 HD 
ENDROOT
BRANCH   7  11
HETATM   11  C   UNL     1      -9.586   7.878  69.009  1.00  0.00    -0.155 C  
BRANCH  11  12
HETATM   12  C   UNL     1     -10.601   6.661  69.220  1.00  0.00    -0.276 C  
BRANCH  12  13
HETATM   13  C   UNL     1     -11.115   6.280  70.691  1.00  0.00    -0.389 A  
HETATM   14  C   UNL     1     -11.999   6.965  71.503  1.00  0.00    -0.344 A  
HETATM   15  C   UNL     1      -9.716   3.006  72.314  1.00  0.00    -0.225 A  
HETATM   16  C   UNL     1     -10.122   3.277  73.618  1.00  0.00    -0.186 A  
HETATM   17  C   UNL     1     -10.895   4.407  73.882  1.00  0.00    -0.339 A  
HETATM   18  N   UNL     1     -12.034   6.376  72.767  1.00  0.00    -0.488 NA 
HETATM   19  C   UNL     1     -10.009   3.901  71.263  1.00  0.00    -0.183 A  
HETATM   20  C   UNL     1     -10.735   5.098  71.503  1.00  0.00    -0.165 A  
HETATM   21  C   UNL     1     -11.214   5.274  72.802  1.00  0.00    -0.284 A  
HETATM   22  H   UNL     1     -12.588   6.716  73.552  1.00  0.00     0.000 HD 
ENDBRANCH  12  13
ENDBRANCH  11  12
BRANCH  11  23
HETATM   23  C   UNL     1     -10.076   9.229  69.598  1.00  0.00    -0.197 C  
HETATM   24  N   UNL     1     -11.222   9.777  69.055  1.00  0.00    -0.436 N  
HETATM   25  H   UNL     1     -11.782   9.234  68.399  1.00  0.00     0.000 HD 
HETATM   26  O   UNL     1      -9.407   9.814  70.454  1.00  0.00    -0.242 OA 
BRANCH  24  27
HETATM   27  C   UNL     1     -11.631  11.116  69.412  1.00  0.00    -0.318 C  
BRANCH  27  28
HETATM   28  N   UNL     1     -11.906  11.153  70.825  1.00  0.00    -0.361 N  
HETATM   29  O   UNL     1     -13.733   9.742  70.737  1.00  0.00    -0.182 OA 
HETATM   30  C   UNL     1     -12.954  10.443  71.364  1.00  0.00    -0.443 C  
HETATM   31  H   UNL     1     -11.313  11.715  71.437  1.00  0.00     0.000 HD 
ENDBRANCH  27  28
BRANCH  27  32
HETATM   32  C   UNL     1     -10.796  12.300  68.880  1.00  0.00    -0.238 C  
BRANCH  32  33
HETATM   33  C   UNL     1     -11.098  13.235  67.720  1.00  0.00    -0.289 A  
HETATM   34  C   UNL     1     -11.616  14.457  65.836  1.00  0.00    -0.361 A  
HETATM   35  H   UNL     1     -11.132  16.313  66.732  1.00  0.00     0.000 HD 
HETATM   36  C   UNL     1     -12.032  14.789  64.537  1.00  0.00    -0.451 A  
HETATM   37  C   UNL     1     -10.894  14.595  67.941  1.00  0.00    -0.259 A  
HETATM   38  C   UNL     1     -12.383  13.747  63.687  1.00  0.00    -0.256 A  
HETATM   39  N   UNL     1     -11.202  15.299  66.822  1.00  0.00    -0.288 NA 
HETATM   40  C   UNL     1     -12.310  12.427  64.129  1.00  0.00    -0.558 A  
HETATM   41  C   UNL     1     -11.902  12.112  65.443  1.00  0.00    -0.357 A  
HETATM   42  C   UNL     1     -11.547  13.143  66.341  1.00  0.00    -0.394 A  
ENDBRANCH  32  33
ENDBRANCH  27  32
ENDBRANCH  24  27
ENDBRANCH  11  23
ENDBRANCH   7  11
TORSDOF 8
ENDMDL
MODEL      185
REMARK 921   NORMALIZED FREE ENERGY PREDICTED BY IDOCK:   -6.19 KCAL/MOL
REMARK 922        TOTAL FREE ENERGY PREDICTED BY IDOCK:  -11.23 KCAL/MOL
REMARK 923 INTER-LIGAND FREE ENERGY PREDICTED BY IDOCK:   -9.39 KCAL/MOL
REMARK 924 INTRA-LIGAND FREE ENERGY PREDICTED BY IDOCK:   -1.85 KCAL/MOL
REMARK 927      BINDING AFFINITY PREDICTED BY RF-SCORE:    0.00 PKD
ROOT
HETATM    1  C   UNL     1      -7.962   7.862  65.431  1.00  0.00    -0.123 C  
HETATM    2  C   UNL     1      -8.258   9.310  64.994  1.00  0.00    -0.145 C  
HETATM    3  C   UNL     1      -8.388  10.373  66.281  1.00  0.00    -0.146 C  
HETATM    4  N   UNL     1      -9.552   9.293  64.252  1.00  0.00    -0.261 NA 
HETATM    5  C   UNL     1      -7.156   9.646  63.951  1.00  0.00    -0.115 C  
HETATM    6  H2  UNL     1     -10.313   8.874  64.787  1.00  0.00     0.000 HD 
HETATM    7  N   UNL     1      -9.649  10.524  66.869  1.00  0.00    -0.172 N  
HETATM    8  H1  UNL     1      -9.747  10.252  63.963  1.00  0.00     0.000 HD 
HETATM    9  O   UNL     1      -7.406  10.969  66.722  1.00  0.00    -0.124 OA 
HETATM   10  H   UNL     1     -10.392  10.089  66.323  1.00  0.00     0.000 HD 
ENDROOT
BRANCH   7  11
HETATM   11  C   UNL     1     -10.183  11.209  68.176  1.00  0.00    -0.181 C  
BRANCH  11  12
HETATM   12  C   UNL     1      -9.929  12.738  68.572  1.00  0.00    -0.168 C  
BRANCH  12  13
HETATM   13  C   UNL     1     -11.164  13.700  68.919  1.00  0.00    -0.309 A  
HETATM   14  C   UNL     1     -11.629  14.798  68.219  1.00  0.00    -0.323 A  
HETATM   15  C   UNL     1     -13.189  12.954  72.183  1.00  0.00    -0.552 A  
HETATM   16  C   UNL     1     -13.859  14.173  72.248  1.00  0.00    -0.643 A  
HETATM   17  C   UNL     1     -13.716  15.098  71.215  1.00  0.00    -0.555 A  
HETATM   18  N   UNL     1     -12.614  15.449  68.961  1.00  0.00    -0.434 NA 
HETATM   19  C   UNL     1     -12.302  12.671  71.123  1.00  0.00    -0.245 A  
HETATM   20  C   UNL     1     -12.076  13.616  70.087  1.00  0.00    -0.431 A  
HETATM   21  C   UNL     1     -12.849  14.776  70.136  1.00  0.00    -0.148 A  
HETATM   22  H   UNL     1     -13.091  16.303  68.673  1.00  0.00     0.000 HD 
ENDBRANCH  12  13
ENDBRANCH  11  12
BRANCH  11  23
HETATM   23  C   UNL     1      -9.959  10.204  69.337  1.00  0.00    -0.228 C  
HETATM   24  N   UNL     1     -10.944   9.260  69.557  1.00  0.00    -0.377 N  
HETATM   25  H   UNL     1     -11.705   9.157  68.887  1.00  0.00     0.000 HD 
HETATM   26  O   UNL     1      -8.976  10.315  70.076  1.00  0.00    -0.083 OA 
BRANCH  24  27
HETATM   27  C   UNL     1     -10.901   8.419  70.731  1.00  0.00    -0.224 C  
BRANCH  27  28
HETATM   28  N   UNL     1     -11.451   9.152  71.843  1.00  0.00    -0.371 N  
HETATM   29  O   UNL     1     -13.597   9.274  70.993  1.00  0.00    -0.224 OA 
HETATM   30  C   UNL     1     -12.778   9.515  71.868  1.00  0.00    -0.411 C  
HETATM   31  H   UNL     1     -10.847   9.406  72.624  1.00  0.00     0.000 HD 
ENDBRANCH  27  28
BRANCH  27  32
HETATM   32  C   UNL     1     -11.396   6.963  70.604  1.00  0.00    -0.366 C  
BRANCH  32  33
HETATM   33  C   UNL     1     -10.749   5.797  69.874  1.00  0.00    -0.412 A  
HETATM   34  C   UNL     1      -9.820   4.144  68.564  1.00  0.00    -0.015 A  
HETATM   35  H   UNL     1      -9.264   2.946  70.218  1.00  0.00     0.000 HD 
HETATM   36  C   UNL     1      -9.381   3.423  67.442  1.00  0.00    -0.243 A  
HETATM   37  C   UNL     1     -10.239   4.769  70.663  1.00  0.00    -0.180 A  
HETATM   38  C   UNL     1      -9.649   3.958  66.187  1.00  0.00    -0.193 A  
HETATM   39  N   UNL     1      -9.698   3.803  69.876  1.00  0.00    -0.180 NA 
HETATM   40  C   UNL     1     -10.335   5.167  66.073  1.00  0.00    -0.231 A  
HETATM   41  C   UNL     1     -10.757   5.884  67.213  1.00  0.00    -0.380 A  
HETATM   42  C   UNL     1     -10.496   5.379  68.505  1.00  0.00    -0.192 A  
ENDBRANCH  32  33
ENDBRANCH  27  32
ENDBRANCH  24  27
ENDBRANCH  11  23
ENDBRANCH   7  11
TORSDOF 8
ENDMDL
MODEL      186
REMARK 921   NORMALIZED FREE ENERGY PREDICTED BY IDOCK:   -6.19 KCAL/MOL
REMARK 922        TOTAL FREE ENERGY PREDICTED BY IDOCK:  -11.23 KCAL/MOL
REMARK 923 INTER-LIGAND FREE ENERGY PREDICTED BY IDOCK:   -9.46 KCAL/MOL
REMARK 924 INTRA-LIGAND FREE ENERGY PREDICTED BY IDOCK:   -1.77 KCAL/MOL
REMARK 927      BINDING AFFINITY PREDICTED BY RF-SCORE:    0.00 PKD
ROOT
HETATM    1  C   UNL     1     -12.088  15.659  72.463  1.00  0.00    -0.563 C  
HETATM    2  C   UNL     1     -12.933  15.066  71.319  1.00  0.00    -0.377 C  
HETATM    3  C   UNL     1     -12.432  13.538  70.853  1.00  0.00    -0.369 C  
HETATM    4  N   UNL     1     -12.810  15.989  70.154  1.00  0.00    -0.600 NA 
HETATM    5  C   UNL     1     -14.403  15.172  71.812  1.00  0.00    -0.696 C  
HETATM    6  H2  UNL     1     -11.841  16.165  69.885  1.00  0.00     0.000 HD 
HETATM    7  N   UNL     1     -11.440  13.456  69.870  1.00  0.00    -0.491 N  
HETATM    8  H1  UNL     1     -13.370  15.596  69.397  1.00  0.00     0.000 HD 
HETATM    9  O   UNL     1     -12.888  12.525  71.382  1.00  0.00    -0.366 OA 
HETATM   10  H   UNL     1     -11.257  14.352  69.420  1.00  0.00     0.000 HD 
ENDROOT
BRANCH   7  11
HETATM   11  C   UNL     1     -10.543  12.300  69.300  1.00  0.00     0.110 C  
BRANCH  11  12
HETATM   12  C   UNL     1      -9.734  12.371  67.922  1.00  0.00    -0.204 C  
BRANCH  12  13
HETATM   13  C   UNL     1     -10.058  13.521  66.851  1.00  0.00    -0.256 A  
HETATM   14  C   UNL     1     -10.446  13.388  65.531  1.00  0.00    -0.291 A  
HETATM   15  C   UNL     1      -9.703  17.240  68.012  1.00  0.00    -0.277 A  
HETATM   16  C   UNL     1      -9.718  17.815  66.744  1.00  0.00    -0.309 A  
HETATM   17  C   UNL     1      -9.944  17.016  65.624  1.00  0.00    -0.080 A  
HETATM   18  N   UNL     1     -10.454  14.639  64.914  1.00  0.00    -0.475 NA 
HETATM   19  C   UNL     1      -9.836  15.845  68.177  1.00  0.00    -0.214 A  
HETATM   20  C   UNL     1     -10.000  14.989  67.056  1.00  0.00    -0.242 A  
HETATM   21  C   UNL     1     -10.117  15.619  65.816  1.00  0.00    -0.366 A  
HETATM   22  H   UNL     1     -10.678  14.802  63.932  1.00  0.00     0.000 HD 
ENDBRANCH  12  13
ENDBRANCH  11  12
BRANCH  11  23
HETATM   23  C   UNL     1     -11.322  10.975  69.515  1.00  0.00    -0.287 C  
HETATM   24  N   UNL     1     -11.041  10.254  70.659  1.00  0.00    -0.364 N  
HETATM   25  H   UNL     1     -10.451  10.662  71.383  1.00  0.00     0.000 HD 
HETATM   26  O   UNL     1     -12.093  10.559  68.646  1.00  0.00    -0.324 OA 
BRANCH  24  27
HETATM   27  C   UNL     1     -11.578   8.924  70.835  1.00  0.00    -0.283 C  
BRANCH  27  28
HETATM   28  N   UNL     1     -13.016   8.999  70.795  1.00  0.00    -0.478 N  
HETATM   29  O   UNL     1     -13.287   9.339  73.065  1.00  0.00    -0.220 OA 
HETATM   30  C   UNL     1     -13.749   9.206  71.941  1.00  0.00    -0.424 C  
HETATM   31  H   UNL     1     -13.499   8.896  69.902  1.00  0.00     0.000 HD 
ENDBRANCH  27  28
BRANCH  27  32
HETATM   32  C   UNL     1     -10.963   7.774  70.010  1.00  0.00    -0.218 C  
BRANCH  32  33
HETATM   33  C   UNL     1      -9.498   7.418  69.813  1.00  0.00    -0.159 A  
HETATM   34  C   UNL     1      -7.242   7.111  69.461  1.00  0.00    -0.080 A  
HETATM   35  H   UNL     1      -7.310   5.041  69.896  1.00  0.00     0.000 HD 
HETATM   36  C   UNL     1      -5.893   7.367  69.169  1.00  0.00    -0.023 A  
HETATM   37  C   UNL     1      -9.142   6.089  70.023  1.00  0.00    -0.146 A  
HETATM   38  C   UNL     1      -5.547   8.662  68.802  1.00  0.00    -0.040 A  
HETATM   39  N   UNL     1      -7.811   5.925  69.809  1.00  0.00    -0.098 NA 
HETATM   40  C   UNL     1      -6.524   9.654  68.729  1.00  0.00    -0.047 A  
HETATM   41  C   UNL     1      -7.874   9.381  69.039  1.00  0.00    -0.079 A  
HETATM   42  C   UNL     1      -8.264   8.080  69.425  1.00  0.00    -0.122 A  
ENDBRANCH  32  33
ENDBRANCH  27  32
ENDBRANCH  24  27
ENDBRANCH  11  23
ENDBRANCH   7  11
TORSDOF 8
ENDMDL
MODEL      187
REMARK 921   NORMALIZED FREE ENERGY PREDICTED BY IDOCK:   -6.11 KCAL/MOL
REMARK 922        TOTAL FREE ENERGY PREDICTED BY IDOCK:  -11.11 KCAL/MOL
REMARK 923 INTER-LIGAND FREE ENERGY PREDICTED BY IDOCK:   -8.92 KCAL/MOL
REMARK 924 INTRA-LIGAND FREE ENERGY PREDICTED BY IDOCK:   -2.19 KCAL/MOL
REMARK 927      BINDING AFFINITY PREDICTED BY RF-SCORE:    0.00 PKD
ROOT
HETATM    1  C   UNL     1      -9.323   2.211  70.698  1.00  0.00    -0.199 C  
HETATM    2  C   UNL     1      -8.643   3.444  71.326  1.00  0.00    -0.069 C  
HETATM    3  C   UNL     1      -9.651   4.777  71.417  1.00  0.00    -0.163 C  
HETATM    4  N   UNL     1      -7.470   3.786  70.470  1.00  0.00    -0.041 NA 
HETATM    5  C   UNL     1      -8.070   2.939  72.679  1.00  0.00    -0.063 C  
HETATM    6  H2  UNL     1      -7.718   3.922  69.490  1.00  0.00     0.000 HD 
HETATM    7  N   UNL     1      -9.692   5.633  70.311  1.00  0.00    -0.170 N  
HETATM    8  H1  UNL     1      -7.020   4.601  70.886  1.00  0.00     0.000 HD 
HETATM    9  O   UNL     1     -10.363   4.977  72.401  1.00  0.00    -0.193 OA 
HETATM   10  H   UNL     1      -8.957   5.434  69.633  1.00  0.00     0.000 HD 
ENDROOT
BRANCH   7  11
HETATM   11  C   UNL     1     -10.608   6.831  69.874  1.00  0.00    -0.222 C  
BRANCH  11  12
HETATM   12  C   UNL     1     -12.123   7.035  70.341  1.00  0.00    -0.204 C  
BRANCH  12  13
HETATM   13  C   UNL     1     -12.549   8.348  71.158  1.00  0.00    -0.156 A  
HETATM   14  C   UNL     1     -13.259   8.439  72.340  1.00  0.00    -0.219 A  
HETATM   15  C   UNL     1     -11.516  11.822  69.682  1.00  0.00    -0.341 A  
HETATM   16  C   UNL     1     -12.360  12.598  70.471  1.00  0.00    -0.350 A  
HETATM   17  C   UNL     1     -13.112  11.997  71.480  1.00  0.00    -0.362 A  
HETATM   18  N   UNL     1     -13.558   9.775  72.610  1.00  0.00    -0.638 NA 
HETATM   19  C   UNL     1     -11.467  10.420  69.835  1.00  0.00    -0.368 A  
HETATM   20  C   UNL     1     -12.269   9.762  70.805  1.00  0.00    -0.342 A  
HETATM   21  C   UNL     1     -13.018  10.589  71.644  1.00  0.00    -0.476 A  
HETATM   22  H   UNL     1     -14.101  10.100  73.409  1.00  0.00     0.000 HD 
ENDBRANCH  12  13
ENDBRANCH  11  12
BRANCH  11  23
HETATM   23  C   UNL     1     -10.373   7.048  68.355  1.00  0.00    -0.193 C  
HETATM   24  N   UNL     1      -9.260   7.777  67.984  1.00  0.00    -0.138 N  
HETATM   25  H   UNL     1      -8.563   8.029  68.684  1.00  0.00     0.000 HD 
HETATM   26  O   UNL     1     -11.205   6.652  67.534  1.00  0.00    -0.319 OA 
BRANCH  24  27
HETATM   27  C   UNL     1      -9.078   8.186  66.610  1.00  0.00    -0.165 C  
BRANCH  27  28
HETATM   28  N   UNL     1      -9.064   7.010  65.777  1.00  0.00    -0.373 N  
HETATM   29  O   UNL     1      -7.244   7.655  64.508  1.00  0.00    -0.068 OA 
HETATM   30  C   UNL     1      -8.124   6.854  64.785  1.00  0.00    -0.095 C  
HETATM   31  H   UNL     1      -9.763   6.282  65.926  1.00  0.00     0.000 HD 
ENDBRANCH  27  28
BRANCH  27  32
HETATM   32  C   UNL     1      -9.938   9.351  66.075  1.00  0.00    -0.352 C  
BRANCH  32  33
HETATM   33  C   UNL     1      -9.776  10.844  66.315  1.00  0.00    -0.245 A  
HETATM   34  C   UNL     1      -9.747  13.132  66.580  1.00  0.00    -0.268 A  
HETATM   35  H   UNL     1      -7.830  13.148  67.477  1.00  0.00     0.000 HD 
HETATM   36  C   UNL     1     -10.137  14.481  66.554  1.00  0.00    -0.280 A  
HETATM   37  C   UNL     1      -8.591  11.257  66.918  1.00  0.00    -0.150 A  
HETATM   38  C   UNL     1     -11.363  14.786  65.974  1.00  0.00    -0.332 A  
HETATM   39  N   UNL     1      -8.589  12.607  67.064  1.00  0.00    -0.196 NA 
HETATM   40  C   UNL     1     -12.156  13.773  65.438  1.00  0.00    -0.427 A  
HETATM   41  C   UNL     1     -11.754  12.421  65.484  1.00  0.00    -0.459 A  
HETATM   42  C   UNL     1     -10.520  12.069  66.074  1.00  0.00    -0.284 A  
ENDBRANCH  32  33
ENDBRANCH  27  32
ENDBRANCH  24  27
ENDBRANCH  11  23
ENDBRANCH   7  11
TORSDOF 8
ENDMDL
MODEL      188
REMARK 921   NORMALIZED FREE ENERGY PREDICTED BY IDOCK:   -6.11 KCAL/MOL
REMARK 922        TOTAL FREE ENERGY PREDICTED BY IDOCK:  -11.11 KCAL/MOL
REMARK 923 INTER-LIGAND FREE ENERGY PREDICTED BY IDOCK:   -9.21 KCAL/MOL
REMARK 924 INTRA-LIGAND FREE ENERGY PREDICTED BY IDOCK:   -1.90 KCAL/MOL
REMARK 927      BINDING AFFINITY PREDICTED BY RF-SCORE:    0.00 PKD
ROOT
HETATM    1  C   UNL     1     -12.446   7.455  71.898  1.00  0.00    -0.334 C  
HETATM    2  C   UNL     1     -11.238   7.301  70.955  1.00  0.00    -0.272 C  
HETATM    3  C   UNL     1     -10.560   8.764  70.507  1.00  0.00    -0.215 C  
HETATM    4  N   UNL     1     -11.719   6.599  69.730  1.00  0.00    -0.650 NA 
HETATM    5  C   UNL     1     -10.285   6.312  71.683  1.00  0.00    -0.225 C  
HETATM    6  H2  UNL     1     -12.513   7.066  69.289  1.00  0.00     0.000 HD 
HETATM    7  N   UNL     1     -11.084   9.401  69.376  1.00  0.00    -0.416 N  
HETATM    8  H1  UNL     1     -10.919   6.497  69.105  1.00  0.00     0.000 HD 
HETATM    9  O   UNL     1      -9.662   9.284  71.169  1.00  0.00    -0.283 OA 
HETATM   10  H   UNL     1     -11.717   8.801  68.847  1.00  0.00     0.000 HD 
ENDROOT
BRANCH   7  11
HETATM   11  C   UNL     1     -10.923  10.824  68.736  1.00  0.00    -0.247 C  
BRANCH  11  12
HETATM   12  C   UNL     1     -11.910  12.056  68.995  1.00  0.00    -0.372 C  
BRANCH  12  13
HETATM   13  C   UNL     1     -12.392  12.408  70.484  1.00  0.00    -0.346 A  
HETATM   14  C   UNL     1     -13.013  11.588  71.408  1.00  0.00    -0.348 A  
HETATM   15  C   UNL     1     -11.810  16.057  71.770  1.00  0.00    -0.599 A  
HETATM   16  C   UNL     1     -12.659  15.985  72.871  1.00  0.00    -0.577 A  
HETATM   17  C   UNL     1     -13.270  14.775  73.197  1.00  0.00    -0.543 A  
HETATM   18  N   UNL     1     -13.414  12.341  72.512  1.00  0.00    -0.563 NA 
HETATM   19  C   UNL     1     -11.618  14.940  70.929  1.00  0.00    -0.344 A  
HETATM   20  C   UNL     1     -12.276  13.708  71.188  1.00  0.00    -0.326 A  
HETATM   21  C   UNL     1     -13.030  13.652  72.361  1.00  0.00    -0.316 A  
HETATM   22  H   UNL     1     -13.920  11.971  73.316  1.00  0.00     0.000 HD 
ENDBRANCH  12  13
ENDBRANCH  11  12
BRANCH  11  23
HETATM   23  C   UNL     1     -10.549  10.609  67.245  1.00  0.00    -0.263 C  
HETATM   24  N   UNL     1      -9.585   9.660  66.964  1.00  0.00    -0.166 N  
HETATM   25  H   UNL     1      -9.253   9.042  67.704  1.00  0.00     0.000 HD 
HETATM   26  O   UNL     1     -11.040  11.328  66.370  1.00  0.00    -0.276 OA 
BRANCH  24  27
HETATM   27  C   UNL     1      -9.045   9.539  65.630  1.00  0.00    -0.201 C  
BRANCH  27  28
HETATM   28  N   UNL     1      -8.232  10.695  65.354  1.00  0.00    -0.233 N  
HETATM   29  O   UNL     1      -6.861  10.451  67.198  1.00  0.00    -0.079 OA 
HETATM   30  C   UNL     1      -7.192  11.046  66.184  1.00  0.00    -0.054 C  
HETATM   31  H   UNL     1      -8.430  11.263  64.531  1.00  0.00     0.000 HD 
ENDBRANCH  27  28
BRANCH  27  32
HETATM   32  C   UNL     1      -8.420   8.189  65.216  1.00  0.00    -0.157 C  
BRANCH  32  33
HETATM   33  C   UNL     1      -7.990   7.027  66.096  1.00  0.00    -0.110 A  
HETATM   34  C   UNL     1      -7.367   5.413  67.618  1.00  0.00    -0.076 A  
HETATM   35  H   UNL     1      -7.048   3.936  66.136  1.00  0.00     0.000 HD 
HETATM   36  C   UNL     1      -7.073   4.768  68.830  1.00  0.00    -0.053 A  
HETATM   37  C   UNL     1      -7.687   5.831  65.451  1.00  0.00    -0.091 A  
HETATM   38  C   UNL     1      -7.159   5.519  69.996  1.00  0.00    -0.066 A  
HETATM   39  N   UNL     1      -7.320   4.892  66.361  1.00  0.00    -0.080 NA 
HETATM   40  C   UNL     1      -7.521   6.864  69.939  1.00  0.00    -0.094 A  
HETATM   41  C   UNL     1      -7.826   7.493  68.713  1.00  0.00    -0.121 A  
HETATM   42  C   UNL     1      -7.759   6.762  67.506  1.00  0.00    -0.110 A  
ENDBRANCH  32  33
ENDBRANCH  27  32
ENDBRANCH  24  27
ENDBRANCH  11  23
ENDBRANCH   7  11
TORSDOF 8
ENDMDL
MODEL      189
REMARK 921   NORMALIZED FREE ENERGY PREDICTED BY IDOCK:   -6.09 KCAL/MOL
REMARK 922        TOTAL FREE ENERGY PREDICTED BY IDOCK:  -11.08 KCAL/MOL
REMARK 923 INTER-LIGAND FREE ENERGY PREDICTED BY IDOCK:   -9.52 KCAL/MOL
REMARK 924 INTRA-LIGAND FREE ENERGY PREDICTED BY IDOCK:   -1.56 KCAL/MOL
REMARK 927      BINDING AFFINITY PREDICTED BY RF-SCORE:    0.00 PKD
ROOT
HETATM    1  C   UNL     1      -9.102   5.288  72.713  1.00  0.00    -0.138 C  
HETATM    2  C   UNL     1     -10.534   5.775  73.007  1.00  0.00    -0.221 C  
HETATM    3  C   UNL     1     -11.118   6.839  71.853  1.00  0.00    -0.247 C  
HETATM    4  N   UNL     1     -10.504   6.467  74.328  1.00  0.00    -0.427 NA 
HETATM    5  C   UNL     1     -11.365   4.478  73.208  1.00  0.00    -0.364 C  
HETATM    6  H2  UNL     1      -9.811   7.215  74.370  1.00  0.00     0.000 HD 
HETATM    7  N   UNL     1     -10.850   8.201  72.036  1.00  0.00    -0.262 N  
HETATM    8  H1  UNL     1     -11.452   6.790  74.522  1.00  0.00     0.000 HD 
HETATM    9  O   UNL     1     -11.723   6.438  70.860  1.00  0.00    -0.349 OA 
HETATM   10  H   UNL     1     -10.471   8.405  72.960  1.00  0.00     0.000 HD 
ENDROOT
BRANCH   7  11
HETATM   11  C   UNL     1     -11.000   9.485  71.146  1.00  0.00    -0.368 C  
BRANCH  11  12
HETATM   12  C   UNL     1     -12.362  10.300  70.947  1.00  0.00    -0.471 C  
BRANCH  12  13
HETATM   13  C   UNL     1     -12.334  11.788  70.348  1.00  0.00    -0.362 A  
HETATM   14  C   UNL     1     -11.905  12.212  69.104  1.00  0.00    -0.305 A  
HETATM   15  C   UNL     1     -13.598  14.695  72.642  1.00  0.00    -0.571 A  
HETATM   16  C   UNL     1     -13.073  15.743  71.891  1.00  0.00    -0.492 A  
HETATM   17  C   UNL     1     -12.455  15.478  70.670  1.00  0.00    -0.483 A  
HETATM   18  N   UNL     1     -11.891  13.606  69.059  1.00  0.00    -0.333 NA 
HETATM   19  C   UNL     1     -13.446  13.356  72.223  1.00  0.00    -0.683 A  
HETATM   20  C   UNL     1     -12.763  13.040  71.018  1.00  0.00    -0.347 A  
HETATM   21  C   UNL     1     -12.349  14.126  70.246  1.00  0.00    -0.356 A  
HETATM   22  H   UNL     1     -11.585  14.159  68.260  1.00  0.00     0.000 HD 
ENDBRANCH  12  13
ENDBRANCH  11  12
BRANCH  11  23
HETATM   23  C   UNL     1     -10.217   9.218  69.833  1.00  0.00    -0.214 C  
HETATM   24  N   UNL     1     -10.940   8.773  68.743  1.00  0.00    -0.436 N  
HETATM   25  H   UNL     1     -11.959   8.765  68.781  1.00  0.00     0.000 HD 
HETATM   26  O   UNL     1      -8.987   9.322  69.810  1.00  0.00    -0.147 OA 
BRANCH  24  27
HETATM   27  C   UNL     1     -10.261   8.320  67.551  1.00  0.00    -0.243 C  
BRANCH  27  28
HETATM   28  N   UNL     1      -9.351   9.350  67.119  1.00  0.00    -0.136 N  
HETATM   29  O   UNL     1     -10.910  10.522  65.879  1.00  0.00    -0.065 OA 
HETATM   30  C   UNL     1      -9.775  10.378  66.308  1.00  0.00    -0.205 C  
HETATM   31  H   UNL     1      -8.377   9.317  67.420  1.00  0.00     0.000 HD 
ENDBRANCH  27  28
BRANCH  27  32
HETATM   32  C   UNL     1      -9.678   6.891  67.542  1.00  0.00    -0.162 C  
BRANCH  32  33
HETATM   33  C   UNL     1      -8.910   6.181  66.439  1.00  0.00    -0.144 A  
HETATM   34  C   UNL     1      -7.947   4.979  64.725  1.00  0.00    -0.100 A  
HETATM   35  H   UNL     1      -6.077   5.957  64.899  1.00  0.00     0.000 HD 
HETATM   36  C   UNL     1      -7.773   4.069  63.671  1.00  0.00    -0.074 A  
HETATM   37  C   UNL     1      -7.589   6.574  66.241  1.00  0.00    -0.090 A  
HETATM   38  C   UNL     1      -8.845   3.244  63.348  1.00  0.00    -0.092 A  
HETATM   39  N   UNL     1      -7.036   5.855  65.231  1.00  0.00    -0.061 NA 
HETATM   40  C   UNL     1     -10.037   3.333  64.065  1.00  0.00    -0.188 A  
HETATM   41  C   UNL     1     -10.198   4.264  65.114  1.00  0.00    -0.228 A  
HETATM   42  C   UNL     1      -9.136   5.126  65.466  1.00  0.00    -0.157 A  
ENDBRANCH  32  33
ENDBRANCH  27  32
ENDBRANCH  24  27
ENDBRANCH  11  23
ENDBRANCH   7  11
TORSDOF 8
ENDMDL
MODEL      190
REMARK 921   NORMALIZED FREE ENERGY PREDICTED BY IDOCK:   -6.09 KCAL/MOL
REMARK 922        TOTAL FREE ENERGY PREDICTED BY IDOCK:  -11.08 KCAL/MOL
REMARK 923 INTER-LIGAND FREE ENERGY PREDICTED BY IDOCK:   -9.13 KCAL/MOL
REMARK 924 INTRA-LIGAND FREE ENERGY PREDICTED BY IDOCK:   -1.95 KCAL/MOL
REMARK 927      BINDING AFFINITY PREDICTED BY RF-SCORE:    0.00 PKD
ROOT
HETATM    1  C   UNL     1     -13.177  10.189  70.613  1.00  0.00    -0.197 C  
HETATM    2  C   UNL     1     -11.953  10.981  70.116  1.00  0.00    -0.360 C  
HETATM    3  C   UNL     1     -11.645  10.762  68.485  1.00  0.00    -0.255 C  
HETATM    4  N   UNL     1     -10.773  10.508  70.896  1.00  0.00    -0.086 NA 
HETATM    5  C   UNL     1     -12.217  12.446  70.560  1.00  0.00    -0.382 C  
HETATM    6  H2  UNL     1     -10.641   9.497  70.846  1.00  0.00     0.000 HD 
HETATM    7  N   UNL     1     -10.824   9.688  68.121  1.00  0.00    -0.413 N  
HETATM    8  H1  UNL     1      -9.962  11.033  70.566  1.00  0.00     0.000 HD 
HETATM    9  O   UNL     1     -12.152  11.491  67.633  1.00  0.00    -0.623 OA 
HETATM   10  H   UNL     1     -10.361   9.259  68.921  1.00  0.00     0.000 HD 
ENDROOT
BRANCH   7  11
HETATM   11  C   UNL     1     -10.453   8.993  66.764  1.00  0.00    -0.200 C  
BRANCH  11  12
HETATM   12  C   UNL     1      -9.672   7.603  66.637  1.00  0.00    -0.283 C  
BRANCH  12  13
HETATM   13  C   UNL     1      -8.678   7.123  67.801  1.00  0.00    -0.125 A  
HETATM   14  C   UNL     1      -7.496   7.703  68.221  1.00  0.00    -0.104 A  
HETATM   15  C   UNL     1      -9.610   3.869  69.763  1.00  0.00    -0.271 A  
HETATM   16  C   UNL     1      -8.367   3.668  70.357  1.00  0.00    -0.082 A  
HETATM   17  C   UNL     1      -7.359   4.617  70.191  1.00  0.00    -0.050 A  
HETATM   18  N   UNL     1      -6.862   6.868  69.141  1.00  0.00    -0.066 NA 
HETATM   19  C   UNL     1      -9.843   4.982  68.928  1.00  0.00    -0.245 A  
HETATM   20  C   UNL     1      -8.820   5.936  68.678  1.00  0.00    -0.111 A  
HETATM   21  C   UNL     1      -7.627   5.752  69.380  1.00  0.00    -0.088 A  
HETATM   22  H   UNL     1      -5.959   7.059  69.575  1.00  0.00     0.000 HD 
ENDBRANCH  12  13
ENDBRANCH  11  12
BRANCH  11  23
HETATM   23  C   UNL     1      -9.935  10.105  65.813  1.00  0.00    -0.271 C  
HETATM   24  N   UNL     1     -10.881  10.889  65.181  1.00  0.00    -0.135 N  
HETATM   25  H   UNL     1     -11.861  10.817  65.452  1.00  0.00     0.000 HD 
HETATM   26  O   UNL     1      -8.728  10.210  65.578  1.00  0.00    -0.145 OA 
BRANCH  24  27
HETATM   27  C   UNL     1     -10.488  11.811  64.140  1.00  0.00    -0.346 C  
BRANCH  27  28
HETATM   28  N   UNL     1     -11.344  11.608  62.999  1.00  0.00    -0.803 N  
HETATM   29  O   UNL     1     -13.305  12.171  64.085  1.00  0.00    -0.750 OA 
HETATM   30  C   UNL     1     -12.702  11.816  63.083  1.00  0.00    -0.040 C  
HETATM   31  H   UNL     1     -10.937  11.306  62.114  1.00  0.00     0.000 HD 
ENDBRANCH  27  28
BRANCH  27  32
HETATM   32  C   UNL     1     -10.253  13.288  64.523  1.00  0.00    -0.332 C  
BRANCH  32  33
HETATM   33  C   UNL     1     -10.408  13.957  65.878  1.00  0.00    -0.318 A  
HETATM   34  C   UNL     1     -10.406  14.948  67.959  1.00  0.00    -0.244 A  
HETATM   35  H   UNL     1     -12.497  15.275  67.964  1.00  0.00     0.000 HD 
HETATM   36  C   UNL     1      -9.963  15.471  69.184  1.00  0.00    -0.246 A  
HETATM   37  C   UNL     1     -11.696  14.337  66.247  1.00  0.00    -0.393 A  
HETATM   38  C   UNL     1      -8.610  15.361  69.481  1.00  0.00    -0.212 A  
HETATM   39  N   UNL     1     -11.677  14.916  67.475  1.00  0.00    -0.350 NA 
HETATM   40  C   UNL     1      -7.743  14.743  68.580  1.00  0.00    -0.130 A  
HETATM   41  C   UNL     1      -8.204  14.234  67.347  1.00  0.00    -0.217 A  
HETATM   42  C   UNL     1      -9.570  14.335  67.005  1.00  0.00    -0.260 A  
ENDBRANCH  32  33
ENDBRANCH  27  32
ENDBRANCH  24  27
ENDBRANCH  11  23
ENDBRANCH   7  11
TORSDOF 8
ENDMDL
MODEL      191
REMARK 921   NORMALIZED FREE ENERGY PREDICTED BY IDOCK:   -6.08 KCAL/MOL
REMARK 922        TOTAL FREE ENERGY PREDICTED BY IDOCK:  -11.07 KCAL/MOL
REMARK 923 INTER-LIGAND FREE ENERGY PREDICTED BY IDOCK:   -9.73 KCAL/MOL
REMARK 924 INTRA-LIGAND FREE ENERGY PREDICTED BY IDOCK:   -1.34 KCAL/MOL
REMARK 927      BINDING AFFINITY PREDICTED BY RF-SCORE:    0.00 PKD
ROOT
HETATM    1  C   UNL     1      -7.854   8.550  64.425  1.00  0.00    -0.140 C  
HETATM    2  C   UNL     1      -7.278   9.977  64.510  1.00  0.00    -0.139 C  
HETATM    3  C   UNL     1      -7.831  10.833  65.837  1.00  0.00    -0.131 C  
HETATM    4  N   UNL     1      -7.689  10.695  63.269  1.00  0.00    -0.349 NA 
HETATM    5  C   UNL     1      -5.737   9.792  64.422  1.00  0.00    -0.089 C  
HETATM    6  H2  UNL     1      -8.698  10.680  63.115  1.00  0.00     0.000 HD 
HETATM    7  N   UNL     1      -9.020  11.557  65.689  1.00  0.00    -0.377 N  
HETATM    8  H1  UNL     1      -7.307  11.639  63.325  1.00  0.00     0.000 HD 
HETATM    9  O   UNL     1      -7.240  10.796  66.916  1.00  0.00    -0.102 OA 
HETATM   10  H   UNL     1      -9.325  11.617  64.718  1.00  0.00     0.000 HD 
ENDROOT
BRANCH   7  11
HETATM   11  C   UNL     1      -9.993  12.297  66.674  1.00  0.00    -0.215 C  
BRANCH  11  12
HETATM   12  C   UNL     1      -9.706  13.725  67.335  1.00  0.00    -0.235 C  
BRANCH  12  13
HETATM   13  C   UNL     1     -10.162  15.069  66.588  1.00  0.00    -0.271 A  
HETATM   14  C   UNL     1     -10.624  15.225  65.295  1.00  0.00    -0.417 A  
HETATM   15  C   UNL     1      -9.950  18.423  68.591  1.00  0.00    -0.415 A  
HETATM   16  C   UNL     1     -10.078  19.279  67.501  1.00  0.00    -0.487 A  
HETATM   17  C   UNL     1     -10.327  18.755  66.233  1.00  0.00    -0.497 A  
HETATM   18  N   UNL     1     -10.742  16.583  64.997  1.00  0.00    -0.692 NA 
HETATM   19  C   UNL     1      -9.992  17.023  68.422  1.00  0.00    -0.289 A  
HETATM   20  C   UNL     1     -10.176  16.447  67.137  1.00  0.00    -0.282 A  
HETATM   21  C   UNL     1     -10.407  17.343  66.091  1.00  0.00    -0.327 A  
HETATM   22  H   UNL     1     -11.035  16.957  64.095  1.00  0.00     0.000 HD 
ENDBRANCH  12  13
ENDBRANCH  11  12
BRANCH  11  23
HETATM   23  C   UNL     1     -10.529  11.230  67.666  1.00  0.00    -0.193 C  
HETATM   24  N   UNL     1     -10.379  11.487  69.015  1.00  0.00    -0.364 N  
HETATM   25  H   UNL     1     -10.059  12.404  69.323  1.00  0.00     0.000 HD 
HETATM   26  O   UNL     1     -10.988  10.164  67.245  1.00  0.00    -0.266 OA 
BRANCH  24  27
HETATM   27  C   UNL     1     -10.675  10.463  69.991  1.00  0.00    -0.265 C  
BRANCH  27  28
HETATM   28  N   UNL     1     -12.087  10.185  69.955  1.00  0.00    -0.481 N  
HETATM   29  O   UNL     1     -12.649  11.653  71.649  1.00  0.00    -0.277 OA 
HETATM   30  C   UNL     1     -12.960  10.825  70.806  1.00  0.00    -0.262 C  
HETATM   31  H   UNL     1     -12.447   9.504  69.287  1.00  0.00     0.000 HD 
ENDBRANCH  27  28
BRANCH  27  32
HETATM   32  C   UNL     1      -9.767   9.216  70.037  1.00  0.00    -0.217 C  
BRANCH  32  33
HETATM   33  C   UNL     1      -9.773   8.069  71.035  1.00  0.00    -0.185 A  
HETATM   34  C   UNL     1      -9.789   6.182  72.357  1.00  0.00    -0.164 A  
HETATM   35  H   UNL     1      -9.726   7.277  74.168  1.00  0.00     0.000 HD 
HETATM   36  C   UNL     1      -9.804   4.836  72.758  1.00  0.00    -0.184 A  
HETATM   37  C   UNL     1      -9.733   8.411  72.384  1.00  0.00    -0.306 A  
HETATM   38  C   UNL     1      -9.885   3.869  71.763  1.00  0.00    -0.249 A  
HETATM   39  N   UNL     1      -9.746   7.289  73.149  1.00  0.00    -0.188 NA 
HETATM   40  C   UNL     1      -9.952   4.246  70.423  1.00  0.00    -0.213 A  
HETATM   41  C   UNL     1      -9.923   5.604  70.038  1.00  0.00    -0.267 A  
HETATM   42  C   UNL     1      -9.832   6.616  71.018  1.00  0.00    -0.196 A  
ENDBRANCH  32  33
ENDBRANCH  27  32
ENDBRANCH  24  27
ENDBRANCH  11  23
ENDBRANCH   7  11
TORSDOF 8
ENDMDL
MODEL      192
REMARK 921   NORMALIZED FREE ENERGY PREDICTED BY IDOCK:   -6.08 KCAL/MOL
REMARK 922        TOTAL FREE ENERGY PREDICTED BY IDOCK:  -11.06 KCAL/MOL
REMARK 923 INTER-LIGAND FREE ENERGY PREDICTED BY IDOCK:   -9.55 KCAL/MOL
REMARK 924 INTRA-LIGAND FREE ENERGY PREDICTED BY IDOCK:   -1.52 KCAL/MOL
REMARK 927      BINDING AFFINITY PREDICTED BY RF-SCORE:    0.00 PKD
ROOT
HETATM    1  C   UNL     1      -7.118  10.753  64.289  1.00  0.00     0.385 C  
HETATM    2  C   UNL     1      -8.316   9.806  64.499  1.00  0.00    -0.165 C  
HETATM    3  C   UNL     1      -9.342  10.304  65.724  1.00  0.00    -0.186 C  
HETATM    4  N   UNL     1      -7.764   8.465  64.849  1.00  0.00    -0.100 NA 
HETATM    5  C   UNL     1      -8.964   9.662  63.094  1.00  0.00    -0.253 C  
HETATM    6  H2  UNL     1      -7.130   8.491  65.649  1.00  0.00     0.000 HD 
HETATM    7  N   UNL     1      -9.053   9.873  67.024  1.00  0.00    -0.138 N  
HETATM    8  H1  UNL     1      -8.557   7.839  64.988  1.00  0.00     0.000 HD 
HETATM    9  O   UNL     1     -10.291  11.054  65.500  1.00  0.00    -0.255 OA 
HETATM   10  H   UNL     1      -8.334   9.151  67.047  1.00  0.00     0.000 HD 
ENDROOT
BRANCH   7  11
HETATM   11  C   UNL     1      -9.581  10.247  68.454  1.00  0.00    -0.149 C  
BRANCH  11  12
HETATM   12  C   UNL     1     -10.776   9.498  69.208  1.00  0.00    -0.240 C  
BRANCH  12  13
HETATM   13  C   UNL     1     -10.635   7.952  69.612  1.00  0.00    -0.234 A  
HETATM   14  C   UNL     1     -10.688   6.837  68.797  1.00  0.00    -0.239 A  
HETATM   15  C   UNL     1     -10.096   7.103  73.393  1.00  0.00    -0.345 A  
HETATM   16  C   UNL     1     -10.386   5.744  73.304  1.00  0.00    -0.234 A  
HETATM   17  C   UNL     1     -10.625   5.167  72.058  1.00  0.00    -0.266 A  
HETATM   18  N   UNL     1     -10.693   5.681  69.578  1.00  0.00    -0.320 NA 
HETATM   19  C   UNL     1     -10.116   7.925  72.247  1.00  0.00    -0.297 A  
HETATM   20  C   UNL     1     -10.421   7.388  70.968  1.00  0.00    -0.223 A  
HETATM   21  C   UNL     1     -10.599   6.005  70.910  1.00  0.00    -0.251 A  
HETATM   22  H   UNL     1     -10.758   4.731  69.213  1.00  0.00     0.000 HD 
ENDBRANCH  12  13
ENDBRANCH  11  12
BRANCH  11  23
HETATM   23  C   UNL     1      -9.658  11.796  68.517  1.00  0.00    -0.170 C  
HETATM   24  N   UNL     1     -10.887  12.379  68.278  1.00  0.00    -0.226 N  
HETATM   25  H   UNL     1     -11.720  11.795  68.208  1.00  0.00     0.000 HD 
HETATM   26  O   UNL     1      -8.634  12.463  68.688  1.00  0.00    -0.095 OA 
BRANCH  24  27
HETATM   27  C   UNL     1     -10.999  13.812  68.127  1.00  0.00    -0.246 C  
BRANCH  27  28
HETATM   28  N   UNL     1     -10.636  14.436  69.373  1.00  0.00    -0.401 N  
HETATM   29  O   UNL     1     -12.804  14.718  70.124  1.00  0.00    -0.273 OA 
HETATM   30  C   UNL     1     -11.597  14.836  70.274  1.00  0.00    -0.282 C  
HETATM   31  H   UNL     1      -9.651  14.585  69.592  1.00  0.00     0.000 HD 
ENDBRANCH  27  28
BRANCH  27  32
HETATM   32  C   UNL     1     -10.386  14.464  66.870  1.00  0.00    -0.265 C  
BRANCH  32  33
HETATM   33  C   UNL     1     -10.479  15.907  66.402  1.00  0.00    -0.311 A  
HETATM   34  C   UNL     1     -10.548  18.157  65.913  1.00  0.00    -0.234 A  
HETATM   35  H   UNL     1     -11.186  17.850  63.918  1.00  0.00     0.000 HD 
HETATM   36  C   UNL     1     -10.448  19.552  66.041  1.00  0.00    -0.611 A  
HETATM   37  C   UNL     1     -10.881  16.114  65.085  1.00  0.00    -0.361 A  
HETATM   38  C   UNL     1     -10.079  20.060  67.281  1.00  0.00    -0.577 A  
HETATM   39  N   UNL     1     -10.918  17.444  64.814  1.00  0.00    -0.851 NA 
HETATM   40  C   UNL     1      -9.828  19.195  68.346  1.00  0.00    -0.473 A  
HETATM   41  C   UNL     1      -9.922  17.795  68.195  1.00  0.00    -0.342 A  
HETATM   42  C   UNL     1     -10.284  17.239  66.948  1.00  0.00    -0.322 A  
ENDBRANCH  32  33
ENDBRANCH  27  32
ENDBRANCH  24  27
ENDBRANCH  11  23
ENDBRANCH   7  11
TORSDOF 8
ENDMDL
MODEL      193
REMARK 921   NORMALIZED FREE ENERGY PREDICTED BY IDOCK:   -6.08 KCAL/MOL
REMARK 922        TOTAL FREE ENERGY PREDICTED BY IDOCK:  -11.06 KCAL/MOL
REMARK 923 INTER-LIGAND FREE ENERGY PREDICTED BY IDOCK:   -9.55 KCAL/MOL
REMARK 924 INTRA-LIGAND FREE ENERGY PREDICTED BY IDOCK:   -1.51 KCAL/MOL
REMARK 927      BINDING AFFINITY PREDICTED BY RF-SCORE:    0.00 PKD
ROOT
HETATM    1  C   UNL     1      -6.975   9.779  64.487  1.00  0.00    -0.125 C  
HETATM    2  C   UNL     1      -8.498   9.580  64.363  1.00  0.00    -0.181 C  
HETATM    3  C   UNL     1      -9.383  10.697  65.241  1.00  0.00    -0.214 C  
HETATM    4  N   UNL     1      -8.809   8.213  64.872  1.00  0.00    -0.394 NA 
HETATM    5  C   UNL     1      -8.775   9.554  62.834  1.00  0.00    -0.233 C  
HETATM    6  H2  UNL     1      -8.460   8.051  65.818  1.00  0.00     0.000 HD 
HETATM    7  N   UNL     1      -9.670  10.388  66.576  1.00  0.00    -0.186 N  
HETATM    8  H1  UNL     1      -9.817   8.081  64.790  1.00  0.00     0.000 HD 
HETATM    9  O   UNL     1      -9.732  11.769  64.748  1.00  0.00    -0.233 OA 
HETATM   10  H   UNL     1      -9.450   9.420  66.811  1.00  0.00     0.000 HD 
ENDROOT
BRANCH   7  11
HETATM   11  C   UNL     1     -10.254  11.187  67.794  1.00  0.00    -0.180 C  
BRANCH  11  12
HETATM   12  C   UNL     1      -9.566  12.471  68.454  1.00  0.00    -0.176 C  
BRANCH  12  13
HETATM   13  C   UNL     1     -10.306  13.893  68.421  1.00  0.00    -0.249 A  
HETATM   14  C   UNL     1     -11.601  14.203  68.794  1.00  0.00    -0.327 A  
HETATM   15  C   UNL     1      -8.281  16.969  67.098  1.00  0.00    -0.214 A  
HETATM   16  C   UNL     1      -9.367  17.822  66.920  1.00  0.00    -0.272 A  
HETATM   17  C   UNL     1     -10.639  17.418  67.324  1.00  0.00    -0.284 A  
HETATM   18  N   UNL     1     -11.891  15.521  68.443  1.00  0.00    -0.491 NA 
HETATM   19  C   UNL     1      -8.460  15.666  67.611  1.00  0.00    -0.169 A  
HETATM   20  C   UNL     1      -9.749  15.193  67.971  1.00  0.00    -0.209 A  
HETATM   21  C   UNL     1     -10.790  16.118  67.877  1.00  0.00    -0.332 A  
HETATM   22  H   UNL     1     -12.792  15.977  68.585  1.00  0.00     0.000 HD 
ENDBRANCH  12  13
ENDBRANCH  11  12
BRANCH  11  23
HETATM   23  C   UNL     1     -10.767  10.140  68.818  1.00  0.00    -0.220 C  
HETATM   24  N   UNL     1     -11.158  10.605  70.058  1.00  0.00    -0.344 N  
HETATM   25  H   UNL     1     -11.233  11.609  70.222  1.00  0.00     0.000 HD 
HETATM   26  O   UNL     1     -10.736   8.936  68.545  1.00  0.00    -0.178 OA 
BRANCH  24  27
HETATM   27  C   UNL     1     -11.461   9.678  71.125  1.00  0.00    -0.384 C  
BRANCH  27  28
HETATM   28  N   UNL     1     -12.612   8.901  70.746  1.00  0.00    -0.487 N  
HETATM   29  O   UNL     1     -13.802   9.300  72.687  1.00  0.00    -0.449 OA 
HETATM   30  C   UNL     1     -13.699   8.786  71.583  1.00  0.00    -0.394 C  
HETATM   31  H   UNL     1     -12.623   8.427  69.843  1.00  0.00     0.000 HD 
ENDBRANCH  27  28
BRANCH  27  32
HETATM   32  C   UNL     1     -10.300   8.866  71.737  1.00  0.00    -0.426 C  
BRANCH  32  33
HETATM   33  C   UNL     1     -10.272   7.403  72.147  1.00  0.00    -0.226 A  
HETATM   34  C   UNL     1     -10.171   5.135  72.542  1.00  0.00    -0.194 A  
HETATM   35  H   UNL     1     -10.677   5.323  74.588  1.00  0.00     0.000 HD 
HETATM   36  C   UNL     1      -9.998   3.755  72.345  1.00  0.00    -0.232 A  
HETATM   37  C   UNL     1     -10.562   7.119  73.479  1.00  0.00    -0.374 A  
HETATM   38  C   UNL     1      -9.692   3.321  71.061  1.00  0.00    -0.199 A  
HETATM   39  N   UNL     1     -10.501   5.780  73.694  1.00  0.00    -0.247 NA 
HETATM   40  C   UNL     1      -9.573   4.240  70.020  1.00  0.00    -0.274 A  
HETATM   41  C   UNL     1      -9.737   5.625  70.239  1.00  0.00    -0.232 A  
HETATM   42  C   UNL     1     -10.039   6.107  71.531  1.00  0.00    -0.227 A  
ENDBRANCH  32  33
ENDBRANCH  27  32
ENDBRANCH  24  27
ENDBRANCH  11  23
ENDBRANCH   7  11
TORSDOF 8
ENDMDL
MODEL      194
REMARK 921   NORMALIZED FREE ENERGY PREDICTED BY IDOCK:   -6.07 KCAL/MOL
REMARK 922        TOTAL FREE ENERGY PREDICTED BY IDOCK:  -11.05 KCAL/MOL
REMARK 923 INTER-LIGAND FREE ENERGY PREDICTED BY IDOCK:   -9.36 KCAL/MOL
REMARK 924 INTRA-LIGAND FREE ENERGY PREDICTED BY IDOCK:   -1.69 KCAL/MOL
REMARK 927      BINDING AFFINITY PREDICTED BY RF-SCORE:    0.00 PKD
ROOT
HETATM    1  C   UNL     1     -10.413   5.061  68.344  1.00  0.00    -0.016 C  
HETATM    2  C   UNL     1     -10.074   5.943  67.126  1.00  0.00    -0.177 C  
HETATM    3  C   UNL     1      -8.894   7.086  67.449  1.00  0.00    -0.119 C  
HETATM    4  N   UNL     1     -11.327   6.646  66.725  1.00  0.00    -0.795 NA 
HETATM    5  C   UNL     1      -9.746   4.940  65.985  1.00  0.00    -0.200 C  
HETATM    6  H2  UNL     1     -11.753   7.169  67.491  1.00  0.00     0.000 HD 
HETATM    7  N   UNL     1      -9.313   8.323  67.952  1.00  0.00    -0.138 N  
HETATM    8  H1  UNL     1     -11.102   7.229  65.919  1.00  0.00     0.000 HD 
HETATM    9  O   UNL     1      -7.699   6.837  67.289  1.00  0.00    -0.104 OA 
HETATM   10  H   UNL     1     -10.324   8.445  67.901  1.00  0.00     0.000 HD 
ENDROOT
BRANCH   7  11
HETATM   11  C   UNL     1      -8.585   9.564  68.579  1.00  0.00    -0.119 C  
BRANCH  11  12
HETATM   12  C   UNL     1      -8.245   9.732  70.133  1.00  0.00    -0.202 C  
BRANCH  12  13
HETATM   13  C   UNL     1      -9.274   9.209  71.247  1.00  0.00    -0.261 A  
HETATM   14  C   UNL     1      -9.039   8.355  72.308  1.00  0.00    -0.243 A  
HETATM   15  C   UNL     1     -12.984  10.429  71.012  1.00  0.00    -0.490 A  
HETATM   16  C   UNL     1     -13.526   9.494  71.889  1.00  0.00    -0.502 A  
HETATM   17  C   UNL     1     -12.684   8.619  72.574  1.00  0.00    -0.357 A  
HETATM   18  N   UNL     1     -10.246   8.028  72.927  1.00  0.00    -0.314 NA 
HETATM   19  C   UNL     1     -11.599  10.455  70.743  1.00  0.00    -0.450 A  
HETATM   20  C   UNL     1     -10.717   9.535  71.369  1.00  0.00    -0.348 A  
HETATM   21  C   UNL     1     -11.288   8.688  72.321  1.00  0.00    -0.340 A  
HETATM   22  H   UNL     1     -10.341   7.389  73.716  1.00  0.00     0.000 HD 
ENDBRANCH  12  13
ENDBRANCH  11  12
BRANCH  11  23
HETATM   23  C   UNL     1      -9.198  10.828  67.919  1.00  0.00    -0.150 C  
HETATM   24  N   UNL     1      -8.840  12.054  68.444  1.00  0.00    -0.252 N  
HETATM   25  H   UNL     1      -8.096  12.109  69.139  1.00  0.00     0.000 HD 
HETATM   26  O   UNL     1     -10.037  10.716  67.020  1.00  0.00    -0.195 OA 
BRANCH  24  27
HETATM   27  C   UNL     1      -9.513  13.258  68.015  1.00  0.00    -0.219 C  
BRANCH  27  28
HETATM   28  N   UNL     1     -10.369  13.713  69.081  1.00  0.00    -0.432 N  
HETATM   29  O   UNL     1     -12.350  13.129  68.044  1.00  0.00    -0.140 OA 
HETATM   30  C   UNL     1     -11.737  13.599  68.991  1.00  0.00    -0.333 C  
HETATM   31  H   UNL     1      -9.953  14.126  69.915  1.00  0.00     0.000 HD 
ENDBRANCH  27  28
BRANCH  27  32
HETATM   32  C   UNL     1      -8.673  14.363  67.339  1.00  0.00    -0.214 C  
BRANCH  32  33
HETATM   33  C   UNL     1      -8.115  15.641  67.943  1.00  0.00    -0.149 A  
HETATM   34  C   UNL     1      -7.409  17.698  68.704  1.00  0.00    -0.257 A  
HETATM   35  H   UNL     1      -6.102  16.874  70.151  1.00  0.00     0.000 HD 
HETATM   36  C   UNL     1      -7.272  19.087  68.854  1.00  0.00    -0.364 A  
HETATM   37  C   UNL     1      -7.188  15.496  68.972  1.00  0.00    -0.156 A  
HETATM   38  C   UNL     1      -7.996  19.903  67.992  1.00  0.00    -0.314 A  
HETATM   39  N   UNL     1      -6.781  16.716  69.406  1.00  0.00    -0.221 NA 
HETATM   40  C   UNL     1      -8.818  19.338  67.018  1.00  0.00    -0.325 A  
HETATM   41  C   UNL     1      -8.953  17.939  66.890  1.00  0.00    -0.265 A  
HETATM   42  C   UNL     1      -8.242  17.076  67.752  1.00  0.00    -0.196 A  
ENDBRANCH  32  33
ENDBRANCH  27  32
ENDBRANCH  24  27
ENDBRANCH  11  23
ENDBRANCH   7  11
TORSDOF 8
ENDMDL
MODEL      195
REMARK 921   NORMALIZED FREE ENERGY PREDICTED BY IDOCK:   -6.07 KCAL/MOL
REMARK 922        TOTAL FREE ENERGY PREDICTED BY IDOCK:  -11.05 KCAL/MOL
REMARK 923 INTER-LIGAND FREE ENERGY PREDICTED BY IDOCK:   -9.23 KCAL/MOL
REMARK 924 INTRA-LIGAND FREE ENERGY PREDICTED BY IDOCK:   -1.82 KCAL/MOL
REMARK 927      BINDING AFFINITY PREDICTED BY RF-SCORE:    0.00 PKD
ROOT
HETATM    1  C   UNL     1      -9.942   6.485  66.781  1.00  0.00    -0.224 C  
HETATM    2  C   UNL     1      -9.423   5.754  68.035  1.00  0.00    -0.110 C  
HETATM    3  C   UNL     1      -9.944   6.450  69.466  1.00  0.00    -0.162 C  
HETATM    4  N   UNL     1      -7.933   5.804  67.991  1.00  0.00    -0.100 NA 
HETATM    5  C   UNL     1      -9.821   4.267  67.825  1.00  0.00    -0.132 C  
HETATM    6  H2  UNL     1      -7.567   6.753  67.901  1.00  0.00     0.000 HD 
HETATM    7  N   UNL     1      -9.162   7.477  70.007  1.00  0.00    -0.151 N  
HETATM    8  H1  UNL     1      -7.589   5.320  68.821  1.00  0.00     0.000 HD 
HETATM    9  O   UNL     1     -10.996   6.102  70.002  1.00  0.00    -0.304 OA 
HETATM   10  H   UNL     1      -8.257   7.565  69.546  1.00  0.00     0.000 HD 
ENDROOT
BRANCH   7  11
HETATM   11  C   UNL     1      -9.358   8.524  71.160  1.00  0.00    -0.196 C  
BRANCH  11  12
HETATM   12  C   UNL     1      -9.451   8.159  72.714  1.00  0.00    -0.349 C  
BRANCH  12  13
HETATM   13  C   UNL     1      -8.984   6.716  73.237  1.00  0.00    -0.138 A  
HETATM   14  C   UNL     1      -7.727   6.308  73.640  1.00  0.00    -0.093 A  
HETATM   15  C   UNL     1     -11.678   3.884  73.407  1.00  0.00    -0.008 A  
HETATM   16  C   UNL     1     -10.794   2.818  73.544  1.00  0.00    -0.299 A  
HETATM   17  C   UNL     1      -9.428   3.064  73.682  1.00  0.00    -0.116 A  
HETATM   18  N   UNL     1      -7.723   4.929  73.852  1.00  0.00    -0.097 NA 
HETATM   19  C   UNL     1     -11.206   5.211  73.325  1.00  0.00    -0.389 A  
HETATM   20  C   UNL     1      -9.817   5.498  73.393  1.00  0.00    -0.172 A  
HETATM   21  C   UNL     1      -8.978   4.411  73.639  1.00  0.00    -0.099 A  
HETATM   22  H   UNL     1      -6.906   4.384  74.125  1.00  0.00     0.000 HD 
ENDBRANCH  12  13
ENDBRANCH  11  12
BRANCH  11  23
HETATM   23  C   UNL     1     -10.433   9.533  70.675  1.00  0.00    -0.308 C  
HETATM   24  N   UNL     1     -11.571   9.667  71.447  1.00  0.00    -0.385 N  
HETATM   25  H   UNL     1     -11.617   9.220  72.362  1.00  0.00     0.000 HD 
HETATM   26  O   UNL     1     -10.296  10.118  69.596  1.00  0.00    -0.219 OA 
BRANCH  24  27
HETATM   27  C   UNL     1     -12.695  10.436  70.965  1.00  0.00    -0.394 C  
BRANCH  27  28
HETATM   28  N   UNL     1     -13.850   9.577  70.906  1.00  0.00    -0.474 N  
HETATM   29  O   UNL     1     -13.659   8.795  73.073  1.00  0.00    -0.246 OA 
HETATM   30  C   UNL     1     -14.231   8.823  71.993  1.00  0.00    -0.414 C  
HETATM   31  H   UNL     1     -14.394   9.526  70.045  1.00  0.00     0.000 HD 
ENDBRANCH  27  28
BRANCH  27  32
HETATM   32  C   UNL     1     -12.949  11.826  71.587  1.00  0.00    -0.467 C  
BRANCH  32  33
HETATM   33  C   UNL     1     -12.655  13.199  71.005  1.00  0.00    -0.397 A  
HETATM   34  C   UNL     1     -12.116  15.166  69.933  1.00  0.00    -0.336 A  
HETATM   35  H   UNL     1     -12.876  16.387  71.486  1.00  0.00     0.000 HD 
HETATM   36  C   UNL     1     -11.644  16.072  68.970  1.00  0.00    -0.350 A  
HETATM   37  C   UNL     1     -13.032  14.298  71.772  1.00  0.00    -0.354 A  
HETATM   38  C   UNL     1     -11.043  15.547  67.832  1.00  0.00    -0.321 A  
HETATM   39  N   UNL     1     -12.705  15.448  71.127  1.00  0.00    -0.405 NA 
HETATM   40  C   UNL     1     -10.920  14.167  67.678  1.00  0.00    -0.278 A  
HETATM   41  C   UNL     1     -11.411  13.271  68.651  1.00  0.00    -0.339 A  
HETATM   42  C   UNL     1     -12.037  13.764  69.817  1.00  0.00    -0.400 A  
ENDBRANCH  32  33
ENDBRANCH  27  32
ENDBRANCH  24  27
ENDBRANCH  11  23
ENDBRANCH   7  11
TORSDOF 8
ENDMDL
MODEL      196
REMARK 921   NORMALIZED FREE ENERGY PREDICTED BY IDOCK:   -6.06 KCAL/MOL
REMARK 922        TOTAL FREE ENERGY PREDICTED BY IDOCK:  -11.04 KCAL/MOL
REMARK 923 INTER-LIGAND FREE ENERGY PREDICTED BY IDOCK:   -8.96 KCAL/MOL
REMARK 924 INTRA-LIGAND FREE ENERGY PREDICTED BY IDOCK:   -2.08 KCAL/MOL
REMARK 927      BINDING AFFINITY PREDICTED BY RF-SCORE:    0.00 PKD
ROOT
HETATM    1  C   UNL     1      -7.371  10.073  64.615  1.00  0.00    -0.143 C  
HETATM    2  C   UNL     1      -8.885   9.802  64.513  1.00  0.00    -0.216 C  
HETATM    3  C   UNL     1      -9.793  10.735  65.566  1.00  0.00    -0.255 C  
HETATM    4  N   UNL     1      -9.100   8.363  64.839  1.00  0.00    -0.377 NA 
HETATM    5  C   UNL     1      -9.221   9.969  63.005  1.00  0.00    -0.313 C  
HETATM    6  H2  UNL     1      -8.707   8.094  65.741  1.00  0.00     0.000 HD 
HETATM    7  N   UNL     1     -10.010  10.230  66.853  1.00  0.00    -0.200 N  
HETATM    8  H1  UNL     1     -10.103   8.184  64.771  1.00  0.00     0.000 HD 
HETATM    9  O   UNL     1     -10.220  11.842  65.237  1.00  0.00    -0.247 OA 
HETATM   10  H   UNL     1      -9.729   9.255  66.945  1.00  0.00     0.000 HD 
ENDROOT
BRANCH   7  11
HETATM   11  C   UNL     1     -10.588  10.821  68.188  1.00  0.00    -0.203 C  
BRANCH  11  12
HETATM   12  C   UNL     1     -10.101  12.185  68.866  1.00  0.00    -0.012 C  
BRANCH  12  13
HETATM   13  C   UNL     1     -11.129  13.399  69.070  1.00  0.00    -0.293 A  
HETATM   14  C   UNL     1     -11.349  14.493  68.254  1.00  0.00    -0.297 A  
HETATM   15  C   UNL     1     -13.340  13.385  72.298  1.00  0.00    -0.641 A  
HETATM   16  C   UNL     1     -13.757  14.711  72.223  1.00  0.00    -0.565 A  
HETATM   17  C   UNL     1     -13.407  15.486  71.118  1.00  0.00    -0.553 A  
HETATM   18  N   UNL     1     -12.203  15.393  68.891  1.00  0.00    -0.604 NA 
HETATM   19  C   UNL     1     -12.501  12.832  71.308  1.00  0.00    -0.284 A  
HETATM   20  C   UNL     1     -12.067  13.609  70.201  1.00  0.00    -0.431 A  
HETATM   21  C   UNL     1     -12.596  14.897  70.111  1.00  0.00    -0.264 A  
HETATM   22  H   UNL     1     -12.494  16.291  68.506  1.00  0.00     0.000 HD 
ENDBRANCH  12  13
ENDBRANCH  11  12
BRANCH  11  23
HETATM   23  C   UNL     1     -10.741   9.635  69.178  1.00  0.00    -0.217 C  
HETATM   24  N   UNL     1     -10.769   9.934  70.526  1.00  0.00    -0.306 N  
HETATM   25  H   UNL     1     -10.830  10.906  70.827  1.00  0.00     0.000 HD 
HETATM   26  O   UNL     1     -10.747   8.473  68.760  1.00  0.00    -0.169 OA 
BRANCH  24  27
HETATM   27  C   UNL     1     -10.713   8.878  71.510  1.00  0.00    -0.328 C  
BRANCH  27  28
HETATM   28  N   UNL     1     -11.798   7.963  71.266  1.00  0.00    -0.293 N  
HETATM   29  O   UNL     1     -13.368   9.143  72.485  1.00  0.00    -0.458 OA 
HETATM   30  C   UNL     1     -13.052   8.191  71.788  1.00  0.00    -0.345 C  
HETATM   31  H   UNL     1     -11.635   7.132  70.698  1.00  0.00     0.000 HD 
ENDBRANCH  27  28
BRANCH  27  32
HETATM   32  C   UNL     1      -9.349   8.211  71.789  1.00  0.00    -0.241 C  
BRANCH  32  33
HETATM   33  C   UNL     1      -8.532   7.300  70.889  1.00  0.00    -0.128 A  
HETATM   34  C   UNL     1      -7.230   6.114  69.402  1.00  0.00    -0.074 A  
HETATM   35  H   UNL     1      -7.638   4.247  70.312  1.00  0.00     0.000 HD 
HETATM   36  C   UNL     1      -6.369   5.808  68.336  1.00  0.00    -0.041 A  
HETATM   37  C   UNL     1      -8.551   5.940  71.190  1.00  0.00    -0.129 A  
HETATM   38  C   UNL     1      -5.957   6.854  67.520  1.00  0.00    -0.028 A  
HETATM   39  N   UNL     1      -7.782   5.257  70.304  1.00  0.00    -0.071 NA 
HETATM   40  C   UNL     1      -6.400   8.152  67.767  1.00  0.00    -0.053 A  
HETATM   41  C   UNL     1      -7.256   8.444  68.851  1.00  0.00    -0.078 A  
HETATM   42  C   UNL     1      -7.690   7.410  69.709  1.00  0.00    -0.103 A  
ENDBRANCH  32  33
ENDBRANCH  27  32
ENDBRANCH  24  27
ENDBRANCH  11  23
ENDBRANCH   7  11
TORSDOF 8
ENDMDL
MODEL      197
REMARK 921   NORMALIZED FREE ENERGY PREDICTED BY IDOCK:   -6.06 KCAL/MOL
REMARK 922        TOTAL FREE ENERGY PREDICTED BY IDOCK:  -11.04 KCAL/MOL
REMARK 923 INTER-LIGAND FREE ENERGY PREDICTED BY IDOCK:   -9.33 KCAL/MOL
REMARK 924 INTRA-LIGAND FREE ENERGY PREDICTED BY IDOCK:   -1.71 KCAL/MOL
REMARK 927      BINDING AFFINITY PREDICTED BY RF-SCORE:    0.00 PKD
ROOT
HETATM    1  C   UNL     1      -9.389  10.304  62.757  1.00  0.00    -0.340 C  
HETATM    2  C   UNL     1      -8.451   9.809  63.875  1.00  0.00    -0.184 C  
HETATM    3  C   UNL     1      -9.140   9.893  65.399  1.00  0.00    -0.196 C  
HETATM    4  N   UNL     1      -7.236  10.673  63.848  1.00  0.00    -0.338 NA 
HETATM    5  C   UNL     1      -7.996   8.395  63.419  1.00  0.00    -0.160 C  
HETATM    6  H2  UNL     1      -7.452  11.668  63.920  1.00  0.00     0.000 HD 
HETATM    7  N   UNL     1      -8.995  11.092  66.108  1.00  0.00    -0.186 N  
HETATM    8  H1  UNL     1      -6.615  10.345  64.589  1.00  0.00     0.000 HD 
HETATM    9  O   UNL     1      -9.785   8.954  65.864  1.00  0.00    -0.255 OA 
HETATM   10  H   UNL     1      -8.326  11.726  65.673  1.00  0.00     0.000 HD 
ENDROOT
BRANCH   7  11
HETATM   11  C   UNL     1      -9.626  11.683  67.417  1.00  0.00    -0.166 C  
BRANCH  11  12
HETATM   12  C   UNL     1     -11.167  11.551  67.825  1.00  0.00    -0.343 C  
BRANCH  12  13
HETATM   13  C   UNL     1     -11.578  10.935  69.247  1.00  0.00    -0.388 A  
HETATM   14  C   UNL     1     -12.376  11.489  70.232  1.00  0.00    -0.273 A  
HETATM   15  C   UNL     1     -10.166   7.407  70.178  1.00  0.00    -0.207 A  
HETATM   16  C   UNL     1     -10.462   7.460  71.537  1.00  0.00    -0.219 A  
HETATM   17  C   UNL     1     -11.176   8.542  72.049  1.00  0.00    -0.418 A  
HETATM   18  N   UNL     1     -12.332  10.694  71.377  1.00  0.00    -0.364 NA 
HETATM   19  C   UNL     1     -10.509   8.473  69.320  1.00  0.00    -0.224 A  
HETATM   20  C   UNL     1     -11.176   9.625  69.815  1.00  0.00    -0.208 A  
HETATM   21  C   UNL     1     -11.549   9.586  71.160  1.00  0.00    -0.367 A  
HETATM   22  H   UNL     1     -12.813  10.905  72.251  1.00  0.00     0.000 HD 
ENDBRANCH  12  13
ENDBRANCH  11  12
BRANCH  11  23
HETATM   23  C   UNL     1      -9.037  13.108  67.599  1.00  0.00    -0.201 C  
HETATM   24  N   UNL     1      -8.580  13.448  68.857  1.00  0.00    -0.363 N  
HETATM   25  H   UNL     1      -8.510  12.734  69.581  1.00  0.00     0.000 HD 
HETATM   26  O   UNL     1      -9.066  13.917  66.667  1.00  0.00    -0.247 OA 
BRANCH  24  27
HETATM   27  C   UNL     1      -8.199  14.810  69.153  1.00  0.00    -0.106 C  
BRANCH  27  28
HETATM   28  N   UNL     1      -7.091  15.173  68.307  1.00  0.00    -0.106 N  
HETATM   29  O   UNL     1      -5.504  13.982  69.493  1.00  0.00    -0.083 OA 
HETATM   30  C   UNL     1      -5.820  14.710  68.564  1.00  0.00    -0.098 C  
HETATM   31  H   UNL     1      -7.250  15.783  67.506  1.00  0.00     0.000 HD 
ENDBRANCH  27  28
BRANCH  27  32
HETATM   32  C   UNL     1      -9.314  15.873  69.257  1.00  0.00    -0.259 C  
BRANCH  32  33
HETATM   33  C   UNL     1      -9.439  17.198  68.523  1.00  0.00    -0.282 A  
HETATM   34  C   UNL     1      -9.404  19.253  67.480  1.00  0.00    -0.306 A  
HETATM   35  H   UNL     1     -11.384  19.077  66.752  1.00  0.00     0.000 HD 
HETATM   36  C   UNL     1      -8.964  20.501  67.012  1.00  0.00    -0.380 A  
HETATM   37  C   UNL     1     -10.652  17.450  67.887  1.00  0.00    -0.383 A  
HETATM   38  C   UNL     1      -7.687  20.912  67.374  1.00  0.00    -0.262 A  
HETATM   39  N   UNL     1     -10.615  18.665  67.280  1.00  0.00    -0.427 NA 
HETATM   40  C   UNL     1      -6.892  20.098  68.180  1.00  0.00    -0.326 A  
HETATM   41  C   UNL     1      -7.346  18.840  68.632  1.00  0.00    -0.335 A  
HETATM   42  C   UNL     1      -8.634  18.383  68.278  1.00  0.00    -0.321 A  
ENDBRANCH  32  33
ENDBRANCH  27  32
ENDBRANCH  24  27
ENDBRANCH  11  23
ENDBRANCH   7  11
TORSDOF 8
ENDMDL
MODEL      198
REMARK 921   NORMALIZED FREE ENERGY PREDICTED BY IDOCK:   -6.06 KCAL/MOL
REMARK 922        TOTAL FREE ENERGY PREDICTED BY IDOCK:  -11.04 KCAL/MOL
REMARK 923 INTER-LIGAND FREE ENERGY PREDICTED BY IDOCK:   -7.29 KCAL/MOL
REMARK 924 INTRA-LIGAND FREE ENERGY PREDICTED BY IDOCK:   -3.75 KCAL/MOL
REMARK 927      BINDING AFFINITY PREDICTED BY RF-SCORE:    0.00 PKD
ROOT
HETATM    1  C   UNL     1     -10.971  16.296  69.922  1.00  0.00    -0.365 C  
HETATM    2  C   UNL     1     -10.192  16.305  68.593  1.00  0.00    -0.254 C  
HETATM    3  C   UNL     1     -10.471  14.946  67.656  1.00  0.00    -0.249 C  
HETATM    4  N   UNL     1      -8.740  16.365  68.932  1.00  0.00    -0.249 NA 
HETATM    5  C   UNL     1     -10.546  17.665  67.930  1.00  0.00    -0.390 C  
HETATM    6  H2  UNL     1      -8.446  15.619  69.562  1.00  0.00     0.000 HD 
HETATM    7  N   UNL     1      -9.655  13.831  67.876  1.00  0.00    -0.215 N  
HETATM    8  H1  UNL     1      -8.224  16.371  68.052  1.00  0.00     0.000 HD 
HETATM    9  O   UNL     1     -11.386  14.912  66.834  1.00  0.00    -0.345 OA 
HETATM   10  H   UNL     1      -8.857  14.041  68.475  1.00  0.00     0.000 HD 
ENDROOT
BRANCH   7  11
HETATM   11  C   UNL     1      -9.686  12.332  67.413  1.00  0.00    -0.185 C  
BRANCH  11  12
HETATM   12  C   UNL     1     -10.953  11.365  67.541  1.00  0.00    -0.312 C  
BRANCH  12  13
HETATM   13  C   UNL     1     -10.764   9.836  67.989  1.00  0.00    -0.298 A  
HETATM   14  C   UNL     1     -10.521   8.728  67.200  1.00  0.00    -0.283 A  
HETATM   15  C   UNL     1     -11.037   9.012  71.804  1.00  0.00    -0.444 A  
HETATM   16  C   UNL     1     -11.169   7.633  71.670  1.00  0.00    -0.282 A  
HETATM   17  C   UNL     1     -11.056   7.045  70.411  1.00  0.00    -0.323 A  
HETATM   18  N   UNL     1     -10.597   7.571  67.975  1.00  0.00    -0.343 NA 
HETATM   19  C   UNL     1     -10.869   9.837  70.673  1.00  0.00    -0.396 A  
HETATM   20  C   UNL     1     -10.818   9.284  69.365  1.00  0.00    -0.184 A  
HETATM   21  C   UNL     1     -10.845   7.891  69.288  1.00  0.00    -0.064 A  
HETATM   22  H   UNL     1     -10.485   6.622  67.618  1.00  0.00     0.000 HD 
ENDBRANCH  12  13
ENDBRANCH  11  12
BRANCH  11  23
HETATM   23  C   UNL     1      -8.346  11.692  67.866  1.00  0.00    -0.143 C  
HETATM   24  N   UNL     1      -7.999  11.822  69.196  1.00  0.00    -0.351 N  
HETATM   25  H   UNL     1      -8.674  12.199  69.861  1.00  0.00     0.000 HD 
HETATM   26  O   UNL     1      -7.595  11.168  67.037  1.00  0.00    -0.121 OA 
BRANCH  24  27
HETATM   27  C   UNL     1      -6.686  11.426  69.652  1.00  0.00    -0.105 C  
BRANCH  27  28
HETATM   28  N   UNL     1      -6.078  12.541  70.330  1.00  0.00    -0.345 N  
HETATM   29  O   UNL     1      -6.477  14.074  68.647  1.00  0.00    -0.081 OA 
HETATM   30  C   UNL     1      -6.033  13.788  69.749  1.00  0.00    -0.122 C  
HETATM   31  H   UNL     1      -5.673  12.405  71.256  1.00  0.00     0.000 HD 
ENDBRANCH  27  28
BRANCH  27  32
HETATM   32  C   UNL     1      -6.543  10.068  70.373  1.00  0.00    -0.132 C  
BRANCH  32  33
HETATM   33  C   UNL     1      -6.892   8.678  69.867  1.00  0.00    -0.042 A  
HETATM   34  C   UNL     1      -7.460   6.511  69.329  1.00  0.00    -0.095 A  
HETATM   35  H   UNL     1      -7.180   6.801  67.251  1.00  0.00     0.000 HD 
HETATM   36  C   UNL     1      -7.862   5.171  69.448  1.00  0.00    -0.080 A  
HETATM   37  C   UNL     1      -6.823   8.476  68.491  1.00  0.00    -0.064 A  
HETATM   38  C   UNL     1      -8.085   4.677  70.728  1.00  0.00    -0.084 A  
HETATM   39  N   UNL     1      -7.158   7.195  68.192  1.00  0.00    -0.082 NA 
HETATM   40  C   UNL     1      -7.904   5.500  71.838  1.00  0.00    -0.109 A  
HETATM   41  C   UNL     1      -7.512   6.848  71.699  1.00  0.00    -0.085 A  
HETATM   42  C   UNL     1      -7.285   7.391  70.416  1.00  0.00    -0.068 A  
ENDBRANCH  32  33
ENDBRANCH  27  32
ENDBRANCH  24  27
ENDBRANCH  11  23
ENDBRANCH   7  11
TORSDOF 8
ENDMDL
MODEL      199
REMARK 921   NORMALIZED FREE ENERGY PREDICTED BY IDOCK:   -6.05 KCAL/MOL
REMARK 922        TOTAL FREE ENERGY PREDICTED BY IDOCK:  -11.02 KCAL/MOL
REMARK 923 INTER-LIGAND FREE ENERGY PREDICTED BY IDOCK:   -8.83 KCAL/MOL
REMARK 924 INTRA-LIGAND FREE ENERGY PREDICTED BY IDOCK:   -2.19 KCAL/MOL
REMARK 927      BINDING AFFINITY PREDICTED BY RF-SCORE:    0.00 PKD
ROOT
HETATM    1  C   UNL     1      -8.865   7.030  66.887  1.00  0.00    -0.127 C  
HETATM    2  C   UNL     1      -8.151   8.217  66.211  1.00  0.00    -0.107 C  
HETATM    3  C   UNL     1      -7.966   9.538  67.222  1.00  0.00    -0.106 C  
HETATM    4  N   UNL     1      -8.979   8.621  65.038  1.00  0.00    -0.414 NA 
HETATM    5  C   UNL     1      -6.836   7.619  65.637  1.00  0.00    -0.049 C  
HETATM    6  H2  UNL     1      -9.947   8.826  65.285  1.00  0.00     0.000 HD 
HETATM    7  N   UNL     1      -9.009  10.471  67.263  1.00  0.00    -0.139 N  
HETATM    8  H1  UNL     1      -8.506   9.407  64.590  1.00  0.00     0.000 HD 
HETATM    9  O   UNL     1      -6.971   9.665  67.935  1.00  0.00    -0.077 OA 
HETATM   10  H   UNL     1      -9.698  10.321  66.527  1.00  0.00     0.000 HD 
ENDROOT
BRANCH   7  11
HETATM   11  C   UNL     1      -9.360  11.694  68.182  1.00  0.00    -0.188 C  
BRANCH  11  12
HETATM   12  C   UNL     1     -10.812  11.994  68.782  1.00  0.00    -0.267 C  
BRANCH  12  13
HETATM   13  C   UNL     1     -11.548  10.906  69.703  1.00  0.00    -0.394 A  
HETATM   14  C   UNL     1     -12.903  10.702  69.886  1.00  0.00     0.102 A  
HETATM   15  C   UNL     1      -9.304   8.470  71.785  1.00  0.00    -0.323 A  
HETATM   16  C   UNL     1     -10.302   8.007  72.638  1.00  0.00    -0.398 A  
HETATM   17  C   UNL     1     -11.624   8.405  72.437  1.00  0.00    -0.450 A  
HETATM   18  N   UNL     1     -13.107   9.769  70.903  1.00  0.00    -0.562 NA 
HETATM   19  C   UNL     1      -9.595   9.400  70.765  1.00  0.00    -0.322 A  
HETATM   20  C   UNL     1     -10.917   9.881  70.571  1.00  0.00    -0.391 A  
HETATM   21  C   UNL     1     -11.902   9.309  71.377  1.00  0.00    -0.358 A  
HETATM   22  H   UNL     1     -14.020   9.472  71.245  1.00  0.00     0.000 HD 
ENDBRANCH  12  13
ENDBRANCH  11  12
BRANCH  11  23
HETATM   23  C   UNL     1      -8.652  12.934  67.574  1.00  0.00    -0.188 C  
HETATM   24  N   UNL     1      -9.151  14.177  67.910  1.00  0.00    -0.182 N  
HETATM   25  H   UNL     1      -9.861  14.258  68.638  1.00  0.00     0.000 HD 
HETATM   26  O   UNL     1      -7.737  12.790  66.757  1.00  0.00     0.049 OA 
BRANCH  24  27
HETATM   27  C   UNL     1      -8.673  15.363  67.238  1.00  0.00    -0.196 C  
BRANCH  27  28
HETATM   28  N   UNL     1      -7.247  15.454  67.421  1.00  0.00    -0.199 N  
HETATM   29  O   UNL     1      -7.348  16.119  69.633  1.00  0.00    -0.179 OA 
HETATM   30  C   UNL     1      -6.710  15.830  68.631  1.00  0.00    -0.117 C  
HETATM   31  H   UNL     1      -6.627  15.237  66.642  1.00  0.00     0.000 HD 
ENDBRANCH  27  28
BRANCH  27  32
HETATM   32  C   UNL     1      -9.163  15.633  65.799  1.00  0.00    -0.247 C  
BRANCH  32  33
HETATM   33  C   UNL     1     -10.365  15.050  65.075  1.00  0.00    -0.390 A  
HETATM   34  C   UNL     1     -12.073  13.955  63.982  1.00  0.00    -0.396 A  
HETATM   35  H   UNL     1     -13.279  15.688  63.830  1.00  0.00     0.000 HD 
HETATM   36  C   UNL     1     -12.831  12.942  63.374  1.00  0.00     0.091 A  
HETATM   37  C   UNL     1     -11.411  15.924  64.792  1.00  0.00    -0.234 A  
HETATM   38  C   UNL     1     -12.265  11.675  63.291  1.00  0.00    -0.265 A  
HETATM   39  N   UNL     1     -12.407  15.264  64.147  1.00  0.00    -0.614 NA 
HETATM   40  C   UNL     1     -10.985  11.445  63.795  1.00  0.00    -0.448 A  
HETATM   41  C   UNL     1     -10.242  12.473  64.414  1.00  0.00    -0.346 A  
HETATM   42  C   UNL     1     -10.786  13.771  64.527  1.00  0.00    -0.399 A  
ENDBRANCH  32  33
ENDBRANCH  27  32
ENDBRANCH  24  27
ENDBRANCH  11  23
ENDBRANCH   7  11
TORSDOF 8
ENDMDL
MODEL      200
REMARK 921   NORMALIZED FREE ENERGY PREDICTED BY IDOCK:   -6.04 KCAL/MOL
REMARK 922        TOTAL FREE ENERGY PREDICTED BY IDOCK:  -11.01 KCAL/MOL
REMARK 923 INTER-LIGAND FREE ENERGY PREDICTED BY IDOCK:   -9.58 KCAL/MOL
REMARK 924 INTRA-LIGAND FREE ENERGY PREDICTED BY IDOCK:   -1.43 KCAL/MOL
REMARK 927      BINDING AFFINITY PREDICTED BY RF-SCORE:    0.00 PKD
ROOT
HETATM    1  C   UNL     1      -8.319   8.034  64.786  1.00  0.00    -0.086 C  
HETATM    2  C   UNL     1      -8.601   9.548  64.829  1.00  0.00    -0.176 C  
HETATM    3  C   UNL     1      -8.851  10.128  66.380  1.00  0.00    -0.143 C  
HETATM    4  N   UNL     1      -9.830   9.793  64.020  1.00  0.00    -0.434 NA 
HETATM    5  C   UNL     1      -7.424  10.197  64.050  1.00  0.00    -0.117 C  
HETATM    6  H2  UNL     1     -10.626   9.230  64.323  1.00  0.00     0.000 HD 
HETATM    7  N   UNL     1     -10.158  10.091  66.880  1.00  0.00    -0.218 N  
HETATM    8  H1  UNL     1     -10.017  10.796  64.049  1.00  0.00     0.000 HD 
HETATM    9  O   UNL     1      -7.918  10.533  67.071  1.00  0.00    -0.114 OA 
HETATM   10  H   UNL     1     -10.847   9.870  66.162  1.00  0.00     0.000 HD 
ENDROOT
BRANCH   7  11
HETATM   11  C   UNL     1     -10.806  10.312  68.292  1.00  0.00    -0.255 C  
BRANCH  11  12
HETATM   12  C   UNL     1     -10.854  11.712  69.063  1.00  0.00    -0.247 C  
BRANCH  12  13
HETATM   13  C   UNL     1     -11.789  11.895  70.353  1.00  0.00    -0.329 A  
HETATM   14  C   UNL     1     -12.258  10.931  71.225  1.00  0.00    -0.290 A  
HETATM   15  C   UNL     1     -12.995  15.514  71.227  1.00  0.00    -0.565 A  
HETATM   16  C   UNL     1     -13.998  15.147  72.120  1.00  0.00    -0.635 A  
HETATM   17  C   UNL     1     -14.158  13.806  72.469  1.00  0.00    -0.495 A  
HETATM   18  N   UNL     1     -13.180  11.498  72.105  1.00  0.00    -0.559 NA 
HETATM   19  C   UNL     1     -12.185  14.539  70.606  1.00  0.00    -0.401 A  
HETATM   20  C   UNL     1     -12.362  13.158  70.883  1.00  0.00    -0.393 A  
HETATM   21  C   UNL     1     -13.304  12.845  71.864  1.00  0.00    -0.435 A  
HETATM   22  H   UNL     1     -13.689  10.986  72.825  1.00  0.00     0.000 HD 
ENDBRANCH  12  13
ENDBRANCH  11  12
BRANCH  11  23
HETATM   23  C   UNL     1     -10.382   9.110  69.177  1.00  0.00    -0.212 C  
HETATM   24  N   UNL     1     -11.164   7.972  69.119  1.00  0.00    -0.372 N  
HETATM   25  H   UNL     1     -11.896   7.898  68.413  1.00  0.00     0.000 HD 
HETATM   26  O   UNL     1      -9.433   9.217  69.959  1.00  0.00    -0.181 OA 
BRANCH  24  27
HETATM   27  C   UNL     1     -10.949   6.889  70.050  1.00  0.00    -0.279 C  
BRANCH  27  28
HETATM   28  N   UNL     1     -12.130   6.738  70.861  1.00  0.00    -0.385 N  
HETATM   29  O   UNL     1     -11.291   7.871  72.692  1.00  0.00    -0.361 OA 
HETATM   30  C   UNL     1     -12.189   7.258  72.134  1.00  0.00    -0.223 C  
HETATM   31  H   UNL     1     -12.935   6.237  70.486  1.00  0.00     0.000 HD 
ENDBRANCH  27  28
BRANCH  27  32
HETATM   32  C   UNL     1     -10.357   5.569  69.510  1.00  0.00    -0.357 C  
BRANCH  32  33
HETATM   33  C   UNL     1      -9.722   4.423  70.281  1.00  0.00    -0.281 A  
HETATM   34  C   UNL     1      -8.919   2.731  71.623  1.00  0.00    -0.084 A  
HETATM   35  H   UNL     1      -7.428   2.147  70.239  1.00  0.00     0.000 HD 
HETATM   36  C   UNL     1      -8.763   1.849  72.704  1.00  0.00    -0.067 A  
HETATM   37  C   UNL     1      -8.664   3.763  69.663  1.00  0.00    -0.078 A  
HETATM   38  C   UNL     1      -9.598   2.022  73.802  1.00  0.00    -0.103 A  
HETATM   39  N   UNL     1      -8.201   2.771  70.467  1.00  0.00    -0.045 NA 
HETATM   40  C   UNL     1     -10.545   3.045  73.808  1.00  0.00    -0.264 A  
HETATM   41  C   UNL     1     -10.696   3.914  72.706  1.00  0.00    -0.165 A  
HETATM   42  C   UNL     1      -9.874   3.766  71.568  1.00  0.00    -0.235 A  
ENDBRANCH  32  33
ENDBRANCH  27  32
ENDBRANCH  24  27
ENDBRANCH  11  23
ENDBRANCH   7  11
TORSDOF 8
ENDMDL
MODEL      201
REMARK 921   NORMALIZED FREE ENERGY PREDICTED BY IDOCK:   -6.04 KCAL/MOL
REMARK 922        TOTAL FREE ENERGY PREDICTED BY IDOCK:  -11.01 KCAL/MOL
REMARK 923 INTER-LIGAND FREE ENERGY PREDICTED BY IDOCK:   -8.80 KCAL/MOL
REMARK 924 INTRA-LIGAND FREE ENERGY PREDICTED BY IDOCK:   -2.21 KCAL/MOL
REMARK 927      BINDING AFFINITY PREDICTED BY RF-SCORE:    0.00 PKD
ROOT
HETATM    1  C   UNL     1     -11.487   8.533  72.390  1.00  0.00    -0.419 C  
HETATM    2  C   UNL     1     -12.265   8.192  71.105  1.00  0.00    -0.239 C  
HETATM    3  C   UNL     1     -11.272   7.920  69.785  1.00  0.00     0.011 C  
HETATM    4  N   UNL     1     -13.155   9.351  70.806  1.00  0.00    -0.545 NA 
HETATM    5  C   UNL     1     -13.196   7.012  71.501  1.00  0.00    -0.382 C  
HETATM    6  H2  UNL     1     -12.651  10.236  70.744  1.00  0.00     0.000 HD 
HETATM    7  N   UNL     1     -10.908   9.028  69.011  1.00  0.00    -0.410 N  
HETATM    8  H1  UNL     1     -13.671   9.125  69.954  1.00  0.00     0.000 HD 
HETATM    9  O   UNL     1     -10.841   6.797  69.527  1.00  0.00    -0.238 OA 
HETATM   10  H   UNL     1     -11.443   9.864  69.247  1.00  0.00     0.000 HD 
ENDROOT
BRANCH   7  11
HETATM   11  C   UNL     1      -9.867   9.280  67.864  1.00  0.00    -0.167 C  
BRANCH  11  12
HETATM   12  C   UNL     1     -10.190   9.171  66.302  1.00  0.00    -0.257 C  
BRANCH  12  13
HETATM   13  C   UNL     1     -10.169  10.481  65.377  1.00  0.00    -0.340 A  
HETATM   14  C   UNL     1      -9.539  10.671  64.161  1.00  0.00    -0.300 A  
HETATM   15  C   UNL     1     -12.100  13.637  66.648  1.00  0.00    -0.459 A  
HETATM   16  C   UNL     1     -11.526  14.552  65.770  1.00  0.00    -0.342 A  
HETATM   17  C   UNL     1     -10.659  14.105  64.774  1.00  0.00    -0.439 A  
HETATM   18  N   UNL     1      -9.633  12.011  63.785  1.00  0.00    -0.561 NA 
HETATM   19  C   UNL     1     -11.757  12.269  66.597  1.00  0.00    -0.417 A  
HETATM   20  C   UNL     1     -10.825  11.785  65.641  1.00  0.00    -0.342 A  
HETATM   21  C   UNL     1     -10.358  12.718  64.713  1.00  0.00    -0.322 A  
HETATM   22  H   UNL     1      -9.222  12.409  62.941  1.00  0.00     0.000 HD 
ENDBRANCH  12  13
ENDBRANCH  11  12
BRANCH  11  23
HETATM   23  C   UNL     1      -8.546   8.589  68.293  1.00  0.00    -0.139 C  
HETATM   24  N   UNL     1      -8.171   8.704  69.618  1.00  0.00    -0.112 N  
HETATM   25  H   UNL     1      -8.819   9.106  70.294  1.00  0.00     0.000 HD 
HETATM   26  O   UNL     1      -7.830   8.038  67.451  1.00  0.00    -0.113 OA 
BRANCH  24  27
HETATM   27  C   UNL     1      -6.867   8.257  70.050  1.00  0.00    -0.043 C  
BRANCH  27  28
HETATM   28  N   UNL     1      -5.870   9.125  69.480  1.00  0.00    -0.034 N  
HETATM   29  O   UNL     1      -6.646  11.054  70.489  1.00  0.00    -0.299 OA 
HETATM   30  C   UNL     1      -5.854  10.472  69.764  1.00  0.00    -0.052 C  
HETATM   31  H   UNL     1      -5.163   8.736  68.856  1.00  0.00     0.000 HD 
ENDBRANCH  27  28
BRANCH  27  32
HETATM   32  C   UNL     1      -6.667   7.929  71.546  1.00  0.00    -0.047 C  
BRANCH  32  33
HETATM   33  C   UNL     1      -7.683   7.419  72.554  1.00  0.00    -0.102 A  
HETATM   34  C   UNL     1      -9.274   6.472  73.926  1.00  0.00    -0.155 A  
HETATM   35  H   UNL     1      -9.003   7.899  75.466  1.00  0.00     0.000 HD 
HETATM   36  C   UNL     1     -10.266   5.608  74.416  1.00  0.00    -0.295 A  
HETATM   37  C   UNL     1      -7.794   8.130  73.747  1.00  0.00    -0.191 A  
HETATM   38  C   UNL     1     -10.685   4.573  73.587  1.00  0.00    -0.344 A  
HETATM   39  N   UNL     1      -8.736   7.560  74.541  1.00  0.00    -0.175 NA 
HETATM   40  C   UNL     1     -10.130   4.423  72.318  1.00  0.00    -0.253 A  
HETATM   41  C   UNL     1      -9.124   5.295  71.847  1.00  0.00    -0.153 A  
HETATM   42  C   UNL     1      -8.664   6.352  72.661  1.00  0.00    -0.126 A  
ENDBRANCH  32  33
ENDBRANCH  27  32
ENDBRANCH  24  27
ENDBRANCH  11  23
ENDBRANCH   7  11
TORSDOF 8
ENDMDL
MODEL      202
REMARK 921   NORMALIZED FREE ENERGY PREDICTED BY IDOCK:   -6.03 KCAL/MOL
REMARK 922        TOTAL FREE ENERGY PREDICTED BY IDOCK:  -11.00 KCAL/MOL
REMARK 923 INTER-LIGAND FREE ENERGY PREDICTED BY IDOCK:   -9.21 KCAL/MOL
REMARK 924 INTRA-LIGAND FREE ENERGY PREDICTED BY IDOCK:   -1.78 KCAL/MOL
REMARK 927      BINDING AFFINITY PREDICTED BY RF-SCORE:    0.00 PKD
ROOT
HETATM    1  C   UNL     1     -11.408   7.887  70.556  1.00  0.00    -0.242 C  
HETATM    2  C   UNL     1     -11.215   9.400  70.778  1.00  0.00    -0.302 C  
HETATM    3  C   UNL     1     -11.185  10.277  69.353  1.00  0.00    -0.239 C  
HETATM    4  N   UNL     1      -9.913   9.582  71.483  1.00  0.00    -0.183 NA 
HETATM    5  C   UNL     1     -12.324   9.799  71.791  1.00  0.00    -0.470 C  
HETATM    6  H2  UNL     1      -9.130   9.147  70.993  1.00  0.00     0.000 HD 
HETATM    7  N   UNL     1      -9.947  10.434  68.718  1.00  0.00    -0.179 N  
HETATM    8  H1  UNL     1      -9.786  10.583  71.630  1.00  0.00     0.000 HD 
HETATM    9  O   UNL     1     -12.215  10.731  68.857  1.00  0.00    -0.447 OA 
HETATM   10  H   UNL     1      -9.166  10.135  69.301  1.00  0.00     0.000 HD 
ENDROOT
BRANCH   7  11
HETATM   11  C   UNL     1      -9.485  10.964  67.315  1.00  0.00    -0.159 C  
BRANCH  11  12
HETATM   12  C   UNL     1      -8.247  10.385  66.485  1.00  0.00    -0.131 C  
BRANCH  12  13
HETATM   13  C   UNL     1      -8.294   8.894  65.894  1.00  0.00    -0.132 A  
HETATM   14  C   UNL     1      -8.117   8.476  64.589  1.00  0.00    -0.153 A  
HETATM   15  C   UNL     1      -9.034   5.972  68.388  1.00  0.00    -0.114 A  
HETATM   16  C   UNL     1      -9.324   5.003  67.431  1.00  0.00    -0.138 A  
HETATM   17  C   UNL     1      -9.165   5.296  66.078  1.00  0.00    -0.163 A  
HETATM   18  N   UNL     1      -8.411   7.116  64.485  1.00  0.00    -0.344 NA 
HETATM   19  C   UNL     1      -8.656   7.276  68.006  1.00  0.00    -0.125 A  
HETATM   20  C   UNL     1      -8.549   7.635  66.636  1.00  0.00    -0.134 A  
HETATM   21  C   UNL     1      -8.743   6.604  65.716  1.00  0.00    -0.116 A  
HETATM   22  H   UNL     1      -8.385   6.580  63.618  1.00  0.00     0.000 HD 
ENDBRANCH  12  13
ENDBRANCH  11  12
BRANCH  11  23
HETATM   23  C   UNL     1      -9.545  12.514  67.376  1.00  0.00    -0.192 C  
HETATM   24  N   UNL     1      -9.257  13.112  68.587  1.00  0.00    -0.391 N  
HETATM   25  H   UNL     1      -8.885  12.551  69.353  1.00  0.00     0.000 HD 
HETATM   26  O   UNL     1      -9.921  13.161  66.394  1.00  0.00    -0.269 OA 
BRANCH  24  27
HETATM   27  C   UNL     1      -9.478  14.527  68.774  1.00  0.00    -0.183 C  
BRANCH  27  28
HETATM   28  N   UNL     1     -10.354  14.711  69.902  1.00  0.00    -0.446 N  
HETATM   29  O   UNL     1     -12.273  14.030  68.810  1.00  0.00    -0.337 OA 
HETATM   30  C   UNL     1     -11.700  14.436  69.809  1.00  0.00    -0.305 C  
HETATM   31  H   UNL     1      -9.972  15.052  70.784  1.00  0.00     0.000 HD 
ENDBRANCH  27  28
BRANCH  27  32
HETATM   32  C   UNL     1      -8.254  15.468  68.741  1.00  0.00    -0.177 C  
BRANCH  32  33
HETATM   33  C   UNL     1      -8.209  16.965  68.483  1.00  0.00    -0.249 A  
HETATM   34  C   UNL     1      -8.344  19.207  67.968  1.00  0.00    -0.305 A  
HETATM   35  H   UNL     1      -6.565  19.699  69.005  1.00  0.00     0.000 HD 
HETATM   36  C   UNL     1      -8.802  20.430  67.452  1.00  0.00    -0.430 A  
HETATM   37  C   UNL     1      -7.138  17.664  69.035  1.00  0.00    -0.227 A  
HETATM   38  C   UNL     1      -9.955  20.410  66.677  1.00  0.00    -0.492 A  
HETATM   39  N   UNL     1      -7.232  18.982  68.720  1.00  0.00    -0.312 NA 
HETATM   40  C   UNL     1     -10.613  19.206  66.430  1.00  0.00    -0.522 A  
HETATM   41  C   UNL     1     -10.145  17.988  66.968  1.00  0.00    -0.348 A  
HETATM   42  C   UNL     1      -8.982  17.967  67.768  1.00  0.00    -0.255 A  
ENDBRANCH  32  33
ENDBRANCH  27  32
ENDBRANCH  24  27
ENDBRANCH  11  23
ENDBRANCH   7  11
TORSDOF 8
ENDMDL
MODEL      203
REMARK 921   NORMALIZED FREE ENERGY PREDICTED BY IDOCK:   -6.03 KCAL/MOL
REMARK 922        TOTAL FREE ENERGY PREDICTED BY IDOCK:  -10.99 KCAL/MOL
REMARK 923 INTER-LIGAND FREE ENERGY PREDICTED BY IDOCK:   -9.29 KCAL/MOL
REMARK 924 INTRA-LIGAND FREE ENERGY PREDICTED BY IDOCK:   -1.70 KCAL/MOL
REMARK 927      BINDING AFFINITY PREDICTED BY RF-SCORE:    0.00 PKD
ROOT
HETATM    1  C   UNL     1      -7.082  10.657  64.140  1.00  0.00     0.249 C  
HETATM    2  C   UNL     1      -8.280   9.698  64.285  1.00  0.00    -0.156 C  
HETATM    3  C   UNL     1      -9.333  10.140  65.509  1.00  0.00    -0.207 C  
HETATM    4  N   UNL     1      -7.730   8.345  64.589  1.00  0.00    -0.105 NA 
HETATM    5  C   UNL     1      -8.899   9.613  62.862  1.00  0.00    -0.252 C  
HETATM    6  H2  UNL     1      -7.113   8.339  65.401  1.00  0.00     0.000 HD 
HETATM    7  N   UNL     1      -9.068   9.655  66.795  1.00  0.00    -0.144 N  
HETATM    8  H1  UNL     1      -8.524   7.711  64.684  1.00  0.00     0.000 HD 
HETATM    9  O   UNL     1     -10.280  10.896  65.298  1.00  0.00    -0.264 OA 
HETATM   10  H   UNL     1      -8.347   8.934  66.802  1.00  0.00     0.000 HD 
ENDROOT
BRANCH   7  11
HETATM   11  C   UNL     1      -9.626   9.966  68.229  1.00  0.00    -0.140 C  
BRANCH  11  12
HETATM   12  C   UNL     1     -10.847   9.196  68.917  1.00  0.00    -0.099 C  
BRANCH  12  13
HETATM   13  C   UNL     1     -10.688   7.666  69.370  1.00  0.00    -0.188 A  
HETATM   14  C   UNL     1     -10.804   7.122  70.635  1.00  0.00    -0.245 A  
HETATM   15  C   UNL     1      -9.823   5.032  66.609  1.00  0.00    -0.215 A  
HETATM   16  C   UNL     1      -9.446   4.004  67.468  1.00  0.00    -0.231 A  
HETATM   17  C   UNL     1      -9.589   4.165  68.846  1.00  0.00    -0.222 A  
HETATM   18  N   UNL     1     -10.419   5.782  70.611  1.00  0.00    -0.246 NA 
HETATM   19  C   UNL     1     -10.276   6.269  67.114  1.00  0.00    -0.247 A  
HETATM   20  C   UNL     1     -10.371   6.497  68.512  1.00  0.00    -0.219 A  
HETATM   21  C   UNL     1     -10.086   5.404  69.332  1.00  0.00    -0.234 A  
HETATM   22  H   UNL     1     -10.388   5.170  71.426  1.00  0.00     0.000 HD 
ENDBRANCH  12  13
ENDBRANCH  11  12
BRANCH  11  23
HETATM   23  C   UNL     1      -9.686  11.511  68.365  1.00  0.00    -0.202 C  
HETATM   24  N   UNL     1     -10.895  12.124  68.099  1.00  0.00    -0.211 N  
HETATM   25  H   UNL     1     -11.731  11.556  67.961  1.00  0.00     0.000 HD 
HETATM   26  O   UNL     1      -8.663  12.154  68.617  1.00  0.00    -0.111 OA 
BRANCH  24  27
HETATM   27  C   UNL     1     -10.982  13.563  68.015  1.00  0.00    -0.251 C  
BRANCH  27  28
HETATM   28  N   UNL     1     -10.602  14.123  69.287  1.00  0.00    -0.408 N  
HETATM   29  O   UNL     1     -12.761  14.440  70.048  1.00  0.00    -0.301 OA 
HETATM   30  C   UNL     1     -11.551  14.514  70.203  1.00  0.00    -0.276 C  
HETATM   31  H   UNL     1      -9.613  14.231  69.511  1.00  0.00     0.000 HD 
ENDBRANCH  27  28
BRANCH  27  32
HETATM   32  C   UNL     1     -10.363  14.261  66.785  1.00  0.00    -0.274 C  
BRANCH  32  33
HETATM   33  C   UNL     1     -10.474  15.716  66.358  1.00  0.00    -0.309 A  
HETATM   34  C   UNL     1     -10.571  17.978  65.932  1.00  0.00    -0.219 A  
HETATM   35  H   UNL     1     -11.213  17.719  63.931  1.00  0.00     0.000 HD 
HETATM   36  C   UNL     1     -10.486  19.369  66.099  1.00  0.00    -0.600 A  
HETATM   37  C   UNL     1     -10.884  15.955  65.049  1.00  0.00    -0.426 A  
HETATM   38  C   UNL     1     -10.118  19.847  67.351  1.00  0.00    -0.567 A  
HETATM   39  N   UNL     1     -10.938  17.291  64.815  1.00  0.00    -0.911 NA 
HETATM   40  C   UNL     1      -9.854  18.956  68.390  1.00  0.00    -0.435 A  
HETATM   41  C   UNL     1      -9.932  17.560  68.201  1.00  0.00    -0.321 A  
HETATM   42  C   UNL     1     -10.293  17.035  66.941  1.00  0.00    -0.303 A  
ENDBRANCH  32  33
ENDBRANCH  27  32
ENDBRANCH  24  27
ENDBRANCH  11  23
ENDBRANCH   7  11
TORSDOF 8
ENDMDL
MODEL      204
REMARK 921   NORMALIZED FREE ENERGY PREDICTED BY IDOCK:   -6.02 KCAL/MOL
REMARK 922        TOTAL FREE ENERGY PREDICTED BY IDOCK:  -10.97 KCAL/MOL
REMARK 923 INTER-LIGAND FREE ENERGY PREDICTED BY IDOCK:   -9.32 KCAL/MOL
REMARK 924 INTRA-LIGAND FREE ENERGY PREDICTED BY IDOCK:   -1.66 KCAL/MOL
REMARK 927      BINDING AFFINITY PREDICTED BY RF-SCORE:    0.00 PKD
ROOT
HETATM    1  C   UNL     1     -11.195  15.415  68.111  1.00  0.00    -0.326 C  
HETATM    2  C   UNL     1      -9.960  15.357  69.030  1.00  0.00    -0.229 C  
HETATM    3  C   UNL     1      -8.755  14.348  68.452  1.00  0.00    -0.180 C  
HETATM    4  N   UNL     1     -10.418  14.848  70.355  1.00  0.00    -0.498 NA 
HETATM    5  C   UNL     1      -9.550  16.840  69.245  1.00  0.00    -0.112 C  
HETATM    6  H2  UNL     1     -10.911  13.957  70.292  1.00  0.00     0.000 HD 
HETATM    7  N   UNL     1      -8.816  12.997  68.812  1.00  0.00    -0.379 N  
HETATM    8  H1  UNL     1      -9.600  14.810  70.964  1.00  0.00     0.000 HD 
HETATM    9  O   UNL     1      -7.872  14.767  67.705  1.00  0.00    -0.144 OA 
HETATM   10  H   UNL     1      -9.506  12.816  69.541  1.00  0.00     0.000 HD 
ENDROOT
BRANCH   7  11
HETATM   11  C   UNL     1      -8.067  11.697  68.352  1.00  0.00    -0.153 C  
BRANCH  11  12
HETATM   12  C   UNL     1      -7.566  11.415  66.860  1.00  0.00    -0.151 C  
BRANCH  12  13
HETATM   13  C   UNL     1      -8.611  10.986  65.722  1.00  0.00    -0.151 A  
HETATM   14  C   UNL     1      -8.540   9.926  64.837  1.00  0.00    -0.169 A  
HETATM   15  C   UNL     1     -11.819  13.182  65.278  1.00  0.00    -0.400 A  
HETATM   16  C   UNL     1     -12.195  12.683  64.034  1.00  0.00    -0.544 A  
HETATM   17  C   UNL     1     -11.486  11.623  63.470  1.00  0.00    -0.427 A  
HETATM   18  N   UNL     1      -9.573  10.020  63.904  1.00  0.00    -0.383 NA 
HETATM   19  C   UNL     1     -10.679  12.685  65.944  1.00  0.00    -0.293 A  
HETATM   20  C   UNL     1      -9.890  11.652  65.371  1.00  0.00    -0.268 A  
HETATM   21  C   UNL     1     -10.366  11.109  64.177  1.00  0.00    -0.361 A  
HETATM   22  H   UNL     1      -9.718   9.373  63.129  1.00  0.00     0.000 HD 
ENDBRANCH  12  13
ENDBRANCH  11  12
BRANCH  11  23
HETATM   23  C   UNL     1      -8.792  10.497  69.020  1.00  0.00    -0.169 C  
HETATM   24  N   UNL     1     -10.082  10.706  69.468  1.00  0.00    -0.385 N  
HETATM   25  H   UNL     1     -10.566  11.573  69.232  1.00  0.00     0.000 HD 
HETATM   26  O   UNL     1      -8.192   9.436  69.211  1.00  0.00    -0.101 OA 
BRANCH  24  27
HETATM   27  C   UNL     1     -10.749   9.706  70.268  1.00  0.00    -0.281 C  
BRANCH  27  28
HETATM   28  N   UNL     1     -11.785  10.346  71.038  1.00  0.00    -0.353 N  
HETATM   29  O   UNL     1     -11.918  12.233  69.709  1.00  0.00    -0.314 OA 
HETATM   30  C   UNL     1     -12.283  11.576  70.674  1.00  0.00    -0.378 C  
HETATM   31  H   UNL     1     -12.154   9.880  71.866  1.00  0.00     0.000 HD 
ENDBRANCH  27  28
BRANCH  27  32
HETATM   32  C   UNL     1     -11.167   8.385  69.586  1.00  0.00     0.089 C  
BRANCH  32  33
HETATM   33  C   UNL     1     -10.753   6.963  69.927  1.00  0.00    -0.278 A  
HETATM   34  C   UNL     1     -10.190   4.856  70.670  1.00  0.00    -0.211 A  
HETATM   35  H   UNL     1      -9.554   4.197  68.762  1.00  0.00     0.000 HD 
HETATM   36  C   UNL     1      -9.999   3.747  71.509  1.00  0.00    -0.195 A  
HETATM   37  C   UNL     1     -10.265   6.185  68.881  1.00  0.00    -0.188 A  
HETATM   38  C   UNL     1     -10.301   3.899  72.857  1.00  0.00    -0.241 A  
HETATM   39  N   UNL     1      -9.936   4.948  69.336  1.00  0.00    -0.211 NA 
HETATM   40  C   UNL     1     -10.770   5.121  73.337  1.00  0.00    -0.331 A  
HETATM   41  C   UNL     1     -10.969   6.222  72.476  1.00  0.00    -0.286 A  
HETATM   42  C   UNL     1     -10.683   6.105  71.098  1.00  0.00    -0.312 A  
ENDBRANCH  32  33
ENDBRANCH  27  32
ENDBRANCH  24  27
ENDBRANCH  11  23
ENDBRANCH   7  11
TORSDOF 8
ENDMDL
MODEL      205
REMARK 921   NORMALIZED FREE ENERGY PREDICTED BY IDOCK:   -6.02 KCAL/MOL
REMARK 922        TOTAL FREE ENERGY PREDICTED BY IDOCK:  -10.97 KCAL/MOL
REMARK 923 INTER-LIGAND FREE ENERGY PREDICTED BY IDOCK:   -9.37 KCAL/MOL
REMARK 924 INTRA-LIGAND FREE ENERGY PREDICTED BY IDOCK:   -1.61 KCAL/MOL
REMARK 927      BINDING AFFINITY PREDICTED BY RF-SCORE:    0.00 PKD
ROOT
HETATM    1  C   UNL     1      -9.703   3.480  71.263  1.00  0.00    -0.237 C  
HETATM    2  C   UNL     1      -9.910   4.802  72.027  1.00  0.00    -0.176 C  
HETATM    3  C   UNL     1     -10.494   6.037  71.061  1.00  0.00    -0.229 C  
HETATM    4  N   UNL     1      -8.583   5.207  72.577  1.00  0.00    -0.120 NA 
HETATM    5  C   UNL     1     -10.795   4.424  73.247  1.00  0.00    -0.336 C  
HETATM    6  H2  UNL     1      -7.857   5.268  71.862  1.00  0.00     0.000 HD 
HETATM    7  N   UNL     1      -9.557   6.828  70.386  1.00  0.00    -0.169 N  
HETATM    8  H1  UNL     1      -8.720   6.082  73.083  1.00  0.00     0.000 HD 
HETATM    9  O   UNL     1     -11.702   6.221  70.915  1.00  0.00    -0.333 OA 
HETATM   10  H   UNL     1      -8.602   6.662  70.704  1.00  0.00     0.000 HD 
ENDROOT
BRANCH   7  11
HETATM   11  C   UNL     1      -9.637   7.909  69.251  1.00  0.00    -0.157 C  
BRANCH  11  12
HETATM   12  C   UNL     1      -8.434   8.288  68.268  1.00  0.00    -0.136 C  
BRANCH  12  13
HETATM   13  C   UNL     1      -7.909   7.229  67.184  1.00  0.00    -0.110 A  
HETATM   14  C   UNL     1      -6.644   7.099  66.644  1.00  0.00    -0.055 A  
HETATM   15  C   UNL     1     -10.481   4.632  65.787  1.00  0.00    -0.290 A  
HETATM   16  C   UNL     1      -9.723   4.213  64.698  1.00  0.00    -0.177 A  
HETATM   17  C   UNL     1      -8.422   4.688  64.535  1.00  0.00    -0.136 A  
HETATM   18  N   UNL     1      -6.665   6.162  65.611  1.00  0.00    -0.047 NA 
HETATM   19  C   UNL     1      -9.982   5.595  66.690  1.00  0.00    -0.211 A  
HETATM   20  C   UNL     1      -8.688   6.155  66.520  1.00  0.00    -0.133 A  
HETATM   21  C   UNL     1      -7.923   5.626  65.479  1.00  0.00    -0.113 A  
HETATM   22  H   UNL     1      -5.862   5.911  65.036  1.00  0.00     0.000 HD 
ENDBRANCH  12  13
ENDBRANCH  11  12
BRANCH  11  23
HETATM   23  C   UNL     1     -10.386   9.132  69.845  1.00  0.00    -0.212 C  
HETATM   24  N   UNL     1     -11.764   9.142  69.744  1.00  0.00    -0.365 N  
HETATM   25  H   UNL     1     -12.253   8.308  69.420  1.00  0.00     0.000 HD 
HETATM   26  O   UNL     1      -9.752  10.086  70.306  1.00  0.00    -0.212 OA 
BRANCH  24  27
HETATM   27  C   UNL     1     -12.514  10.325  70.096  1.00  0.00    -0.110 C  
BRANCH  27  28
HETATM   28  N   UNL     1     -12.519  10.459  71.530  1.00  0.00    -0.398 N  
HETATM   29  O   UNL     1     -14.046   8.766  71.910  1.00  0.00    -0.412 OA 
HETATM   30  C   UNL     1     -13.301   9.645  72.317  1.00  0.00    -0.408 C  
HETATM   31  H   UNL     1     -11.932  11.169  71.969  1.00  0.00     0.000 HD 
ENDBRANCH  27  28
BRANCH  27  32
HETATM   32  C   UNL     1     -12.226  11.629  69.321  1.00  0.00    -0.228 C  
BRANCH  32  33
HETATM   33  C   UNL     1     -11.916  13.013  69.866  1.00  0.00    -0.381 A  
HETATM   34  C   UNL     1     -11.602  15.064  70.867  1.00  0.00    -0.319 A  
HETATM   35  H   UNL     1     -10.182  15.707  69.435  1.00  0.00     0.000 HD 
HETATM   36  C   UNL     1     -11.710  16.139  71.765  1.00  0.00    -0.568 A  
HETATM   37  C   UNL     1     -10.982  13.769  69.162  1.00  0.00    -0.208 A  
HETATM   38  C   UNL     1     -12.617  16.016  72.811  1.00  0.00    -0.565 A  
HETATM   39  N   UNL     1     -10.811  14.975  69.763  1.00  0.00    -0.264 NA 
HETATM   40  C   UNL     1     -13.385  14.859  72.940  1.00  0.00    -0.576 A  
HETATM   41  C   UNL     1     -13.254  13.784  72.035  1.00  0.00    -0.520 A  
HETATM   42  C   UNL     1     -12.337  13.866  70.965  1.00  0.00    -0.453 A  
ENDBRANCH  32  33
ENDBRANCH  27  32
ENDBRANCH  24  27
ENDBRANCH  11  23
ENDBRANCH   7  11
TORSDOF 8
ENDMDL
MODEL      206
REMARK 921   NORMALIZED FREE ENERGY PREDICTED BY IDOCK:   -6.01 KCAL/MOL
REMARK 922        TOTAL FREE ENERGY PREDICTED BY IDOCK:  -10.97 KCAL/MOL
REMARK 923 INTER-LIGAND FREE ENERGY PREDICTED BY IDOCK:   -9.08 KCAL/MOL
REMARK 924 INTRA-LIGAND FREE ENERGY PREDICTED BY IDOCK:   -1.89 KCAL/MOL
REMARK 927      BINDING AFFINITY PREDICTED BY RF-SCORE:    0.00 PKD
ROOT
HETATM    1  C   UNL     1      -9.052   6.952  71.044  1.00  0.00    -0.155 C  
HETATM    2  C   UNL     1      -9.433   8.316  71.651  1.00  0.00    -0.195 C  
HETATM    3  C   UNL     1     -10.368   9.255  70.627  1.00  0.00    -0.263 C  
HETATM    4  N   UNL     1      -8.163   9.042  71.942  1.00  0.00    -0.346 NA 
HETATM    5  C   UNL     1     -10.073   7.978  73.026  1.00  0.00    -0.351 C  
HETATM    6  H2  UNL     1      -7.554   9.123  71.127  1.00  0.00     0.000 HD 
HETATM    7  N   UNL     1      -9.698  10.089  69.724  1.00  0.00    -0.268 N  
HETATM    8  H1  UNL     1      -8.415   9.945  72.344  1.00  0.00     0.000 HD 
HETATM    9  O   UNL     1     -11.596   9.186  70.637  1.00  0.00    -0.266 OA 
HETATM   10  H   UNL     1      -8.700  10.156  69.918  1.00  0.00     0.000 HD 
ENDROOT
BRANCH   7  11
HETATM   11  C   UNL     1     -10.131  10.945  68.482  1.00  0.00    -0.183 C  
BRANCH  11  12
HETATM   12  C   UNL     1     -10.512  10.343  67.050  1.00  0.00    -0.309 C  
BRANCH  12  13
HETATM   13  C   UNL     1      -9.604   9.200  66.385  1.00  0.00    -0.309 A  
HETATM   14  C   UNL     1      -8.545   9.338  65.507  1.00  0.00    -0.152 A  
HETATM   15  C   UNL     1     -10.426   5.479  67.271  1.00  0.00    -0.300 A  
HETATM   16  C   UNL     1      -9.682   4.894  66.250  1.00  0.00    -0.200 A  
HETATM   17  C   UNL     1      -8.891   5.692  65.424  1.00  0.00    -0.112 A  
HETATM   18  N   UNL     1      -8.150   8.084  65.042  1.00  0.00    -0.139 NA 
HETATM   19  C   UNL     1     -10.455   6.880  67.435  1.00  0.00    -0.339 A  
HETATM   20  C   UNL     1      -9.718   7.732  66.571  1.00  0.00    -0.265 A  
HETATM   21  C   UNL     1      -8.903   7.097  65.632  1.00  0.00    -0.015 A  
HETATM   22  H   UNL     1      -7.408   7.922  64.362  1.00  0.00     0.000 HD 
ENDBRANCH  12  13
ENDBRANCH  11  12
BRANCH  11  23
HETATM   23  C   UNL     1      -9.184  12.173  68.427  1.00  0.00    -0.154 C  
HETATM   24  N   UNL     1      -9.767  13.425  68.469  1.00  0.00    -0.346 N  
HETATM   25  H   UNL     1     -10.762  13.513  68.672  1.00  0.00     0.000 HD 
HETATM   26  O   UNL     1      -7.971  12.016  68.265  1.00  0.00    -0.135 OA 
BRANCH  24  27
HETATM   27  C   UNL     1      -8.974  14.608  68.229  1.00  0.00    -0.184 C  
BRANCH  27  28
HETATM   28  N   UNL     1      -8.736  14.725  66.813  1.00  0.00    -0.335 N  
HETATM   29  O   UNL     1     -10.961  14.593  66.200  1.00  0.00    -0.317 OA 
HETATM   30  C   UNL     1      -9.779  14.708  65.914  1.00  0.00    -0.310 C  
HETATM   31  H   UNL     1      -7.781  14.821  66.471  1.00  0.00     0.000 HD 
ENDBRANCH  27  28
BRANCH  27  32
HETATM   32  C   UNL     1      -9.390  15.920  68.929  1.00  0.00    -0.233 C  
BRANCH  32  33
HETATM   33  C   UNL     1      -9.435  17.330  68.363  1.00  0.00    -0.283 A  
HETATM   34  C   UNL     1      -9.266  19.477  67.544  1.00  0.00    -0.315 A  
HETATM   35  H   UNL     1     -11.334  19.630  67.117  1.00  0.00     0.000 HD 
HETATM   36  C   UNL     1      -8.730  20.711  67.143  1.00  0.00    -0.313 A  
HETATM   37  C   UNL     1     -10.679  17.801  67.952  1.00  0.00    -0.319 A  
HETATM   38  C   UNL     1      -7.370  20.918  67.343  1.00  0.00    -0.369 A  
HETATM   39  N   UNL     1     -10.562  19.067  67.475  1.00  0.00    -0.454 NA 
HETATM   40  C   UNL     1      -6.589  19.923  67.929  1.00  0.00    -0.277 A  
HETATM   41  C   UNL     1      -7.142  18.683  68.314  1.00  0.00    -0.271 A  
HETATM   42  C   UNL     1      -8.518  18.431  68.119  1.00  0.00    -0.301 A  
ENDBRANCH  32  33
ENDBRANCH  27  32
ENDBRANCH  24  27
ENDBRANCH  11  23
ENDBRANCH   7  11
TORSDOF 8
ENDMDL
MODEL      207
REMARK 921   NORMALIZED FREE ENERGY PREDICTED BY IDOCK:   -6.01 KCAL/MOL
REMARK 922        TOTAL FREE ENERGY PREDICTED BY IDOCK:  -10.96 KCAL/MOL
REMARK 923 INTER-LIGAND FREE ENERGY PREDICTED BY IDOCK:   -9.47 KCAL/MOL
REMARK 924 INTRA-LIGAND FREE ENERGY PREDICTED BY IDOCK:   -1.49 KCAL/MOL
REMARK 927      BINDING AFFINITY PREDICTED BY RF-SCORE:    0.00 PKD
ROOT
HETATM    1  C   UNL     1     -11.271   9.747  71.450  1.00  0.00    -0.368 C  
HETATM    2  C   UNL     1     -12.414  10.643  70.935  1.00  0.00    -0.397 C  
HETATM    3  C   UNL     1     -12.033  11.448  69.517  1.00  0.00    -0.341 C  
HETATM    4  N   UNL     1     -12.700  11.651  71.997  1.00  0.00    -0.133 NA 
HETATM    5  C   UNL     1     -13.655   9.710  70.867  1.00  0.00    -0.070 C  
HETATM    6  H2  UNL     1     -11.874  12.180  72.278  1.00  0.00     0.000 HD 
HETATM    7  N   UNL     1     -11.401  12.692  69.630  1.00  0.00    -0.479 N  
HETATM    8  H1  UNL     1     -13.457  12.244  71.656  1.00  0.00     0.000 HD 
HETATM    9  O   UNL     1     -12.260  10.948  68.416  1.00  0.00    -0.540 OA 
HETATM   10  H   UNL     1     -11.403  13.047  70.586  1.00  0.00     0.000 HD 
ENDROOT
BRANCH   7  11
HETATM   11  C   UNL     1     -10.691  13.665  68.624  1.00  0.00    -0.256 C  
BRANCH  11  12
HETATM   12  C   UNL     1     -11.028  15.221  68.471  1.00  0.00    -0.266 C  
BRANCH  12  13
HETATM   13  C   UNL     1      -9.854  16.312  68.521  1.00  0.00    -0.223 A  
HETATM   14  C   UNL     1      -8.603  16.211  69.099  1.00  0.00    -0.235 A  
HETATM   15  C   UNL     1     -10.523  19.781  66.838  1.00  0.00    -0.596 A  
HETATM   16  C   UNL     1      -9.455  20.459  67.419  1.00  0.00    -0.561 A  
HETATM   17  C   UNL     1      -8.540  19.764  68.208  1.00  0.00    -0.317 A  
HETATM   18  N   UNL     1      -7.963  17.450  69.062  1.00  0.00    -0.175 NA 
HETATM   19  C   UNL     1     -10.740  18.411  67.100  1.00  0.00    -0.366 A  
HETATM   20  C   UNL     1      -9.870  17.683  67.954  1.00  0.00    -0.300 A  
HETATM   21  C   UNL     1      -8.754  18.376  68.426  1.00  0.00    -0.317 A  
HETATM   22  H   UNL     1      -7.041  17.641  69.453  1.00  0.00     0.000 HD 
ENDBRANCH  12  13
ENDBRANCH  11  12
BRANCH  11  23
HETATM   23  C   UNL     1     -10.558  12.905  67.277  1.00  0.00    -0.234 C  
HETATM   24  N   UNL     1      -9.655  11.862  67.225  1.00  0.00    -0.176 N  
HETATM   25  H   UNL     1      -9.211  11.532  68.082  1.00  0.00     0.000 HD 
HETATM   26  O   UNL     1     -11.180  13.289  66.283  1.00  0.00    -0.291 OA 
BRANCH  24  27
HETATM   27  C   UNL     1      -9.334  11.235  65.963  1.00  0.00    -0.214 C  
BRANCH  27  28
HETATM   28  N   UNL     1      -7.907  11.288  65.771  1.00  0.00    -0.371 N  
HETATM   29  O   UNL     1      -7.371  10.321  67.800  1.00  0.00    -0.086 OA 
HETATM   30  C   UNL     1      -7.043  10.812  66.731  1.00  0.00    -0.127 C  
HETATM   31  H   UNL     1      -7.532  11.686  64.911  1.00  0.00     0.000 HD 
ENDBRANCH  27  28
BRANCH  27  32
HETATM   32  C   UNL     1      -9.984   9.872  65.640  1.00  0.00    -0.353 C  
BRANCH  32  33
HETATM   33  C   UNL     1      -9.610   8.492  66.154  1.00  0.00    -0.276 A  
HETATM   34  C   UNL     1      -9.206   6.433  67.107  1.00  0.00    -0.123 A  
HETATM   35  H   UNL     1      -7.731   5.904  65.683  1.00  0.00     0.000 HD 
HETATM   36  C   UNL     1      -9.283   5.325  67.965  1.00  0.00    -0.125 A  
HETATM   37  C   UNL     1      -8.633   7.801  65.442  1.00  0.00    -0.070 A  
HETATM   38  C   UNL     1     -10.159   5.403  69.041  1.00  0.00    -0.283 A  
HETATM   39  N   UNL     1      -8.405   6.592  66.018  1.00  0.00    -0.128 NA 
HETATM   40  C   UNL     1     -10.919   6.553  69.243  1.00  0.00    -0.389 A  
HETATM   41  C   UNL     1     -10.839   7.653  68.362  1.00  0.00    -0.011 A  
HETATM   42  C   UNL     1      -9.968   7.609  67.252  1.00  0.00    -0.273 A  
ENDBRANCH  32  33
ENDBRANCH  27  32
ENDBRANCH  24  27
ENDBRANCH  11  23
ENDBRANCH   7  11
TORSDOF 8
ENDMDL
MODEL      208
REMARK 921   NORMALIZED FREE ENERGY PREDICTED BY IDOCK:   -6.01 KCAL/MOL
REMARK 922        TOTAL FREE ENERGY PREDICTED BY IDOCK:  -10.96 KCAL/MOL
REMARK 923 INTER-LIGAND FREE ENERGY PREDICTED BY IDOCK:   -8.56 KCAL/MOL
REMARK 924 INTRA-LIGAND FREE ENERGY PREDICTED BY IDOCK:   -2.40 KCAL/MOL
REMARK 927      BINDING AFFINITY PREDICTED BY RF-SCORE:    0.00 PKD
ROOT
HETATM    1  C   UNL     1      -8.586  16.885  66.210  1.00  0.00    -0.319 C  
HETATM    2  C   UNL     1     -10.102  16.731  66.446  1.00  0.00    -0.317 C  
HETATM    3  C   UNL     1     -10.473  15.615  67.637  1.00  0.00    -0.283 C  
HETATM    4  N   UNL     1     -10.706  16.279  65.159  1.00  0.00    -0.604 NA 
HETATM    5  C   UNL     1     -10.617  18.176  66.692  1.00  0.00    -0.296 C  
HETATM    6  H2  UNL     1     -10.271  15.433  64.789  1.00  0.00     0.000 HD 
HETATM    7  N   UNL     1     -10.619  14.278  67.247  1.00  0.00    -0.276 N  
HETATM    8  H1  UNL     1     -11.709  16.178  65.315  1.00  0.00     0.000 HD 
HETATM    9  O   UNL     1     -10.574  15.947  68.817  1.00  0.00    -0.225 OA 
HETATM   10  H   UNL     1     -10.651  14.166  66.234  1.00  0.00     0.000 HD 
ENDROOT
BRANCH   7  11
HETATM   11  C   UNL     1     -10.744  12.913  68.011  1.00  0.00    -0.228 C  
BRANCH  11  12
HETATM   12  C   UNL     1      -9.800  12.456  69.219  1.00  0.00     0.594 C  
BRANCH  12  13
HETATM   13  C   UNL     1      -9.881  10.958  69.788  1.00  0.00     0.304 A  
HETATM   14  C   UNL     1      -8.968   9.930  69.648  1.00  0.00    -0.216 A  
HETATM   15  C   UNL     1     -13.062   9.959  71.836  1.00  0.00    -0.559 A  
HETATM   16  C   UNL     1     -12.864   8.582  71.794  1.00  0.00    -0.380 A  
HETATM   17  C   UNL     1     -11.700   8.066  71.225  1.00  0.00    -0.311 A  
HETATM   18  N   UNL     1      -9.510   8.746  70.149  1.00  0.00    -0.163 NA 
HETATM   19  C   UNL     1     -12.138  10.843  71.239  1.00  0.00    -0.322 A  
HETATM   20  C   UNL     1     -10.973  10.353  70.589  1.00  0.00    -0.191 A  
HETATM   21  C   UNL     1     -10.762   8.976  70.667  1.00  0.00    -0.239 A  
HETATM   22  H   UNL     1      -9.043   7.840  70.134  1.00  0.00     0.000 HD 
ENDBRANCH  12  13
ENDBRANCH  11  12
BRANCH  11  23
HETATM   23  C   UNL     1     -10.985  11.816  66.939  1.00  0.00    -0.285 C  
HETATM   24  N   UNL     1     -10.052  11.704  65.926  1.00  0.00    -0.222 N  
HETATM   25  H   UNL     1      -9.180  12.231  65.980  1.00  0.00     0.000 HD 
HETATM   26  O   UNL     1     -12.018  11.141  66.961  1.00  0.00    -0.272 OA 
BRANCH  24  27
HETATM   27  C   UNL     1     -10.304  10.845  64.793  1.00  0.00    -0.323 C  
BRANCH  27  28
HETATM   28  N   UNL     1     -10.464  11.665  63.619  1.00  0.00    -0.384 N  
HETATM   29  O   UNL     1     -12.662  12.238  64.044  1.00  0.00    -0.635 OA 
HETATM   30  C   UNL     1     -11.656  12.300  63.354  1.00  0.00    -0.447 C  
HETATM   31  H   UNL     1      -9.682  11.777  62.975  1.00  0.00     0.000 HD 
ENDBRANCH  27  28
BRANCH  27  32
HETATM   32  C   UNL     1      -9.403   9.605  64.602  1.00  0.00    -0.271 C  
BRANCH  32  33
HETATM   33  C   UNL     1      -8.881   8.636  65.650  1.00  0.00    -0.227 A  
HETATM   34  C   UNL     1      -8.314   7.085  67.257  1.00  0.00    -0.122 A  
HETATM   35  H   UNL     1      -6.270   7.633  67.270  1.00  0.00     0.000 HD 
HETATM   36  C   UNL     1      -8.408   6.047  68.198  1.00  0.00    -0.113 A  
HETATM   37  C   UNL     1      -7.520   8.698  65.939  1.00  0.00    -0.085 A  
HETATM   38  C   UNL     1      -9.666   5.505  68.436  1.00  0.00    -0.168 A  
HETATM   39  N   UNL     1      -7.204   7.780  66.888  1.00  0.00    -0.087 NA 
HETATM   40  C   UNL     1     -10.780   5.994  67.755  1.00  0.00    -0.369 A  
HETATM   41  C   UNL     1     -10.664   7.029  66.802  1.00  0.00    -0.282 A  
HETATM   42  C   UNL     1      -9.403   7.600  66.526  1.00  0.00    -0.241 A  
ENDBRANCH  32  33
ENDBRANCH  27  32
ENDBRANCH  24  27
ENDBRANCH  11  23
ENDBRANCH   7  11
TORSDOF 8
ENDMDL
MODEL      209
REMARK 921   NORMALIZED FREE ENERGY PREDICTED BY IDOCK:   -6.01 KCAL/MOL
REMARK 922        TOTAL FREE ENERGY PREDICTED BY IDOCK:  -10.96 KCAL/MOL
REMARK 923 INTER-LIGAND FREE ENERGY PREDICTED BY IDOCK:   -9.23 KCAL/MOL
REMARK 924 INTRA-LIGAND FREE ENERGY PREDICTED BY IDOCK:   -1.73 KCAL/MOL
REMARK 927      BINDING AFFINITY PREDICTED BY RF-SCORE:    0.00 PKD
ROOT
HETATM    1  C   UNL     1      -7.259   7.340  70.926  1.00  0.00    -0.069 C  
HETATM    2  C   UNL     1      -8.743   7.504  71.306  1.00  0.00    -0.125 C  
HETATM    3  C   UNL     1      -9.759   7.579  69.977  1.00  0.00    -0.172 C  
HETATM    4  N   UNL     1      -8.865   8.776  72.076  1.00  0.00    -0.370 NA 
HETATM    5  C   UNL     1      -9.030   6.352  72.308  1.00  0.00    -0.139 C  
HETATM    6  H2  UNL     1      -8.489   9.583  71.577  1.00  0.00     0.000 HD 
HETATM    7  N   UNL     1      -9.990   8.838  69.411  1.00  0.00    -0.191 N  
HETATM    8  H1  UNL     1      -9.848   8.884  72.328  1.00  0.00     0.000 HD 
HETATM    9  O   UNL     1     -10.252   6.563  69.489  1.00  0.00    -0.174 OA 
HETATM   10  H   UNL     1      -9.641   9.600  69.992  1.00  0.00     0.000 HD 
ENDROOT
BRANCH   7  11
HETATM   11  C   UNL     1     -10.662   9.347  68.087  1.00  0.00    -0.178 C  
BRANCH  11  12
HETATM   12  C   UNL     1     -10.494   8.653  66.656  1.00  0.00    -0.239 C  
BRANCH  12  13
HETATM   13  C   UNL     1      -9.109   8.771  65.856  1.00  0.00    -0.271 A  
HETATM   14  C   UNL     1      -8.792   9.592  64.790  1.00  0.00    -0.207 A  
HETATM   15  C   UNL     1      -6.164   6.446  66.967  1.00  0.00    -0.036 A  
HETATM   16  C   UNL     1      -5.371   6.626  65.837  1.00  0.00    -0.018 A  
HETATM   17  C   UNL     1      -5.758   7.540  64.858  1.00  0.00    -0.037 A  
HETATM   18  N   UNL     1      -7.537   9.252  64.288  1.00  0.00    -0.108 NA 
HETATM   19  C   UNL     1      -7.397   7.118  67.101  1.00  0.00    -0.090 A  
HETATM   20  C   UNL     1      -7.860   8.006  66.094  1.00  0.00    -0.093 A  
HETATM   21  C   UNL     1      -6.983   8.238  65.033  1.00  0.00    -0.074 A  
HETATM   22  H   UNL     1      -7.093   9.692  63.483  1.00  0.00     0.000 HD 
ENDBRANCH  12  13
ENDBRANCH  11  12
BRANCH  11  23
HETATM   23  C   UNL     1     -10.513  10.892  68.069  1.00  0.00    -0.191 C  
HETATM   24  N   UNL     1     -11.360  11.601  67.240  1.00  0.00    -0.307 N  
HETATM   25  H   UNL     1     -12.135  11.123  66.780  1.00  0.00     0.000 HD 
HETATM   26  O   UNL     1      -9.610  11.437  68.711  1.00  0.00    -0.190 OA 
BRANCH  24  27
HETATM   27  C   UNL     1     -11.156  13.014  67.022  1.00  0.00    -0.281 C  
BRANCH  27  28
HETATM   28  N   UNL     1     -10.986  13.243  65.611  1.00  0.00    -0.276 N  
HETATM   29  O   UNL     1     -13.110  12.556  65.014  1.00  0.00    -0.765 OA 
HETATM   30  C   UNL     1     -12.005  12.988  64.721  1.00  0.00    -0.395 C  
HETATM   31  H   UNL     1     -10.096  13.600  65.264  1.00  0.00     0.000 HD 
ENDBRANCH  27  28
BRANCH  27  32
HETATM   32  C   UNL     1     -12.102  14.006  67.733  1.00  0.00    -0.325 C  
BRANCH  32  33
HETATM   33  C   UNL     1     -11.899  14.741  69.048  1.00  0.00    -0.337 A  
HETATM   34  C   UNL     1     -11.756  15.708  71.135  1.00  0.00    -0.413 A  
HETATM   35  H   UNL     1     -10.290  17.114  70.541  1.00  0.00     0.000 HD 
HETATM   36  C   UNL     1     -11.975  15.978  72.495  1.00  0.00    -0.649 A  
HETATM   37  C   UNL     1     -10.967  15.776  69.051  1.00  0.00    -0.262 A  
HETATM   38  C   UNL     1     -12.935  15.221  73.157  1.00  0.00    -0.625 A  
HETATM   39  N   UNL     1     -10.897  16.336  70.286  1.00  0.00    -0.298 NA 
HETATM   40  C   UNL     1     -13.646  14.238  72.470  1.00  0.00    -0.620 A  
HETATM   41  C   UNL     1     -13.403  13.971  71.106  1.00  0.00    -0.290 A  
HETATM   42  C   UNL     1     -12.430  14.712  70.401  1.00  0.00    -0.410 A  
ENDBRANCH  32  33
ENDBRANCH  27  32
ENDBRANCH  24  27
ENDBRANCH  11  23
ENDBRANCH   7  11
TORSDOF 8
ENDMDL
MODEL      210
REMARK 921   NORMALIZED FREE ENERGY PREDICTED BY IDOCK:   -5.99 KCAL/MOL
REMARK 922        TOTAL FREE ENERGY PREDICTED BY IDOCK:  -10.94 KCAL/MOL
REMARK 923 INTER-LIGAND FREE ENERGY PREDICTED BY IDOCK:   -9.24 KCAL/MOL
REMARK 924 INTRA-LIGAND FREE ENERGY PREDICTED BY IDOCK:   -1.70 KCAL/MOL
REMARK 927      BINDING AFFINITY PREDICTED BY RF-SCORE:    0.00 PKD
ROOT
HETATM    1  C   UNL     1      -8.973   6.134  65.906  1.00  0.00    -0.133 C  
HETATM    2  C   UNL     1      -7.971   7.260  65.586  1.00  0.00    -0.123 C  
HETATM    3  C   UNL     1      -7.569   8.184  66.923  1.00  0.00    -0.095 C  
HETATM    4  N   UNL     1      -8.607   8.142  64.566  1.00  0.00    -0.394 NA 
HETATM    5  C   UNL     1      -6.784   6.551  64.877  1.00  0.00    -0.042 C  
HETATM    6  H2  UNL     1      -9.522   8.491  64.854  1.00  0.00     0.000 HD 
HETATM    7  N   UNL     1      -8.382   9.286  67.214  1.00  0.00    -0.124 N  
HETATM    8  H1  UNL     1      -7.944   8.888  64.354  1.00  0.00     0.000 HD 
HETATM    9  O   UNL     1      -6.622   7.885  67.649  1.00  0.00    -0.057 OA 
HETATM   10  H   UNL     1      -9.036   9.502  66.462  1.00  0.00     0.000 HD 
ENDROOT
BRANCH   7  11
HETATM   11  C   UNL     1      -8.518  10.267  68.432  1.00  0.00    -0.124 C  
BRANCH  11  12
HETATM   12  C   UNL     1      -9.793  10.352  69.394  1.00  0.00    -0.235 C  
BRANCH  12  13
HETATM   13  C   UNL     1     -10.437   9.017  70.005  1.00  0.00    -0.233 A  
HETATM   14  C   UNL     1      -9.984   7.714  69.906  1.00  0.00    -0.190 A  
HETATM   15  C   UNL     1     -13.756   9.367  72.048  1.00  0.00    -0.466 A  
HETATM   16  C   UNL     1     -14.097   8.018  72.049  1.00  0.00    -0.426 A  
HETATM   17  C   UNL     1     -13.218   7.081  71.508  1.00  0.00    -0.382 A  
HETATM   18  N   UNL     1     -10.935   6.842  70.436  1.00  0.00    -0.259 NA 
HETATM   19  C   UNL     1     -12.566   9.814  71.435  1.00  0.00    -0.482 A  
HETATM   20  C   UNL     1     -11.676   8.898  70.812  1.00  0.00    -0.269 A  
HETATM   21  C   UNL     1     -12.005   7.547  70.933  1.00  0.00    -0.251 A  
HETATM   22  H   UNL     1     -10.848   5.826  70.453  1.00  0.00     0.000 HD 
ENDBRANCH  12  13
ENDBRANCH  11  12
BRANCH  11  23
HETATM   23  C   UNL     1      -7.976  11.645  67.966  1.00  0.00    -0.132 C  
HETATM   24  N   UNL     1      -8.373  12.757  68.682  1.00  0.00    -0.345 N  
HETATM   25  H   UNL     1      -8.882  12.640  69.557  1.00  0.00     0.000 HD 
HETATM   26  O   UNL     1      -7.291  11.730  66.942  1.00  0.00    -0.144 OA 
BRANCH  24  27
HETATM   27  C   UNL     1      -8.071  14.084  68.198  1.00  0.00    -0.151 C  
BRANCH  27  28
HETATM   28  N   UNL     1      -6.641  14.250  68.168  1.00  0.00    -0.115 N  
HETATM   29  O   UNL     1      -6.617  16.219  69.377  1.00  0.00    -0.182 OA 
HETATM   30  C   UNL     1      -6.037  15.326  68.778  1.00  0.00    -0.087 C  
HETATM   31  H   UNL     1      -6.066  13.558  67.687  1.00  0.00     0.000 HD 
ENDBRANCH  27  28
BRANCH  27  32
HETATM   32  C   UNL     1      -8.811  14.588  66.940  1.00  0.00    -0.257 C  
BRANCH  32  33
HETATM   33  C   UNL     1     -10.143  14.130  66.369  1.00  0.00    -0.299 A  
HETATM   34  C   UNL     1     -12.036  13.310  65.343  1.00  0.00    -0.422 A  
HETATM   35  H   UNL     1     -13.357  14.323  66.651  1.00  0.00     0.000 HD 
HETATM   36  C   UNL     1     -12.877  12.606  64.466  1.00  0.00    -0.356 A  
HETATM   37  C   UNL     1     -11.291  14.606  66.996  1.00  0.00    -0.355 A  
HETATM   38  C   UNL     1     -12.278  11.866  63.454  1.00  0.00    -0.561 A  
HETATM   39  N   UNL     1     -12.396  14.116  66.379  1.00  0.00    -0.454 NA 
HETATM   40  C   UNL     1     -10.889  11.844  63.330  1.00  0.00    -0.469 A  
HETATM   41  C   UNL     1     -10.059  12.547  64.229  1.00  0.00    -0.298 A  
HETATM   42  C   UNL     1     -10.629  13.303  65.277  1.00  0.00    -0.325 A  
ENDBRANCH  32  33
ENDBRANCH  27  32
ENDBRANCH  24  27
ENDBRANCH  11  23
ENDBRANCH   7  11
TORSDOF 8
ENDMDL
MODEL      211
REMARK 921   NORMALIZED FREE ENERGY PREDICTED BY IDOCK:   -5.99 KCAL/MOL
REMARK 922        TOTAL FREE ENERGY PREDICTED BY IDOCK:  -10.93 KCAL/MOL
REMARK 923 INTER-LIGAND FREE ENERGY PREDICTED BY IDOCK:   -9.33 KCAL/MOL
REMARK 924 INTRA-LIGAND FREE ENERGY PREDICTED BY IDOCK:   -1.60 KCAL/MOL
REMARK 927      BINDING AFFINITY PREDICTED BY RF-SCORE:    0.00 PKD
ROOT
HETATM    1  C   UNL     1     -12.594  12.092  64.608  1.00  0.00    -0.266 C  
HETATM    2  C   UNL     1     -12.248  13.585  64.771  1.00  0.00    -0.409 C  
HETATM    3  C   UNL     1     -10.815  13.844  65.597  1.00  0.00    -0.292 C  
HETATM    4  N   UNL     1     -13.363  14.217  65.533  1.00  0.00    -0.615 NA 
HETATM    5  C   UNL     1     -12.310  14.169  63.332  1.00  0.00     0.322 C  
HETATM    6  H2  UNL     1     -13.554  13.753  66.422  1.00  0.00     0.000 HD 
HETATM    7  N   UNL     1     -10.881  13.931  66.993  1.00  0.00    -0.284 N  
HETATM    8  H1  UNL     1     -13.134  15.206  65.641  1.00  0.00     0.000 HD 
HETATM    9  O   UNL     1      -9.738  13.913  65.007  1.00  0.00    -0.125 OA 
HETATM   10  H   UNL     1     -11.839  14.000  67.337  1.00  0.00     0.000 HD 
ENDROOT
BRANCH   7  11
HETATM   11  C   UNL     1      -9.821  13.947  68.150  1.00  0.00    -0.240 C  
BRANCH  11  12
HETATM   12  C   UNL     1      -8.840  15.170  68.469  1.00  0.00    -0.185 C  
BRANCH  12  13
HETATM   13  C   UNL     1      -8.685  16.377  67.425  1.00  0.00    -0.195 A  
HETATM   14  C   UNL     1      -8.009  16.396  66.219  1.00  0.00    -0.229 A  
HETATM   15  C   UNL     1     -10.384  19.786  68.320  1.00  0.00    -0.536 A  
HETATM   16  C   UNL     1      -9.711  20.562  67.380  1.00  0.00    -0.587 A  
HETATM   17  C   UNL     1      -8.857  19.952  66.462  1.00  0.00    -0.432 A  
HETATM   18  N   UNL     1      -7.981  17.696  65.714  1.00  0.00    -0.541 NA 
HETATM   19  C   UNL     1     -10.153  18.397  68.411  1.00  0.00    -0.418 A  
HETATM   20  C   UNL     1      -9.239  17.749  67.540  1.00  0.00    -0.244 A  
HETATM   21  C   UNL     1      -8.671  18.546  66.545  1.00  0.00    -0.286 A  
HETATM   22  H   UNL     1      -7.515  17.975  64.851  1.00  0.00     0.000 HD 
ENDBRANCH  12  13
ENDBRANCH  11  12
BRANCH  11  23
HETATM   23  C   UNL     1      -9.129  12.557  68.148  1.00  0.00    -0.204 C  
HETATM   24  N   UNL     1      -9.945  11.443  68.178  1.00  0.00    -0.182 N  
HETATM   25  H   UNL     1     -10.952  11.550  68.061  1.00  0.00     0.000 HD 
HETATM   26  O   UNL     1      -7.899  12.475  68.205  1.00  0.00    -0.130 OA 
BRANCH  24  27
HETATM   27  C   UNL     1      -9.380  10.128  68.373  1.00  0.00    -0.136 C  
BRANCH  27  28
HETATM   28  N   UNL     1      -8.480   9.847  67.284  1.00  0.00    -0.121 N  
HETATM   29  O   UNL     1     -10.078  10.018  65.622  1.00  0.00    -0.282 OA 
HETATM   30  C   UNL     1      -8.927   9.821  65.982  1.00  0.00    -0.155 C  
HETATM   31  H   UNL     1      -7.496   9.664  67.480  1.00  0.00     0.000 HD 
ENDBRANCH  27  28
BRANCH  27  32
HETATM   32  C   UNL     1      -8.840   9.767  69.773  1.00  0.00    -0.241 C  
BRANCH  32  33
HETATM   33  C   UNL     1      -9.565   9.103  70.933  1.00  0.00    -0.347 A  
HETATM   34  C   UNL     1     -10.456   7.987  72.741  1.00  0.00    -0.345 A  
HETATM   35  H   UNL     1     -12.383   8.827  72.491  1.00  0.00     0.000 HD 
HETATM   36  C   UNL     1     -10.575   7.157  73.867  1.00  0.00    -0.180 A  
HETATM   37  C   UNL     1     -10.909   9.426  71.099  1.00  0.00    -0.357 A  
HETATM   38  C   UNL     1      -9.455   6.431  74.254  1.00  0.00    -0.230 A  
HETATM   39  N   UNL     1     -11.418   8.760  72.167  1.00  0.00    -0.364 NA 
HETATM   40  C   UNL     1      -8.268   6.536  73.530  1.00  0.00    -0.122 A  
HETATM   41  C   UNL     1      -8.163   7.386  72.408  1.00  0.00    -0.117 A  
HETATM   42  C   UNL     1      -9.275   8.147  71.989  1.00  0.00    -0.253 A  
ENDBRANCH  32  33
ENDBRANCH  27  32
ENDBRANCH  24  27
ENDBRANCH  11  23
ENDBRANCH   7  11
TORSDOF 8
ENDMDL
MODEL      212
REMARK 921   NORMALIZED FREE ENERGY PREDICTED BY IDOCK:   -5.98 KCAL/MOL
REMARK 922        TOTAL FREE ENERGY PREDICTED BY IDOCK:  -10.92 KCAL/MOL
REMARK 923 INTER-LIGAND FREE ENERGY PREDICTED BY IDOCK:   -9.22 KCAL/MOL
REMARK 924 INTRA-LIGAND FREE ENERGY PREDICTED BY IDOCK:   -1.70 KCAL/MOL
REMARK 927      BINDING AFFINITY PREDICTED BY RF-SCORE:    0.00 PKD
ROOT
HETATM    1  C   UNL     1     -11.631  15.620  72.434  1.00  0.00    -0.523 C  
HETATM    2  C   UNL     1     -12.826  15.114  71.603  1.00  0.00    -0.364 C  
HETATM    3  C   UNL     1     -12.678  13.511  71.144  1.00  0.00    -0.344 C  
HETATM    4  N   UNL     1     -12.903  15.960  70.377  1.00  0.00    -0.672 NA 
HETATM    5  C   UNL     1     -14.080  15.457  72.455  1.00  0.00    -0.645 C  
HETATM    6  H2  UNL     1     -12.030  15.979  69.850  1.00  0.00     0.000 HD 
HETATM    7  N   UNL     1     -12.010  13.242  69.944  1.00  0.00    -0.334 N  
HETATM    8  H1  UNL     1     -13.694  15.625  69.827  1.00  0.00     0.000 HD 
HETATM    9  O   UNL     1     -13.103  12.599  71.852  1.00  0.00    -0.407 OA 
HETATM   10  H   UNL     1     -11.839  14.083  69.393  1.00  0.00     0.000 HD 
ENDROOT
BRANCH   7  11
HETATM   11  C   UNL     1     -11.463  11.944  69.251  1.00  0.00    -0.306 C  
BRANCH  11  12
HETATM   12  C   UNL     1     -11.418  11.706  67.670  1.00  0.00    -0.373 C  
BRANCH  12  13
HETATM   13  C   UNL     1     -10.191  10.916  67.005  1.00  0.00    -0.256 A  
HETATM   14  C   UNL     1      -9.076  11.428  66.369  1.00  0.00    -0.193 A  
HETATM   15  C   UNL     1     -10.274   7.006  67.108  1.00  0.00    -0.318 A  
HETATM   16  C   UNL     1      -9.279   6.790  66.159  1.00  0.00    -0.120 A  
HETATM   17  C   UNL     1      -8.578   7.874  65.632  1.00  0.00    -0.159 A  
HETATM   18  N   UNL     1      -8.346  10.392  65.786  1.00  0.00    -0.152 NA 
HETATM   19  C   UNL     1     -10.641   8.313  67.490  1.00  0.00    -0.291 A  
HETATM   20  C   UNL     1      -9.998   9.447  66.926  1.00  0.00    -0.293 A  
HETATM   21  C   UNL     1      -8.935   9.181  66.061  1.00  0.00    -0.181 A  
HETATM   22  H   UNL     1      -7.498  10.516  65.235  1.00  0.00     0.000 HD 
ENDBRANCH  12  13
ENDBRANCH  11  12
BRANCH  11  23
HETATM   23  C   UNL     1     -12.001  10.737  70.065  1.00  0.00    -0.347 C  
HETATM   24  N   UNL     1     -11.130  10.127  70.946  1.00  0.00    -0.345 N  
HETATM   25  H   UNL     1     -10.226  10.555  71.141  1.00  0.00     0.000 HD 
HETATM   26  O   UNL     1     -13.137  10.302  69.854  1.00  0.00     0.018 OA 
BRANCH  24  27
HETATM   27  C   UNL     1     -11.492   8.886  71.591  1.00  0.00    -0.339 C  
BRANCH  27  28
HETATM   28  N   UNL     1     -11.923   7.951  70.584  1.00  0.00    -0.483 N  
HETATM   29  O   UNL     1     -12.641   6.333  72.071  1.00  0.00    -0.269 OA 
HETATM   30  C   UNL     1     -12.471   6.737  70.930  1.00  0.00    -0.213 C  
HETATM   31  H   UNL     1     -11.820   8.192  69.599  1.00  0.00     0.000 HD 
ENDBRANCH  27  28
BRANCH  27  32
HETATM   32  C   UNL     1     -10.529   8.306  72.649  1.00  0.00    -0.373 C  
BRANCH  32  33
HETATM   33  C   UNL     1      -9.048   7.989  72.519  1.00  0.00    -0.271 A  
HETATM   34  C   UNL     1      -6.835   7.520  72.084  1.00  0.00    -0.059 A  
HETATM   35  H   UNL     1      -6.313   7.384  74.131  1.00  0.00     0.000 HD 
HETATM   36  C   UNL     1      -5.635   7.278  71.396  1.00  0.00    -0.035 A  
HETATM   37  C   UNL     1      -8.336   7.826  73.704  1.00  0.00    -0.207 A  
HETATM   38  C   UNL     1      -5.680   7.266  70.007  1.00  0.00    -0.024 A  
HETATM   39  N   UNL     1      -7.035   7.548  73.430  1.00  0.00    -0.069 NA 
HETATM   40  C   UNL     1      -6.886   7.483  69.343  1.00  0.00    -0.048 A  
HETATM   41  C   UNL     1      -8.081   7.737  70.051  1.00  0.00    -0.118 A  
HETATM   42  C   UNL     1      -8.075   7.767  71.463  1.00  0.00    -0.107 A  
ENDBRANCH  32  33
ENDBRANCH  27  32
ENDBRANCH  24  27
ENDBRANCH  11  23
ENDBRANCH   7  11
TORSDOF 8
ENDMDL
MODEL      213
REMARK 921   NORMALIZED FREE ENERGY PREDICTED BY IDOCK:   -5.98 KCAL/MOL
REMARK 922        TOTAL FREE ENERGY PREDICTED BY IDOCK:  -10.92 KCAL/MOL
REMARK 923 INTER-LIGAND FREE ENERGY PREDICTED BY IDOCK:   -9.09 KCAL/MOL
REMARK 924 INTRA-LIGAND FREE ENERGY PREDICTED BY IDOCK:   -1.83 KCAL/MOL
REMARK 927      BINDING AFFINITY PREDICTED BY RF-SCORE:    0.00 PKD
ROOT
HETATM    1  C   UNL     1     -14.064  15.294  71.578  1.00  0.00    -0.625 C  
HETATM    2  C   UNL     1     -12.594  14.859  71.728  1.00  0.00    -0.331 C  
HETATM    3  C   UNL     1     -12.070  13.865  70.486  1.00  0.00    -0.356 C  
HETATM    4  N   UNL     1     -12.481  14.117  73.017  1.00  0.00    -0.108 NA 
HETATM    5  C   UNL     1     -11.801  16.183  71.910  1.00  0.00    -0.605 C  
HETATM    6  H2  UNL     1     -13.137  13.339  73.088  1.00  0.00     0.000 HD 
HETATM    7  N   UNL     1     -12.266  12.487  70.636  1.00  0.00    -0.437 N  
HETATM    8  H1  UNL     1     -11.507  13.829  73.116  1.00  0.00     0.000 HD 
HETATM    9  O   UNL     1     -11.571  14.328  69.462  1.00  0.00    -0.267 OA 
HETATM   10  H   UNL     1     -12.555  12.232  71.580  1.00  0.00     0.000 HD 
ENDROOT
BRANCH   7  11
HETATM   11  C   UNL     1     -12.144  11.245  69.684  1.00  0.00    -0.322 C  
BRANCH  11  12
HETATM   12  C   UNL     1     -12.891   9.849  69.909  1.00  0.00     0.551 C  
BRANCH  12  13
HETATM   13  C   UNL     1     -12.428   8.863  71.087  1.00  0.00    -0.260 A  
HETATM   14  C   UNL     1     -12.550   9.032  72.454  1.00  0.00    -0.333 A  
HETATM   15  C   UNL     1     -10.675   5.515  70.074  1.00  0.00    -0.356 A  
HETATM   16  C   UNL     1     -10.164   5.205  71.331  1.00  0.00    -0.282 A  
HETATM   17  C   UNL     1     -10.490   6.002  72.428  1.00  0.00    -0.234 A  
HETATM   18  N   UNL     1     -11.862   8.017  73.118  1.00  0.00    -0.574 NA 
HETATM   19  C   UNL     1     -11.457   6.673  69.875  1.00  0.00    -0.414 A  
HETATM   20  C   UNL     1     -11.754   7.548  70.953  1.00  0.00    -0.307 A  
HETATM   21  C   UNL     1     -11.313   7.141  72.213  1.00  0.00    -0.265 A  
HETATM   22  H   UNL     1     -11.777   7.937  74.131  1.00  0.00     0.000 HD 
ENDBRANCH  12  13
ENDBRANCH  11  12
BRANCH  11  23
HETATM   23  C   UNL     1     -10.644  11.113  69.305  1.00  0.00    -0.175 C  
HETATM   24  N   UNL     1     -10.224  11.749  68.152  1.00  0.00    -0.196 N  
HETATM   25  H   UNL     1     -10.855  12.387  67.668  1.00  0.00     0.000 HD 
HETATM   26  O   UNL     1      -9.895  10.394  69.971  1.00  0.00    -0.121 OA 
BRANCH  24  27
HETATM   27  C   UNL     1      -8.898  11.515  67.631  1.00  0.00    -0.152 C  
BRANCH  27  28
HETATM   28  N   UNL     1      -8.965  11.497  66.192  1.00  0.00    -0.226 N  
HETATM   29  O   UNL     1     -10.277   9.600  66.052  1.00  0.00    -0.265 OA 
HETATM   30  C   UNL     1      -9.667  10.519  65.526  1.00  0.00    -0.242 C  
HETATM   31  H   UNL     1      -8.484  12.221  65.658  1.00  0.00     0.000 HD 
ENDBRANCH  27  28
BRANCH  27  32
HETATM   32  C   UNL     1      -7.728  12.334  68.217  1.00  0.00    -0.143 C  
BRANCH  32  33
HETATM   33  C   UNL     1      -7.263  13.733  67.847  1.00  0.00    -0.156 A  
HETATM   34  C   UNL     1      -6.783  15.895  67.209  1.00  0.00    -0.186 A  
HETATM   35  H   UNL     1      -4.756  15.773  67.810  1.00  0.00     0.000 HD 
HETATM   36  C   UNL     1      -6.927  17.200  66.713  1.00  0.00    -0.260 A  
HETATM   37  C   UNL     1      -5.931  14.041  68.108  1.00  0.00    -0.126 A  
HETATM   38  C   UNL     1      -8.168  17.561  66.202  1.00  0.00    -0.222 A  
HETATM   39  N   UNL     1      -5.664  15.316  67.724  1.00  0.00    -0.233 NA 
HETATM   40  C   UNL     1      -9.215  16.641  66.188  1.00  0.00    -0.312 A  
HETATM   41  C   UNL     1      -9.055  15.336  66.703  1.00  0.00    -0.312 A  
HETATM   42  C   UNL     1      -7.813  14.934  67.240  1.00  0.00    -0.235 A  
ENDBRANCH  32  33
ENDBRANCH  27  32
ENDBRANCH  24  27
ENDBRANCH  11  23
ENDBRANCH   7  11
TORSDOF 8
ENDMDL
MODEL      214
REMARK 921   NORMALIZED FREE ENERGY PREDICTED BY IDOCK:   -5.97 KCAL/MOL
REMARK 922        TOTAL FREE ENERGY PREDICTED BY IDOCK:  -10.91 KCAL/MOL
REMARK 923 INTER-LIGAND FREE ENERGY PREDICTED BY IDOCK:   -9.14 KCAL/MOL
REMARK 924 INTRA-LIGAND FREE ENERGY PREDICTED BY IDOCK:   -1.77 KCAL/MOL
REMARK 927      BINDING AFFINITY PREDICTED BY RF-SCORE:    0.00 PKD
ROOT
HETATM    1  C   UNL     1     -10.450   7.321  73.174  1.00  0.00    -0.385 C  
HETATM    2  C   UNL     1     -11.628   7.599  72.220  1.00  0.00    -0.322 C  
HETATM    3  C   UNL     1     -11.153   8.294  70.773  1.00  0.00    -0.258 C  
HETATM    4  N   UNL     1     -12.555   8.534  72.922  1.00  0.00    -0.621 NA 
HETATM    5  C   UNL     1     -12.376   6.242  72.102  1.00  0.00    -0.193 C  
HETATM    6  H2  UNL     1     -12.093   9.384  73.246  1.00  0.00     0.000 HD 
HETATM    7  N   UNL     1     -11.068   9.690  70.725  1.00  0.00    -0.306 N  
HETATM    8  H1  UNL     1     -13.334   8.718  72.289  1.00  0.00     0.000 HD 
HETATM    9  O   UNL     1     -10.849   7.605  69.800  1.00  0.00    -0.249 OA 
HETATM   10  H   UNL     1     -11.480  10.137  71.543  1.00  0.00     0.000 HD 
ENDROOT
BRANCH   7  11
HETATM   11  C   UNL     1     -10.484  10.726  69.700  1.00  0.00    -0.140 C  
BRANCH  11  12
HETATM   12  C   UNL     1     -11.359  11.570  68.661  1.00  0.00    -0.330 C  
BRANCH  12  13
HETATM   13  C   UNL     1     -11.868  13.043  69.039  1.00  0.00    -0.362 A  
HETATM   14  C   UNL     1     -11.788  14.204  68.292  1.00  0.00    -0.356 A  
HETATM   15  C   UNL     1     -13.549  13.545  72.536  1.00  0.00    -0.674 A  
HETATM   16  C   UNL     1     -13.483  14.935  72.557  1.00  0.00    -0.548 A  
HETATM   17  C   UNL     1     -13.019  15.624  71.437  1.00  0.00    -0.555 A  
HETATM   18  N   UNL     1     -12.194  15.292  69.066  1.00  0.00    -0.594 NA 
HETATM   19  C   UNL     1     -13.078  12.814  71.425  1.00  0.00    -0.318 A  
HETATM   20  C   UNL     1     -12.534  13.476  70.292  1.00  0.00    -0.309 A  
HETATM   21  C   UNL     1     -12.588  14.870  70.313  1.00  0.00    -0.313 A  
HETATM   22  H   UNL     1     -12.196  16.261  68.750  1.00  0.00     0.000 HD 
ENDBRANCH  12  13
ENDBRANCH  11  12
BRANCH  11  23
HETATM   23  C   UNL     1      -9.207  10.089  69.091  1.00  0.00    -0.190 C  
HETATM   24  N   UNL     1      -8.054  10.131  69.849  1.00  0.00    -0.298 N  
HETATM   25  H   UNL     1      -8.097  10.443  70.819  1.00  0.00     0.000 HD 
HETATM   26  O   UNL     1      -9.222   9.645  67.939  1.00  0.00    -0.126 OA 
BRANCH  24  27
HETATM   27  C   UNL     1      -6.787   9.736  69.277  1.00  0.00    -0.055 C  
BRANCH  27  28
HETATM   28  N   UNL     1      -5.779  10.675  69.696  1.00  0.00    -0.039 N  
HETATM   29  O   UNL     1      -5.800  10.051  71.921  1.00  0.00    -0.294 OA 
HETATM   30  C   UNL     1      -5.371  10.742  71.009  1.00  0.00    -0.098 C  
HETATM   31  H   UNL     1      -5.360  11.301  69.009  1.00  0.00     0.000 HD 
ENDBRANCH  27  28
BRANCH  27  32
HETATM   32  C   UNL     1      -6.374   8.252  69.374  1.00  0.00    -0.038 C  
BRANCH  32  33
HETATM   33  C   UNL     1      -7.258   7.023  69.519  1.00  0.00    -0.080 A  
HETATM   34  C   UNL     1      -8.601   5.151  69.498  1.00  0.00    -0.092 A  
HETATM   35  H   UNL     1      -8.718   5.036  71.609  1.00  0.00     0.000 HD 
HETATM   36  C   UNL     1      -9.365   4.065  69.042  1.00  0.00    -0.237 A  
HETATM   37  C   UNL     1      -7.564   6.620  70.816  1.00  0.00    -0.092 A  
HETATM   38  C   UNL     1      -9.502   3.906  67.668  1.00  0.00    -0.233 A  
HETATM   39  N   UNL     1      -8.357   5.519  70.786  1.00  0.00    -0.119 NA 
HETATM   40  C   UNL     1      -8.900   4.810  66.795  1.00  0.00    -0.110 A  
HETATM   41  C   UNL     1      -8.125   5.890  67.271  1.00  0.00    -0.102 A  
HETATM   42  C   UNL     1      -7.953   6.079  68.659  1.00  0.00    -0.104 A  
ENDBRANCH  32  33
ENDBRANCH  27  32
ENDBRANCH  24  27
ENDBRANCH  11  23
ENDBRANCH   7  11
TORSDOF 8
ENDMDL
MODEL      215
REMARK 921   NORMALIZED FREE ENERGY PREDICTED BY IDOCK:   -5.96 KCAL/MOL
REMARK 922        TOTAL FREE ENERGY PREDICTED BY IDOCK:  -10.89 KCAL/MOL
REMARK 923 INTER-LIGAND FREE ENERGY PREDICTED BY IDOCK:   -8.78 KCAL/MOL
REMARK 924 INTRA-LIGAND FREE ENERGY PREDICTED BY IDOCK:   -2.12 KCAL/MOL
REMARK 927      BINDING AFFINITY PREDICTED BY RF-SCORE:    0.00 PKD
ROOT
HETATM    1  C   UNL     1      -7.321   8.139  70.810  1.00  0.00    -0.058 C  
HETATM    2  C   UNL     1      -6.928   9.154  69.720  1.00  0.00    -0.056 C  
HETATM    3  C   UNL     1      -8.245   9.933  69.040  1.00  0.00    -0.124 C  
HETATM    4  N   UNL     1      -6.210   8.401  68.651  1.00  0.00    -0.045 NA 
HETATM    5  C   UNL     1      -5.874  10.076  70.393  1.00  0.00    -0.071 C  
HETATM    6  H2  UNL     1      -6.748   7.613  68.288  1.00  0.00     0.000 HD 
HETATM    7  N   UNL     1      -8.861   9.322  67.942  1.00  0.00    -0.124 N  
HETATM    8  H1  UNL     1      -5.951   9.073  67.929  1.00  0.00     0.000 HD 
HETATM    9  O   UNL     1      -8.682  10.982  69.511  1.00  0.00     0.100 OA 
HETATM   10  H   UNL     1      -8.317   8.543  67.570  1.00  0.00     0.000 HD 
ENDROOT
BRANCH   7  11
HETATM   11  C   UNL     1     -10.195   9.558  67.151  1.00  0.00    -0.242 C  
BRANCH  11  12
HETATM   12  C   UNL     1     -10.302  10.331  65.755  1.00  0.00    -0.236 C  
BRANCH  12  13
HETATM   13  C   UNL     1     -10.628  11.901  65.720  1.00  0.00    -0.309 A  
HETATM   14  C   UNL     1     -11.732  12.543  65.191  1.00  0.00    -0.378 A  
HETATM   15  C   UNL     1      -8.002  14.340  67.289  1.00  0.00    -0.191 A  
HETATM   16  C   UNL     1      -8.505  15.512  66.731  1.00  0.00    -0.314 A  
HETATM   17  C   UNL     1      -9.688  15.475  65.993  1.00  0.00    -0.378 A  
HETATM   18  N   UNL     1     -11.534  13.923  65.219  1.00  0.00    -0.307 NA 
HETATM   19  C   UNL     1      -8.629  13.098  67.055  1.00  0.00    -0.168 A  
HETATM   20  C   UNL     1      -9.797  13.009  66.252  1.00  0.00    -0.278 A  
HETATM   21  C   UNL     1     -10.326  14.220  65.803  1.00  0.00    -0.327 A  
HETATM   22  H   UNL     1     -12.192  14.613  64.858  1.00  0.00     0.000 HD 
ENDBRANCH  12  13
ENDBRANCH  11  12
BRANCH  11  23
HETATM   23  C   UNL     1     -11.270   9.971  68.192  1.00  0.00    -0.127 C  
HETATM   24  N   UNL     1     -11.317   9.255  69.373  1.00  0.00    -0.436 N  
HETATM   25  H   UNL     1     -10.579   8.585  69.588  1.00  0.00     0.000 HD 
HETATM   26  O   UNL     1     -12.095  10.849  67.921  1.00  0.00    -0.527 OA 
BRANCH  24  27
HETATM   27  C   UNL     1     -12.405   9.449  70.303  1.00  0.00     0.299 C  
BRANCH  27  28
HETATM   28  N   UNL     1     -12.858   8.160  70.758  1.00  0.00    -0.416 N  
HETATM   29  O   UNL     1     -10.782   7.429  71.465  1.00  0.00    -0.221 OA 
HETATM   30  C   UNL     1     -11.981   7.254  71.311  1.00  0.00    -0.324 C  
HETATM   31  H   UNL     1     -13.843   7.914  70.669  1.00  0.00     0.000 HD 
ENDBRANCH  27  28
BRANCH  27  32
HETATM   32  C   UNL     1     -12.237  10.509  71.412  1.00  0.00    -0.429 C  
BRANCH  32  33
HETATM   33  C   UNL     1     -12.621  11.979  71.393  1.00  0.00    -0.330 A  
HETATM   34  C   UNL     1     -13.047  14.234  71.185  1.00  0.00    -0.343 A  
HETATM   35  H   UNL     1     -14.482  14.253  72.742  1.00  0.00     0.000 HD 
HETATM   36  C   UNL     1     -13.002  15.561  70.730  1.00  0.00    -0.490 A  
HETATM   37  C   UNL     1     -13.583  12.387  72.314  1.00  0.00    -0.269 A  
HETATM   38  C   UNL     1     -12.102  15.864  69.715  1.00  0.00    -0.231 A  
HETATM   39  N   UNL     1     -13.820  13.718  72.179  1.00  0.00    -0.515 NA 
HETATM   40  C   UNL     1     -11.279  14.869  69.189  1.00  0.00    -0.293 A  
HETATM   41  C   UNL     1     -11.347  13.537  69.650  1.00  0.00    -0.219 A  
HETATM   42  C   UNL     1     -12.255  13.187  70.673  1.00  0.00    -0.402 A  
ENDBRANCH  32  33
ENDBRANCH  27  32
ENDBRANCH  24  27
ENDBRANCH  11  23
ENDBRANCH   7  11
TORSDOF 8
ENDMDL
MODEL      216
REMARK 921   NORMALIZED FREE ENERGY PREDICTED BY IDOCK:   -5.95 KCAL/MOL
REMARK 922        TOTAL FREE ENERGY PREDICTED BY IDOCK:  -10.88 KCAL/MOL
REMARK 923 INTER-LIGAND FREE ENERGY PREDICTED BY IDOCK:   -9.12 KCAL/MOL
REMARK 924 INTRA-LIGAND FREE ENERGY PREDICTED BY IDOCK:   -1.76 KCAL/MOL
REMARK 927      BINDING AFFINITY PREDICTED BY RF-SCORE:    0.00 PKD
ROOT
HETATM    1  C   UNL     1     -11.304   7.809  70.505  1.00  0.00    -0.253 C  
HETATM    2  C   UNL     1     -11.243   9.267  71.001  1.00  0.00    -0.321 C  
HETATM    3  C   UNL     1     -11.765  10.374  69.859  1.00  0.00    -0.264 C  
HETATM    4  N   UNL     1      -9.820   9.560  71.339  1.00  0.00    -0.241 NA 
HETATM    5  C   UNL     1     -12.024   9.265  72.344  1.00  0.00    -0.062 C  
HETATM    6  H2  UNL     1      -9.180   9.374  70.567  1.00  0.00     0.000 HD 
HETATM    7  N   UNL     1     -10.815  10.870  68.959  1.00  0.00    -0.214 N  
HETATM    8  H1  UNL     1      -9.780  10.525  71.668  1.00  0.00     0.000 HD 
HETATM    9  O   UNL     1     -12.947  10.709  69.785  1.00  0.00    -0.138 OA 
HETATM   10  H   UNL     1      -9.861  10.623  69.219  1.00  0.00     0.000 HD 
ENDROOT
BRANCH   7  11
HETATM   11  C   UNL     1     -10.881  11.719  67.640  1.00  0.00    -0.217 C  
BRANCH  11  12
HETATM   12  C   UNL     1     -10.277  11.261  66.232  1.00  0.00    -0.280 C  
BRANCH  12  13
HETATM   13  C   UNL     1      -9.338   9.964  66.137  1.00  0.00    -0.232 A  
HETATM   14  C   UNL     1      -8.005   9.886  65.779  1.00  0.00    -0.120 A  
HETATM   15  C   UNL     1     -10.939   6.494  66.978  1.00  0.00    -0.466 A  
HETATM   16  C   UNL     1      -9.928   5.706  66.435  1.00  0.00    -0.189 A  
HETATM   17  C   UNL     1      -8.770   6.306  65.942  1.00  0.00    -0.154 A  
HETATM   18  N   UNL     1      -7.626   8.549  65.660  1.00  0.00    -0.087 NA 
HETATM   19  C   UNL     1     -10.845   7.902  66.966  1.00  0.00    -0.148 A  
HETATM   20  C   UNL     1      -9.713   8.555  66.410  1.00  0.00    -0.328 A  
HETATM   21  C   UNL     1      -8.678   7.724  65.977  1.00  0.00    -0.161 A  
HETATM   22  H   UNL     1      -6.700   8.229  65.378  1.00  0.00     0.000 HD 
ENDBRANCH  12  13
ENDBRANCH  11  12
BRANCH  11  23
HETATM   23  C   UNL     1     -10.553  13.185  68.030  1.00  0.00    -0.236 C  
HETATM   24  N   UNL     1     -11.586  14.100  67.979  1.00  0.00    -0.315 N  
HETATM   25  H   UNL     1     -12.542  13.777  67.829  1.00  0.00     0.000 HD 
HETATM   26  O   UNL     1      -9.392  13.515  68.286  1.00  0.00    -0.204 OA 
BRANCH  24  27
HETATM   27  C   UNL     1     -11.321  15.511  68.138  1.00  0.00    -0.345 C  
BRANCH  27  28
HETATM   28  N   UNL     1     -10.761  15.731  69.446  1.00  0.00    -0.243 N  
HETATM   29  O   UNL     1     -12.770  15.586  70.579  1.00  0.00    -0.434 OA 
HETATM   30  C   UNL     1     -11.559  15.745  70.568  1.00  0.00    -0.375 C  
HETATM   31  H   UNL     1      -9.757  15.879  69.544  1.00  0.00     0.000 HD 
ENDBRANCH  27  28
BRANCH  27  32
HETATM   32  C   UNL     1     -10.603  16.252  66.990  1.00  0.00    -0.284 C  
BRANCH  32  33
HETATM   33  C   UNL     1      -9.918  17.609  67.012  1.00  0.00    -0.320 A  
HETATM   34  C   UNL     1      -8.703  19.561  67.169  1.00  0.00    -0.301 A  
HETATM   35  H   UNL     1     -10.124  20.701  66.091  1.00  0.00     0.000 HD 
HETATM   36  C   UNL     1      -7.683  20.472  67.483  1.00  0.00    -0.336 A  
HETATM   37  C   UNL     1     -10.578  18.655  66.372  1.00  0.00    -0.349 A  
HETATM   38  C   UNL     1      -6.612  20.007  68.236  1.00  0.00    -0.322 A  
HETATM   39  N   UNL     1      -9.851  19.797  66.476  1.00  0.00    -0.401 NA 
HETATM   40  C   UNL     1      -6.577  18.679  68.659  1.00  0.00    -0.273 A  
HETATM   41  C   UNL     1      -7.606  17.772  68.323  1.00  0.00    -0.256 A  
HETATM   42  C   UNL     1      -8.707  18.205  67.551  1.00  0.00    -0.249 A  
ENDBRANCH  32  33
ENDBRANCH  27  32
ENDBRANCH  24  27
ENDBRANCH  11  23
ENDBRANCH   7  11
TORSDOF 8
ENDMDL
MODEL      217
REMARK 921   NORMALIZED FREE ENERGY PREDICTED BY IDOCK:   -5.94 KCAL/MOL
REMARK 922        TOTAL FREE ENERGY PREDICTED BY IDOCK:  -10.86 KCAL/MOL
REMARK 923 INTER-LIGAND FREE ENERGY PREDICTED BY IDOCK:   -8.45 KCAL/MOL
REMARK 924 INTRA-LIGAND FREE ENERGY PREDICTED BY IDOCK:   -2.41 KCAL/MOL
REMARK 927      BINDING AFFINITY PREDICTED BY RF-SCORE:    0.00 PKD
ROOT
HETATM    1  C   UNL     1      -8.707  17.332  66.373  1.00  0.00    -0.285 C  
HETATM    2  C   UNL     1      -9.296  16.887  67.725  1.00  0.00    -0.235 C  
HETATM    3  C   UNL     1      -9.288  15.226  67.933  1.00  0.00    -0.189 C  
HETATM    4  N   UNL     1     -10.706  17.372  67.775  1.00  0.00    -0.365 NA 
HETATM    5  C   UNL     1      -8.511  17.702  68.791  1.00  0.00    -0.213 C  
HETATM    6  H2  UNL     1     -11.262  17.064  66.977  1.00  0.00     0.000 HD 
HETATM    7  N   UNL     1     -10.396  14.511  67.463  1.00  0.00    -0.243 N  
HETATM    8  H1  UNL     1     -11.095  17.077  68.671  1.00  0.00     0.000 HD 
HETATM    9  O   UNL     1      -8.328  14.648  68.441  1.00  0.00    -0.143 OA 
HETATM   10  H   UNL     1     -11.171  15.119  67.198  1.00  0.00     0.000 HD 
ENDROOT
BRANCH   7  11
HETATM   11  C   UNL     1     -10.720  12.991  67.250  1.00  0.00    -0.250 C  
BRANCH  11  12
HETATM   12  C   UNL     1     -11.575  12.404  66.032  1.00  0.00    -0.455 C  
BRANCH  12  13
HETATM   13  C   UNL     1     -10.840  11.710  64.787  1.00  0.00    -0.367 A  
HETATM   14  C   UNL     1     -11.104  11.854  63.438  1.00  0.00    -0.383 A  
HETATM   15  C   UNL     1      -7.911   9.232  65.554  1.00  0.00    -0.104 A  
HETATM   16  C   UNL     1      -7.849   8.649  64.291  1.00  0.00    -0.140 A  
HETATM   17  C   UNL     1      -8.648   9.140  63.260  1.00  0.00    -0.182 A  
HETATM   18  N   UNL     1     -10.344  10.939  62.708  1.00  0.00    -0.783 NA 
HETATM   19  C   UNL     1      -8.831  10.265  65.829  1.00  0.00    -0.179 A  
HETATM   20  C   UNL     1      -9.711  10.748  64.825  1.00  0.00    -0.338 A  
HETATM   21  C   UNL     1      -9.538  10.210  63.549  1.00  0.00    -0.191 A  
HETATM   22  H   UNL     1     -10.382  10.828  61.695  1.00  0.00     0.000 HD 
ENDBRANCH  12  13
ENDBRANCH  11  12
BRANCH  11  23
HETATM   23  C   UNL     1     -11.104  12.411  68.638  1.00  0.00    -0.257 C  
HETATM   24  N   UNL     1     -10.684  11.128  68.927  1.00  0.00    -0.197 N  
HETATM   25  H   UNL     1     -10.033  10.655  68.301  1.00  0.00     0.000 HD 
HETATM   26  O   UNL     1     -11.829  13.056  69.402  1.00  0.00    -0.306 OA 
BRANCH  24  27
HETATM   27  C   UNL     1     -11.163  10.451  70.110  1.00  0.00    -0.321 C  
BRANCH  27  28
HETATM   28  N   UNL     1     -12.546  10.100  69.913  1.00  0.00    -0.519 N  
HETATM   29  O   UNL     1     -13.084  10.030  72.159  1.00  0.00    -0.433 OA 
HETATM   30  C   UNL     1     -13.394   9.921  70.982  1.00  0.00    -0.256 C  
HETATM   31  H   UNL     1     -12.902   9.981  68.965  1.00  0.00     0.000 HD 
ENDBRANCH  27  28
BRANCH  27  32
HETATM   32  C   UNL     1     -10.287   9.333  70.716  1.00  0.00    -0.348 C  
BRANCH  32  33
HETATM   33  C   UNL     1      -8.971   8.770  70.205  1.00  0.00    -0.174 A  
HETATM   34  C   UNL     1      -6.918   8.141  69.371  1.00  0.00    -0.051 A  
HETATM   35  H   UNL     1      -7.209   6.090  69.805  1.00  0.00     0.000 HD 
HETATM   36  C   UNL     1      -5.640   8.202  68.793  1.00  0.00    -0.035 A  
HETATM   37  C   UNL     1      -8.788   7.396  70.329  1.00  0.00    -0.147 A  
HETATM   38  C   UNL     1      -5.185   9.444  68.364  1.00  0.00    -0.034 A  
HETATM   39  N   UNL     1      -7.575   7.042  69.831  1.00  0.00    -0.100 NA 
HETATM   40  C   UNL     1      -5.991  10.572  68.507  1.00  0.00    -0.043 A  
HETATM   41  C   UNL     1      -7.269  10.494  69.102  1.00  0.00    -0.099 A  
HETATM   42  C   UNL     1      -7.762   9.253  69.560  1.00  0.00    -0.084 A  
ENDBRANCH  32  33
ENDBRANCH  27  32
ENDBRANCH  24  27
ENDBRANCH  11  23
ENDBRANCH   7  11
TORSDOF 8
ENDMDL
MODEL      218
REMARK 921   NORMALIZED FREE ENERGY PREDICTED BY IDOCK:   -5.93 KCAL/MOL
REMARK 922        TOTAL FREE ENERGY PREDICTED BY IDOCK:  -10.85 KCAL/MOL
REMARK 923 INTER-LIGAND FREE ENERGY PREDICTED BY IDOCK:   -8.45 KCAL/MOL
REMARK 924 INTRA-LIGAND FREE ENERGY PREDICTED BY IDOCK:   -2.40 KCAL/MOL
REMARK 927      BINDING AFFINITY PREDICTED BY RF-SCORE:    0.00 PKD
ROOT
HETATM    1  C   UNL     1      -7.111   8.452  63.448  1.00  0.00    -0.090 C  
HETATM    2  C   UNL     1      -7.277   9.679  64.366  1.00  0.00    -0.122 C  
HETATM    3  C   UNL     1      -7.915   9.298  65.866  1.00  0.00    -0.106 C  
HETATM    4  N   UNL     1      -8.201  10.626  63.677  1.00  0.00    -0.343 NA 
HETATM    5  C   UNL     1      -5.880  10.359  64.381  1.00  0.00    -0.123 C  
HETATM    6  H2  UNL     1      -9.090  10.198  63.417  1.00  0.00     0.000 HD 
HETATM    7  N   UNL     1      -9.309   9.289  65.991  1.00  0.00    -0.204 N  
HETATM    8  H1  UNL     1      -8.310  11.438  64.284  1.00  0.00     0.000 HD 
HETATM    9  O   UNL     1      -7.190   8.997  66.813  1.00  0.00    -0.084 OA 
HETATM   10  H   UNL     1      -9.779   9.691  65.181  1.00  0.00     0.000 HD 
ENDROOT
BRANCH   7  11
HETATM   11  C   UNL     1     -10.316   8.801  67.092  1.00  0.00    -0.293 C  
BRANCH  11  12
HETATM   12  C   UNL     1     -10.403   9.396  68.574  1.00  0.00    -0.236 C  
BRANCH  12  13
HETATM   13  C   UNL     1     -10.979  10.873  68.821  1.00  0.00    -0.285 A  
HETATM   14  C   UNL     1     -10.779  12.016  68.070  1.00  0.00    -0.212 A  
HETATM   15  C   UNL     1     -13.244  11.440  71.960  1.00  0.00    -0.432 A  
HETATM   16  C   UNL     1     -13.192  12.831  71.957  1.00  0.00    -0.538 A  
HETATM   17  C   UNL     1     -12.545  13.498  70.917  1.00  0.00    -0.414 A  
HETATM   18  N   UNL     1     -11.319  13.117  68.733  1.00  0.00    -0.272 NA 
HETATM   19  C   UNL     1     -12.583  10.688  70.966  1.00  0.00    -0.516 A  
HETATM   20  C   UNL     1     -11.855  11.328  69.928  1.00  0.00    -0.436 A  
HETATM   21  C   UNL     1     -11.921  12.722  69.903  1.00  0.00    -0.298 A  
HETATM   22  H   UNL     1     -11.274  14.079  68.397  1.00  0.00     0.000 HD 
ENDBRANCH  12  13
ENDBRANCH  11  12
BRANCH  11  23
HETATM   23  C   UNL     1     -10.343   7.250  67.024  1.00  0.00    -0.306 C  
HETATM   24  N   UNL     1      -9.163   6.584  67.292  1.00  0.00    -0.119 N  
HETATM   25  H   UNL     1      -8.361   7.099  67.655  1.00  0.00     0.000 HD 
HETATM   26  O   UNL     1     -11.364   6.661  66.659  1.00  0.00    -0.150 OA 
BRANCH  24  27
HETATM   27  C   UNL     1      -9.058   5.161  67.061  1.00  0.00    -0.112 C  
BRANCH  27  28
HETATM   28  N   UNL     1      -7.817   4.895  66.382  1.00  0.00    -0.098 N  
HETATM   29  O   UNL     1      -6.473   5.922  67.956  1.00  0.00    -0.039 OA 
HETATM   30  C   UNL     1      -6.615   5.309  66.909  1.00  0.00    -0.053 C  
HETATM   31  H   UNL     1      -7.829   4.391  65.495  1.00  0.00     0.000 HD 
ENDBRANCH  27  28
BRANCH  27  32
HETATM   32  C   UNL     1      -9.378   4.207  68.232  1.00  0.00    -0.214 C  
BRANCH  32  33
HETATM   33  C   UNL     1      -9.647   4.542  69.690  1.00  0.00    -0.270 A  
HETATM   34  C   UNL     1     -10.225   5.200  71.821  1.00  0.00    -0.209 A  
HETATM   35  H   UNL     1      -8.789   3.953  72.750  1.00  0.00     0.000 HD 
HETATM   36  C   UNL     1     -10.874   5.846  72.885  1.00  0.00    -0.293 A  
HETATM   37  C   UNL     1      -8.866   3.886  70.638  1.00  0.00    -0.081 A  
HETATM   38  C   UNL     1     -11.860   6.774  72.571  1.00  0.00    -0.145 A  
HETATM   39  N   UNL     1      -9.218   4.287  71.887  1.00  0.00    -0.122 NA 
HETATM   40  C   UNL     1     -12.172   7.040  71.238  1.00  0.00    -0.419 A  
HETATM   41  C   UNL     1     -11.518   6.372  70.181  1.00  0.00    -0.484 A  
HETATM   42  C   UNL     1     -10.517   5.416  70.459  1.00  0.00    -0.335 A  
ENDBRANCH  32  33
ENDBRANCH  27  32
ENDBRANCH  24  27
ENDBRANCH  11  23
ENDBRANCH   7  11
TORSDOF 8
ENDMDL
MODEL      219
REMARK 921   NORMALIZED FREE ENERGY PREDICTED BY IDOCK:   -5.93 KCAL/MOL
REMARK 922        TOTAL FREE ENERGY PREDICTED BY IDOCK:  -10.84 KCAL/MOL
REMARK 923 INTER-LIGAND FREE ENERGY PREDICTED BY IDOCK:   -9.54 KCAL/MOL
REMARK 924 INTRA-LIGAND FREE ENERGY PREDICTED BY IDOCK:   -1.31 KCAL/MOL
REMARK 927      BINDING AFFINITY PREDICTED BY RF-SCORE:    0.00 PKD
ROOT
HETATM    1  C   UNL     1     -14.098  15.009  70.883  1.00  0.00    -0.163 C  
HETATM    2  C   UNL     1     -12.778  14.618  71.577  1.00  0.00    -0.338 C  
HETATM    3  C   UNL     1     -11.427  15.281  70.845  1.00  0.00    -0.339 C  
HETATM    4  N   UNL     1     -12.674  13.131  71.523  1.00  0.00    -0.313 NA 
HETATM    5  C   UNL     1     -12.986  14.991  73.071  1.00  0.00    -0.590 C  
HETATM    6  H2  UNL     1     -12.752  12.760  70.576  1.00  0.00     0.000 HD 
HETATM    7  N   UNL     1     -10.838  14.559  69.801  1.00  0.00    -0.427 N  
HETATM    8  H1  UNL     1     -11.800  12.872  71.983  1.00  0.00     0.000 HD 
HETATM    9  O   UNL     1     -10.990  16.381  71.182  1.00  0.00    -0.034 OA 
HETATM   10  H   UNL     1     -11.207  13.612  69.722  1.00  0.00     0.000 HD 
ENDROOT
BRANCH   7  11
HETATM   11  C   UNL     1      -9.740  14.871  68.724  1.00  0.00    -0.225 C  
BRANCH  11  12
HETATM   12  C   UNL     1      -9.113  16.318  68.456  1.00  0.00    -0.216 C  
BRANCH  12  13
HETATM   13  C   UNL     1      -7.737  16.467  67.646  1.00  0.00    -0.167 A  
HETATM   14  C   UNL     1      -6.681  15.580  67.564  1.00  0.00    -0.190 A  
HETATM   15  C   UNL     1      -7.172  19.762  65.612  1.00  0.00    -0.322 A  
HETATM   16  C   UNL     1      -5.804  19.602  65.409  1.00  0.00    -0.219 A  
HETATM   17  C   UNL     1      -5.174  18.431  65.825  1.00  0.00    -0.202 A  
HETATM   18  N   UNL     1      -5.613  16.176  66.895  1.00  0.00    -0.312 NA 
HETATM   19  C   UNL     1      -7.920  18.787  66.306  1.00  0.00    -0.285 A  
HETATM   20  C   UNL     1      -7.302  17.611  66.806  1.00  0.00    -0.245 A  
HETATM   21  C   UNL     1      -5.954  17.443  66.485  1.00  0.00    -0.210 A  
HETATM   22  H   UNL     1      -4.708  15.736  66.733  1.00  0.00     0.000 HD 
ENDBRANCH  12  13
ENDBRANCH  11  12
BRANCH  11  23
HETATM   23  C   UNL     1     -10.136  14.099  67.437  1.00  0.00    -0.240 C  
HETATM   24  N   UNL     1     -11.385  13.508  67.412  1.00  0.00    -0.298 N  
HETATM   25  H   UNL     1     -12.053  13.704  68.157  1.00  0.00     0.000 HD 
HETATM   26  O   UNL     1      -9.322  13.958  66.521  1.00  0.00    -0.277 OA 
BRANCH  24  27
HETATM   27  C   UNL     1     -11.749  12.615  66.337  1.00  0.00    -0.405 C  
BRANCH  27  28
HETATM   28  N   UNL     1     -11.639  13.327  65.089  1.00  0.00    -0.301 N  
HETATM   29  O   UNL     1     -13.486  12.344  64.106  1.00  0.00    -0.472 OA 
HETATM   30  C   UNL     1     -12.542  13.119  64.071  1.00  0.00    -0.169 C  
HETATM   31  H   UNL     1     -10.880  13.995  64.958  1.00  0.00     0.000 HD 
ENDBRANCH  27  28
BRANCH  27  32
HETATM   32  C   UNL     1     -11.145  11.195  66.331  1.00  0.00    -0.204 C  
BRANCH  32  33
HETATM   33  C   UNL     1     -10.401  10.471  67.441  1.00  0.00    -0.269 A  
HETATM   34  C   UNL     1      -9.460   9.425  69.266  1.00  0.00    -0.164 A  
HETATM   35  H   UNL     1      -7.712   8.854  68.217  1.00  0.00     0.000 HD 
HETATM   36  C   UNL     1      -9.275   8.921  70.563  1.00  0.00    -0.239 A  
HETATM   37  C   UNL     1      -9.159   9.931  67.116  1.00  0.00    -0.138 A  
HETATM   38  C   UNL     1     -10.265   9.181  71.503  1.00  0.00    -0.403 A  
HETATM   39  N   UNL     1      -8.618   9.321  68.202  1.00  0.00    -0.124 NA 
HETATM   40  C   UNL     1     -11.390   9.924  71.148  1.00  0.00    -0.443 A  
HETATM   41  C   UNL     1     -11.565  10.412  69.835  1.00  0.00    -0.358 A  
HETATM   42  C   UNL     1     -10.586  10.161  68.849  1.00  0.00    -0.237 A  
ENDBRANCH  32  33
ENDBRANCH  27  32
ENDBRANCH  24  27
ENDBRANCH  11  23
ENDBRANCH   7  11
TORSDOF 8
ENDMDL
MODEL      220
REMARK 921   NORMALIZED FREE ENERGY PREDICTED BY IDOCK:   -5.92 KCAL/MOL
REMARK 922        TOTAL FREE ENERGY PREDICTED BY IDOCK:  -10.84 KCAL/MOL
REMARK 923 INTER-LIGAND FREE ENERGY PREDICTED BY IDOCK:   -8.16 KCAL/MOL
REMARK 924 INTRA-LIGAND FREE ENERGY PREDICTED BY IDOCK:   -2.67 KCAL/MOL
REMARK 927      BINDING AFFINITY PREDICTED BY RF-SCORE:    0.00 PKD
ROOT
HETATM    1  C   UNL     1      -8.732  14.775  68.029  1.00  0.00    -0.168 C  
HETATM    2  C   UNL     1      -9.956  14.310  67.217  1.00  0.00    -0.252 C  
HETATM    3  C   UNL     1     -10.994  13.330  68.091  1.00  0.00    -0.255 C  
HETATM    4  N   UNL     1      -9.444  13.542  66.045  1.00  0.00    -0.488 NA 
HETATM    5  C   UNL     1     -10.580  15.615  66.650  1.00  0.00    -0.307 C  
HETATM    6  H2  UNL     1      -8.825  12.775  66.309  1.00  0.00     0.000 HD 
HETATM    7  N   UNL     1     -10.741  11.954  68.086  1.00  0.00    -0.205 N  
HETATM    8  H1  UNL     1     -10.254  13.235  65.507  1.00  0.00     0.000 HD 
HETATM    9  O   UNL     1     -11.920  13.803  68.749  1.00  0.00    -0.346 OA 
HETATM   10  H   UNL     1     -10.040  11.686  67.395  1.00  0.00     0.000 HD 
ENDROOT
BRANCH   7  11
HETATM   11  C   UNL     1     -11.287  10.727  68.899  1.00  0.00    -0.284 C  
BRANCH  11  12
HETATM   12  C   UNL     1     -11.668  10.761  70.452  1.00  0.00    -0.445 C  
BRANCH  12  13
HETATM   13  C   UNL     1     -11.704   9.405  71.307  1.00  0.00    -0.432 A  
HETATM   14  C   UNL     1     -12.780   8.581  71.577  1.00  0.00    -0.313 A  
HETATM   15  C   UNL     1      -8.354   8.182  72.918  1.00  0.00    -0.248 A  
HETATM   16  C   UNL     1      -8.916   7.258  73.794  1.00  0.00    -0.251 A  
HETATM   17  C   UNL     1     -10.286   7.003  73.748  1.00  0.00    -0.401 A  
HETATM   18  N   UNL     1     -12.407   7.603  72.499  1.00  0.00    -0.547 NA 
HETATM   19  C   UNL     1      -9.163   8.926  72.033  1.00  0.00    -0.187 A  
HETATM   20  C   UNL     1     -10.572   8.745  72.002  1.00  0.00    -0.414 A  
HETATM   21  C   UNL     1     -11.077   7.733  72.820  1.00  0.00    -0.398 A  
HETATM   22  H   UNL     1     -13.032   6.894  72.881  1.00  0.00     0.000 HD 
ENDBRANCH  12  13
ENDBRANCH  11  12
BRANCH  11  23
HETATM   23  C   UNL     1     -10.446   9.493  68.474  1.00  0.00    -0.217 C  
HETATM   24  N   UNL     1      -9.072   9.630  68.481  1.00  0.00    -0.130 N  
HETATM   25  H   UNL     1      -8.648  10.465  68.885  1.00  0.00     0.000 HD 
HETATM   26  O   UNL     1     -11.005   8.470  68.069  1.00  0.00    -0.024 OA 
BRANCH  24  27
HETATM   27  C   UNL     1      -8.232   8.599  67.917  1.00  0.00    -0.115 C  
BRANCH  27  28
HETATM   28  N   UNL     1      -7.158   9.225  67.190  1.00  0.00    -0.085 N  
HETATM   29  O   UNL     1      -8.509  10.672  65.996  1.00  0.00    -0.153 OA 
HETATM   30  C   UNL     1      -7.406  10.228  66.279  1.00  0.00    -0.118 C  
HETATM   31  H   UNL     1      -6.198   8.921  67.351  1.00  0.00     0.000 HD 
ENDBRANCH  27  28
BRANCH  27  32
HETATM   32  C   UNL     1      -7.805   7.428  68.827  1.00  0.00    -0.121 C  
BRANCH  32  33
HETATM   33  C   UNL     1      -8.402   6.034  68.932  1.00  0.00    -0.107 A  
HETATM   34  C   UNL     1      -9.185   3.867  68.891  1.00  0.00    -0.152 A  
HETATM   35  H   UNL     1     -10.355   4.106  70.639  1.00  0.00     0.000 HD 
HETATM   36  C   UNL     1      -9.396   2.535  68.504  1.00  0.00    -0.254 A  
HETATM   37  C   UNL     1      -9.258   5.798  70.004  1.00  0.00    -0.146 A  
HETATM   38  C   UNL     1      -8.773   2.095  67.342  1.00  0.00    -0.138 A  
HETATM   39  N   UNL     1      -9.712   4.519  69.964  1.00  0.00    -0.197 NA 
HETATM   40  C   UNL     1      -7.975   2.967  66.602  1.00  0.00    -0.077 A  
HETATM   41  C   UNL     1      -7.764   4.301  67.014  1.00  0.00    -0.092 A  
HETATM   42  C   UNL     1      -8.373   4.782  68.193  1.00  0.00    -0.098 A  
ENDBRANCH  32  33
ENDBRANCH  27  32
ENDBRANCH  24  27
ENDBRANCH  11  23
ENDBRANCH   7  11
TORSDOF 8
ENDMDL
MODEL      221
REMARK 921   NORMALIZED FREE ENERGY PREDICTED BY IDOCK:   -5.91 KCAL/MOL
REMARK 922        TOTAL FREE ENERGY PREDICTED BY IDOCK:  -10.82 KCAL/MOL
REMARK 923 INTER-LIGAND FREE ENERGY PREDICTED BY IDOCK:   -8.50 KCAL/MOL
REMARK 924 INTRA-LIGAND FREE ENERGY PREDICTED BY IDOCK:   -2.31 KCAL/MOL
REMARK 927      BINDING AFFINITY PREDICTED BY RF-SCORE:    0.00 PKD
ROOT
HETATM    1  C   UNL     1     -10.859  15.826  67.382  1.00  0.00    -0.306 C  
HETATM    2  C   UNL     1     -10.489  14.959  66.162  1.00  0.00    -0.306 C  
HETATM    3  C   UNL     1     -11.069  13.392  66.267  1.00  0.00    -0.293 C  
HETATM    4  N   UNL     1      -9.000  14.916  66.086  1.00  0.00    -0.489 NA 
HETATM    5  C   UNL     1     -10.970  15.774  64.930  1.00  0.00    -0.443 C  
HETATM    6  H2  UNL     1      -8.565  14.594  66.951  1.00  0.00     0.000 HD 
HETATM    7  N   UNL     1     -10.263  12.446  66.910  1.00  0.00    -0.223 N  
HETATM    8  H1  UNL     1      -8.755  14.342  65.279  1.00  0.00     0.000 HD 
HETATM    9  O   UNL     1     -12.180  13.090  65.833  1.00  0.00    -0.439 OA 
HETATM   10  H   UNL     1      -9.321  12.792  67.092  1.00  0.00     0.000 HD 
ENDROOT
BRANCH   7  11
HETATM   11  C   UNL     1     -10.475  10.976  67.416  1.00  0.00    -0.218 C  
BRANCH  11  12
HETATM   12  C   UNL     1     -11.768  10.462  68.205  1.00  0.00     0.047 C  
BRANCH  12  13
HETATM   13  C   UNL     1     -12.038  10.937  69.713  1.00  0.00    -0.409 A  
HETATM   14  C   UNL     1     -12.133  10.169  70.858  1.00  0.00    -0.356 A  
HETATM   15  C   UNL     1     -12.540  14.765  70.352  1.00  0.00    -0.399 A  
HETATM   16  C   UNL     1     -13.073  14.654  71.633  1.00  0.00    -0.423 A  
HETATM   17  C   UNL     1     -13.140  13.405  72.250  1.00  0.00    -0.484 A  
HETATM   18  N   UNL     1     -12.548  10.963  71.927  1.00  0.00    -0.234 NA 
HETATM   19  C   UNL     1     -12.136  13.620  69.633  1.00  0.00    -0.378 A  
HETATM   20  C   UNL     1     -12.252  12.323  70.200  1.00  0.00    -0.302 A  
HETATM   21  C   UNL     1     -12.689  12.270  71.524  1.00  0.00    -0.233 A  
HETATM   22  H   UNL     1     -12.721  10.623  72.872  1.00  0.00     0.000 HD 
ENDBRANCH  12  13
ENDBRANCH  11  12
BRANCH  11  23
HETATM   23  C   UNL     1      -9.126  10.510  68.028  1.00  0.00    -0.138 C  
HETATM   24  N   UNL     1      -8.695  11.150  69.173  1.00  0.00    -0.378 N  
HETATM   25  H   UNL     1      -9.318  11.796  69.657  1.00  0.00     0.000 HD 
HETATM   26  O   UNL     1      -8.442   9.661  67.449  1.00  0.00    -0.124 OA 
BRANCH  24  27
HETATM   27  C   UNL     1      -7.367  10.909  69.689  1.00  0.00    -0.063 C  
BRANCH  27  28
HETATM   28  N   UNL     1      -6.754  12.176  69.993  1.00  0.00    -0.339 N  
HETATM   29  O   UNL     1      -6.705  12.931  67.809  1.00  0.00    -0.108 OA 
HETATM   30  C   UNL     1      -6.478  13.088  68.999  1.00  0.00    -0.103 C  
HETATM   31  H   UNL     1      -6.520  12.402  70.959  1.00  0.00     0.000 HD 
ENDBRANCH  27  28
BRANCH  27  32
HETATM   32  C   UNL     1      -7.192   9.825  70.774  1.00  0.00    -0.018 C  
BRANCH  32  33
HETATM   33  C   UNL     1      -7.394   8.322  70.662  1.00  0.00    -0.057 A  
HETATM   34  C   UNL     1      -7.932   6.092  70.456  1.00  0.00    -0.111 A  
HETATM   35  H   UNL     1      -5.942   5.436  70.757  1.00  0.00     0.000 HD 
HETATM   36  C   UNL     1      -8.668   4.912  70.264  1.00  0.00    -0.122 A  
HETATM   37  C   UNL     1      -6.261   7.525  70.808  1.00  0.00    -0.035 A  
HETATM   38  C   UNL     1     -10.040   5.031  70.077  1.00  0.00    -0.342 A  
HETATM   39  N   UNL     1      -6.597   6.215  70.686  1.00  0.00    -0.047 NA 
HETATM   40  C   UNL     1     -10.642   6.289  70.090  1.00  0.00    -0.306 A  
HETATM   41  C   UNL     1      -9.884   7.466  70.272  1.00  0.00    -0.187 A  
HETATM   42  C   UNL     1      -8.487   7.387  70.456  1.00  0.00    -0.137 A  
ENDBRANCH  32  33
ENDBRANCH  27  32
ENDBRANCH  24  27
ENDBRANCH  11  23
ENDBRANCH   7  11
TORSDOF 8
ENDMDL
MODEL      222
REMARK 921   NORMALIZED FREE ENERGY PREDICTED BY IDOCK:   -5.91 KCAL/MOL
REMARK 922        TOTAL FREE ENERGY PREDICTED BY IDOCK:  -10.82 KCAL/MOL
REMARK 923 INTER-LIGAND FREE ENERGY PREDICTED BY IDOCK:   -8.38 KCAL/MOL
REMARK 924 INTRA-LIGAND FREE ENERGY PREDICTED BY IDOCK:   -2.43 KCAL/MOL
REMARK 927      BINDING AFFINITY PREDICTED BY RF-SCORE:    0.00 PKD
ROOT
HETATM    1  C   UNL     1     -11.984  14.076  67.073  1.00  0.00    -0.472 C  
HETATM    2  C   UNL     1     -11.343  14.258  68.463  1.00  0.00    -0.282 C  
HETATM    3  C   UNL     1      -9.801  13.616  68.567  1.00  0.00    -0.196 C  
HETATM    4  N   UNL     1     -12.221  13.564  69.449  1.00  0.00    -0.278 NA 
HETATM    5  C   UNL     1     -11.461  15.779  68.761  1.00  0.00    -0.391 C  
HETATM    6  H2  UNL     1     -12.391  12.586  69.213  1.00  0.00     0.000 HD 
HETATM    7  N   UNL     1      -9.686  12.269  68.931  1.00  0.00    -0.417 N  
HETATM    8  H1  UNL     1     -11.797  13.686  70.369  1.00  0.00     0.000 HD 
HETATM    9  O   UNL     1      -8.807  14.287  68.293  1.00  0.00    -0.172 OA 
HETATM   10  H   UNL     1     -10.565  11.876  69.264  1.00  0.00     0.000 HD 
ENDROOT
BRANCH   7  11
HETATM   11  C   UNL     1      -8.514  11.225  68.944  1.00  0.00    -0.058 C  
BRANCH  11  12
HETATM   12  C   UNL     1      -7.603  10.863  67.680  1.00  0.00    -0.096 C  
BRANCH  12  13
HETATM   13  C   UNL     1      -8.249  10.158  66.392  1.00  0.00    -0.122 A  
HETATM   14  C   UNL     1      -8.155   8.840  65.990  1.00  0.00    -0.112 A  
HETATM   15  C   UNL     1     -10.373  12.384  63.975  1.00  0.00    -0.435 A  
HETATM   16  C   UNL     1     -10.401  11.493  62.906  1.00  0.00    -0.157 A  
HETATM   17  C   UNL     1      -9.850  10.221  63.050  1.00  0.00    -0.086 A  
HETATM   18  N   UNL     1      -8.721   8.690  64.724  1.00  0.00    -0.377 NA 
HETATM   19  C   UNL     1      -9.724  12.048  65.182  1.00  0.00    -0.163 A  
HETATM   20  C   UNL     1      -9.090  10.787  65.344  1.00  0.00    -0.216 A  
HETATM   21  C   UNL     1      -9.237   9.887  64.288  1.00  0.00    -0.265 A  
HETATM   22  H   UNL     1      -8.749   7.818  64.197  1.00  0.00     0.000 HD 
ENDBRANCH  12  13
ENDBRANCH  11  12
BRANCH  11  23
HETATM   23  C   UNL     1      -9.015   9.993  69.744  1.00  0.00    -0.185 C  
HETATM   24  N   UNL     1     -10.381   9.806  69.829  1.00  0.00    -0.227 N  
HETATM   25  H   UNL     1     -11.007  10.380  69.265  1.00  0.00     0.000 HD 
HETATM   26  O   UNL     1      -8.212   9.273  70.345  1.00  0.00    -0.140 OA 
BRANCH  24  27
HETATM   27  C   UNL     1     -10.928   8.801  70.711  1.00  0.00    -0.247 C  
BRANCH  27  28
HETATM   28  N   UNL     1     -11.719   9.455  71.721  1.00  0.00    -0.385 N  
HETATM   29  O   UNL     1     -12.999  10.686  70.241  1.00  0.00    -0.268 OA 
HETATM   30  C   UNL     1     -12.704  10.354  71.380  1.00  0.00    -0.446 C  
HETATM   31  H   UNL     1     -11.548   9.249  72.705  1.00  0.00     0.000 HD 
ENDBRANCH  27  28
BRANCH  27  32
HETATM   32  C   UNL     1     -11.580   7.553  70.080  1.00  0.00    -0.046 C  
BRANCH  32  33
HETATM   33  C   UNL     1     -10.946   6.486  69.202  1.00  0.00    -0.380 A  
HETATM   34  C   UNL     1      -9.943   4.746  68.073  1.00  0.00    -0.091 A  
HETATM   35  H   UNL     1     -10.209   5.637  66.172  1.00  0.00     0.000 HD 
HETATM   36  C   UNL     1      -9.300   3.526  67.806  1.00  0.00    -0.246 A  
HETATM   37  C   UNL     1     -10.937   6.727  67.831  1.00  0.00    -0.227 A  
HETATM   38  C   UNL     1      -8.957   2.727  68.890  1.00  0.00    -0.179 A  
HETATM   39  N   UNL     1     -10.340   5.694  67.182  1.00  0.00    -0.220 NA 
HETATM   40  C   UNL     1      -9.246   3.146  70.188  1.00  0.00    -0.219 A  
HETATM   41  C   UNL     1      -9.905   4.369  70.438  1.00  0.00    -0.286 A  
HETATM   42  C   UNL     1     -10.278   5.205  69.363  1.00  0.00    -0.293 A  
ENDBRANCH  32  33
ENDBRANCH  27  32
ENDBRANCH  24  27
ENDBRANCH  11  23
ENDBRANCH   7  11
TORSDOF 8
ENDMDL
MODEL      223
REMARK 921   NORMALIZED FREE ENERGY PREDICTED BY IDOCK:   -5.90 KCAL/MOL
REMARK 922        TOTAL FREE ENERGY PREDICTED BY IDOCK:  -10.81 KCAL/MOL
REMARK 923 INTER-LIGAND FREE ENERGY PREDICTED BY IDOCK:   -9.98 KCAL/MOL
REMARK 924 INTRA-LIGAND FREE ENERGY PREDICTED BY IDOCK:   -0.82 KCAL/MOL
REMARK 927      BINDING AFFINITY PREDICTED BY RF-SCORE:    0.00 PKD
ROOT
HETATM    1  C   UNL     1     -11.704  15.718  72.195  1.00  0.00    -0.573 C  
HETATM    2  C   UNL     1     -12.800  15.073  71.325  1.00  0.00    -0.367 C  
HETATM    3  C   UNL     1     -12.457  13.490  70.901  1.00  0.00    -0.369 C  
HETATM    4  N   UNL     1     -12.915  15.889  70.081  1.00  0.00    -0.660 NA 
HETATM    5  C   UNL     1     -14.119  15.287  72.117  1.00  0.00    -0.658 C  
HETATM    6  H2  UNL     1     -12.026  15.996  69.591  1.00  0.00     0.000 HD 
HETATM    7  N   UNL     1     -11.712  13.280  69.735  1.00  0.00    -0.409 N  
HETATM    8  H1  UNL     1     -13.640  15.461  69.505  1.00  0.00     0.000 HD 
HETATM    9  O   UNL     1     -12.810  12.546  71.608  1.00  0.00    -0.341 OA 
HETATM   10  H   UNL     1     -11.610  14.127  69.176  1.00  0.00     0.000 HD 
ENDROOT
BRANCH   7  11
HETATM   11  C   UNL     1     -10.997  12.041  69.089  1.00  0.00    -0.178 C  
BRANCH  11  12
HETATM   12  C   UNL     1     -10.623  11.910  67.540  1.00  0.00    -0.250 C  
BRANCH  12  13
HETATM   13  C   UNL     1     -11.294  12.889  66.460  1.00  0.00    -0.361 A  
HETATM   14  C   UNL     1     -12.188  12.582  65.452  1.00  0.00    -0.412 A  
HETATM   15  C   UNL     1     -10.314  16.675  66.583  1.00  0.00    -0.296 A  
HETATM   16  C   UNL     1     -10.810  17.019  65.329  1.00  0.00    -0.079 A  
HETATM   17  C   UNL     1     -11.509  16.075  64.578  1.00  0.00    -0.274 A  
HETATM   18  N   UNL     1     -12.381  13.697  64.637  1.00  0.00    -0.544 NA 
HETATM   19  C   UNL     1     -10.439  15.359  67.076  1.00  0.00    -0.295 A  
HETATM   20  C   UNL     1     -11.084  14.351  66.313  1.00  0.00    -0.331 A  
HETATM   21  C   UNL     1     -11.660  14.767  65.111  1.00  0.00    -0.358 A  
HETATM   22  H   UNL     1     -12.973  13.716  63.807  1.00  0.00     0.000 HD 
ENDBRANCH  12  13
ENDBRANCH  11  12
BRANCH  11  23
HETATM   23  C   UNL     1     -11.655  10.772  69.696  1.00  0.00    -0.316 C  
HETATM   24  N   UNL     1     -10.945  10.092  70.666  1.00  0.00    -0.343 N  
HETATM   25  H   UNL     1     -10.094  10.502  71.052  1.00  0.00     0.000 HD 
HETATM   26  O   UNL     1     -12.731  10.357  69.255  1.00  0.00    -0.022 OA 
BRANCH  24  27
HETATM   27  C   UNL     1     -11.399   8.804  71.137  1.00  0.00    -0.285 C  
BRANCH  27  28
HETATM   28  N   UNL     1     -11.453   7.897  70.019  1.00  0.00    -0.471 N  
HETATM   29  O   UNL     1     -11.988   6.029  71.270  1.00  0.00    -0.103 OA 
HETATM   30  C   UNL     1     -11.752   6.566  70.198  1.00  0.00    -0.353 C  
HETATM   31  H   UNL     1     -11.266   8.248  69.080  1.00  0.00     0.000 HD 
ENDBRANCH  27  28
BRANCH  27  32
HETATM   32  C   UNL     1     -10.754   8.225  72.415  1.00  0.00    -0.411 C  
BRANCH  32  33
HETATM   33  C   UNL     1      -9.301   7.860  72.667  1.00  0.00    -0.275 A  
HETATM   34  C   UNL     1      -7.082   7.257  72.816  1.00  0.00    -0.068 A  
HETATM   35  H   UNL     1      -6.976   7.614  74.900  1.00  0.00     0.000 HD 
HETATM   36  C   UNL     1      -5.791   6.833  72.464  1.00  0.00    -0.038 A  
HETATM   37  C   UNL     1      -8.843   7.977  73.977  1.00  0.00    -0.143 A  
HETATM   38  C   UNL     1      -5.566   6.483  71.138  1.00  0.00    -0.027 A  
HETATM   39  N   UNL     1      -7.536   7.616  74.048  1.00  0.00    -0.123 NA 
HETATM   40  C   UNL     1      -6.604   6.553  70.210  1.00  0.00    -0.048 A  
HETATM   41  C   UNL     1      -7.893   6.995  70.579  1.00  0.00    -0.101 A  
HETATM   42  C   UNL     1      -8.159   7.368  71.914  1.00  0.00    -0.103 A  
ENDBRANCH  32  33
ENDBRANCH  27  32
ENDBRANCH  24  27
ENDBRANCH  11  23
ENDBRANCH   7  11
TORSDOF 8
ENDMDL
MODEL      224
REMARK 921   NORMALIZED FREE ENERGY PREDICTED BY IDOCK:   -5.90 KCAL/MOL
REMARK 922        TOTAL FREE ENERGY PREDICTED BY IDOCK:  -10.80 KCAL/MOL
REMARK 923 INTER-LIGAND FREE ENERGY PREDICTED BY IDOCK:   -9.40 KCAL/MOL
REMARK 924 INTRA-LIGAND FREE ENERGY PREDICTED BY IDOCK:   -1.41 KCAL/MOL
REMARK 927      BINDING AFFINITY PREDICTED BY RF-SCORE:    0.00 PKD
ROOT
HETATM    1  C   UNL     1     -11.898   9.264  71.936  1.00  0.00    -0.426 C  
HETATM    2  C   UNL     1     -13.012  10.117  71.299  1.00  0.00    -0.413 C  
HETATM    3  C   UNL     1     -12.480  11.035  70.004  1.00  0.00    -0.250 C  
HETATM    4  N   UNL     1     -13.528  11.033  72.358  1.00  0.00    -0.458 NA 
HETATM    5  C   UNL     1     -14.156   9.113  70.988  1.00  0.00     0.066 C  
HETATM    6  H2  UNL     1     -12.795  11.594  72.793  1.00  0.00     0.000 HD 
HETATM    7  N   UNL     1     -11.966  12.307  70.283  1.00  0.00    -0.472 N  
HETATM    8  H1  UNL     1     -14.266  11.597  71.936  1.00  0.00     0.000 HD 
HETATM    9  O   UNL     1     -12.501  10.596  68.855  1.00  0.00    -0.297 OA 
HETATM   10  H   UNL     1     -12.138  12.599  71.244  1.00  0.00     0.000 HD 
ENDROOT
BRANCH   7  11
HETATM   11  C   UNL     1     -11.184  13.387  69.454  1.00  0.00    -0.175 C  
BRANCH  11  12
HETATM   12  C   UNL     1     -10.975  14.906  69.909  1.00  0.00    -0.257 C  
BRANCH  12  13
HETATM   13  C   UNL     1      -9.752  15.765  69.324  1.00  0.00    -0.263 A  
HETATM   14  C   UNL     1      -8.396  15.520  69.427  1.00  0.00    -0.249 A  
HETATM   15  C   UNL     1     -10.606  19.033  67.349  1.00  0.00    -0.559 A  
HETATM   16  C   UNL     1      -9.326  19.581  67.368  1.00  0.00    -0.405 A  
HETATM   17  C   UNL     1      -8.266  18.847  67.900  1.00  0.00    -0.305 A  
HETATM   18  N   UNL     1      -7.680  16.606  68.926  1.00  0.00    -0.233 NA 
HETATM   19  C   UNL     1     -10.864  17.774  67.932  1.00  0.00    -0.229 A  
HETATM   20  C   UNL     1      -9.824  17.025  68.545  1.00  0.00    -0.290 A  
HETATM   21  C   UNL     1      -8.540  17.564  68.445  1.00  0.00    -0.275 A  
HETATM   22  H   UNL     1      -6.663  16.680  68.918  1.00  0.00     0.000 HD 
ENDBRANCH  12  13
ENDBRANCH  11  12
BRANCH  11  23
HETATM   23  C   UNL     1     -11.613  13.218  67.972  1.00  0.00    -0.336 C  
HETATM   24  N   UNL     1     -10.952  12.261  67.227  1.00  0.00    -0.244 N  
HETATM   25  H   UNL     1     -10.315  11.611  67.688  1.00  0.00     0.000 HD 
HETATM   26  O   UNL     1     -12.451  13.976  67.476  1.00  0.00    -0.181 OA 
BRANCH  24  27
HETATM   27  C   UNL     1     -11.156  12.176  65.799  1.00  0.00    -0.319 C  
BRANCH  27  28
HETATM   28  N   UNL     1     -10.778  13.432  65.204  1.00  0.00    -0.314 N  
HETATM   29  O   UNL     1     -12.569  13.539  63.748  1.00  0.00    -0.701 OA 
HETATM   30  C   UNL     1     -11.541  14.007  64.213  1.00  0.00    -0.329 C  
HETATM   31  H   UNL     1      -9.930  13.902  65.521  1.00  0.00     0.000 HD 
ENDBRANCH  27  28
BRANCH  27  32
HETATM   32  C   UNL     1     -10.638  10.923  65.061  1.00  0.00    -0.287 C  
BRANCH  32  33
HETATM   33  C   UNL     1      -9.701   9.838  65.567  1.00  0.00    -0.382 A  
HETATM   34  C   UNL     1      -8.103   8.316  66.229  1.00  0.00    -0.109 A  
HETATM   35  H   UNL     1      -9.498   7.065  67.215  1.00  0.00     0.000 HD 
HETATM   36  C   UNL     1      -6.864   7.683  66.419  1.00  0.00    -0.062 A  
HETATM   37  C   UNL     1     -10.278   8.800  66.294  1.00  0.00    -0.087 A  
HETATM   38  C   UNL     1      -5.746   8.269  65.838  1.00  0.00    -0.040 A  
HETATM   39  N   UNL     1      -9.324   7.912  66.674  1.00  0.00    -0.181 NA 
HETATM   40  C   UNL     1      -5.876   9.439  65.091  1.00  0.00    -0.060 A  
HETATM   41  C   UNL     1      -7.128  10.068  64.921  1.00  0.00    -0.136 A  
HETATM   42  C   UNL     1      -8.287   9.510  65.504  1.00  0.00    -0.137 A  
ENDBRANCH  32  33
ENDBRANCH  27  32
ENDBRANCH  24  27
ENDBRANCH  11  23
ENDBRANCH   7  11
TORSDOF 8
ENDMDL
MODEL      225
REMARK 921   NORMALIZED FREE ENERGY PREDICTED BY IDOCK:   -5.88 KCAL/MOL
REMARK 922        TOTAL FREE ENERGY PREDICTED BY IDOCK:  -10.78 KCAL/MOL
REMARK 923 INTER-LIGAND FREE ENERGY PREDICTED BY IDOCK:   -8.77 KCAL/MOL
REMARK 924 INTRA-LIGAND FREE ENERGY PREDICTED BY IDOCK:   -2.01 KCAL/MOL
REMARK 927      BINDING AFFINITY PREDICTED BY RF-SCORE:    0.00 PKD
ROOT
HETATM    1  C   UNL     1     -11.353   9.684  71.597  1.00  0.00    -0.336 C  
HETATM    2  C   UNL     1     -12.539  10.492  71.034  1.00  0.00    -0.400 C  
HETATM    3  C   UNL     1     -12.153  11.350  69.649  1.00  0.00    -0.305 C  
HETATM    4  N   UNL     1     -12.962  11.454  72.093  1.00  0.00    -0.381 NA 
HETATM    5  C   UNL     1     -13.692   9.461  70.888  1.00  0.00     0.035 C  
HETATM    6  H2  UNL     1     -12.198  12.044  72.424  1.00  0.00     0.000 HD 
HETATM    7  N   UNL     1     -11.634  12.639  69.811  1.00  0.00    -0.473 N  
HETATM    8  H1  UNL     1     -13.747  11.988  71.720  1.00  0.00     0.000 HD 
HETATM    9  O   UNL     1     -12.281  10.853  68.530  1.00  0.00    -0.535 OA 
HETATM   10  H   UNL     1     -11.714  12.977  70.770  1.00  0.00     0.000 HD 
ENDROOT
BRANCH   7  11
HETATM   11  C   UNL     1     -10.957  13.685  68.857  1.00  0.00    -0.249 C  
BRANCH  11  12
HETATM   12  C   UNL     1     -11.750  14.729  67.940  1.00  0.00    -0.367 C  
BRANCH  12  13
HETATM   13  C   UNL     1     -10.950  15.805  67.060  1.00  0.00    -0.221 A  
HETATM   14  C   UNL     1     -10.654  15.770  65.710  1.00  0.00    -0.355 A  
HETATM   15  C   UNL     1      -9.574  18.983  68.881  1.00  0.00    -0.417 A  
HETATM   16  C   UNL     1      -8.707  19.393  67.873  1.00  0.00    -0.359 A  
HETATM   17  C   UNL     1      -8.688  18.714  66.656  1.00  0.00    -0.307 A  
HETATM   18  N   UNL     1      -9.794  16.819  65.388  1.00  0.00    -0.508 NA 
HETATM   19  C   UNL     1     -10.383  17.838  68.720  1.00  0.00    -0.332 A  
HETATM   20  C   UNL     1     -10.344  17.079  67.521  1.00  0.00    -0.329 A  
HETATM   21  C   UNL     1      -9.541  17.588  66.499  1.00  0.00    -0.285 A  
HETATM   22  H   UNL     1      -9.407  16.991  64.460  1.00  0.00     0.000 HD 
ENDBRANCH  12  13
ENDBRANCH  11  12
BRANCH  11  23
HETATM   23  C   UNL     1      -9.797  12.951  68.132  1.00  0.00    -0.227 C  
HETATM   24  N   UNL     1      -8.547  13.008  68.716  1.00  0.00    -0.373 N  
HETATM   25  H   UNL     1      -8.443  13.398  69.652  1.00  0.00     0.000 HD 
HETATM   26  O   UNL     1      -9.988  12.417  67.035  1.00  0.00    -0.209 OA 
BRANCH  24  27
HETATM   27  C   UNL     1      -7.386  12.519  68.009  1.00  0.00    -0.111 C  
BRANCH  27  28
HETATM   28  N   UNL     1      -6.406  13.572  67.947  1.00  0.00    -0.139 N  
HETATM   29  O   UNL     1      -6.364  13.976  70.222  1.00  0.00    -0.149 OA 
HETATM   30  C   UNL     1      -5.978  14.213  69.088  1.00  0.00    -0.093 C  
HETATM   31  H   UNL     1      -6.023  13.849  67.043  1.00  0.00     0.000 HD 
ENDBRANCH  27  28
BRANCH  27  32
HETATM   32  C   UNL     1      -6.828  11.132  68.395  1.00  0.00    -0.066 C  
BRANCH  32  33
HETATM   33  C   UNL     1      -7.585   9.880  68.807  1.00  0.00    -0.081 A  
HETATM   34  C   UNL     1      -8.878   8.024  69.246  1.00  0.00    -0.141 A  
HETATM   35  H   UNL     1      -7.738   7.454  70.937  1.00  0.00     0.000 HD 
HETATM   36  C   UNL     1      -9.877   7.043  69.146  1.00  0.00    -0.158 A  
HETATM   37  C   UNL     1      -7.108   9.199  69.924  1.00  0.00    -0.056 A  
HETATM   38  C   UNL     1     -10.815   7.181  68.130  1.00  0.00    -0.170 A  
HETATM   39  N   UNL     1      -7.882   8.111  70.171  1.00  0.00    -0.096 NA 
HETATM   40  C   UNL     1     -10.749   8.267  67.258  1.00  0.00    -0.241 A  
HETATM   41  C   UNL     1      -9.729   9.237  67.366  1.00  0.00    -0.208 A  
HETATM   42  C   UNL     1      -8.752   9.127  68.379  1.00  0.00    -0.129 A  
ENDBRANCH  32  33
ENDBRANCH  27  32
ENDBRANCH  24  27
ENDBRANCH  11  23
ENDBRANCH   7  11
TORSDOF 8
ENDMDL
MODEL      226
REMARK 921   NORMALIZED FREE ENERGY PREDICTED BY IDOCK:   -5.86 KCAL/MOL
REMARK 922        TOTAL FREE ENERGY PREDICTED BY IDOCK:  -10.75 KCAL/MOL
REMARK 923 INTER-LIGAND FREE ENERGY PREDICTED BY IDOCK:   -8.55 KCAL/MOL
REMARK 924 INTRA-LIGAND FREE ENERGY PREDICTED BY IDOCK:   -2.21 KCAL/MOL
REMARK 927      BINDING AFFINITY PREDICTED BY RF-SCORE:    0.00 PKD
ROOT
HETATM    1  C   UNL     1     -10.330   8.627  71.807  1.00  0.00    -0.386 C  
HETATM    2  C   UNL     1     -11.307   8.293  70.663  1.00  0.00    -0.244 C  
HETATM    3  C   UNL     1     -10.898   9.024  69.213  1.00  0.00    -0.113 C  
HETATM    4  N   UNL     1     -12.656   8.772  71.079  1.00  0.00    -0.489 NA 
HETATM    5  C   UNL     1     -11.378   6.741  70.638  1.00  0.00    -0.384 C  
HETATM    6  H2  UNL     1     -12.667   9.759  71.338  1.00  0.00     0.000 HD 
HETATM    7  N   UNL     1     -11.399  10.309  68.974  1.00  0.00    -0.399 N  
HETATM    8  H1  UNL     1     -13.303   8.551  70.321  1.00  0.00     0.000 HD 
HETATM    9  O   UNL     1     -10.151   8.473  68.405  1.00  0.00    -0.183 OA 
HETATM   10  H   UNL     1     -12.110  10.585  69.650  1.00  0.00     0.000 HD 
ENDROOT
BRANCH   7  11
HETATM   11  C   UNL     1     -11.118  11.422  67.903  1.00  0.00    -0.261 C  
BRANCH  11  12
HETATM   12  C   UNL     1     -11.264  11.223  66.323  1.00  0.00    -0.160 C  
BRANCH  12  13
HETATM   13  C   UNL     1     -11.712  12.448  65.391  1.00  0.00    -0.452 A  
HETATM   14  C   UNL     1     -12.435  12.419  64.213  1.00  0.00    -0.437 A  
HETATM   15  C   UNL     1     -10.642  16.050  66.482  1.00  0.00    -0.284 A  
HETATM   16  C   UNL     1     -10.911  16.680  65.270  1.00  0.00    -0.194 A  
HETATM   17  C   UNL     1     -11.505  15.963  64.233  1.00  0.00    -0.197 A  
HETATM   18  N   UNL     1     -12.453  13.690  63.638  1.00  0.00    -0.834 NA 
HETATM   19  C   UNL     1     -10.891  14.672  66.653  1.00  0.00    -0.312 A  
HETATM   20  C   UNL     1     -11.433  13.891  65.597  1.00  0.00    -0.321 A  
HETATM   21  C   UNL     1     -11.786  14.586  64.440  1.00  0.00    -0.403 A  
HETATM   22  H   UNL     1     -12.897  13.922  62.750  1.00  0.00     0.000 HD 
ENDBRANCH  12  13
ENDBRANCH  11  12
BRANCH  11  23
HETATM   23  C   UNL     1      -9.818  12.149  68.338  1.00  0.00    -0.200 C  
HETATM   24  N   UNL     1      -8.628  11.695  67.802  1.00  0.00    -0.139 N  
HETATM   25  H   UNL     1      -8.642  11.008  67.049  1.00  0.00     0.000 HD 
HETATM   26  O   UNL     1      -9.858  13.037  69.195  1.00  0.00     0.198 OA 
BRANCH  24  27
HETATM   27  C   UNL     1      -7.366  12.188  68.302  1.00  0.00    -0.100 C  
BRANCH  27  28
HETATM   28  N   UNL     1      -6.447  11.084  68.405  1.00  0.00    -0.056 N  
HETATM   29  O   UNL     1      -7.654   9.934  70.005  1.00  0.00    -0.142 OA 
HETATM   30  C   UNL     1      -6.687  10.037  69.265  1.00  0.00    -0.057 C  
HETATM   31  H   UNL     1      -5.605  11.077  67.830  1.00  0.00     0.000 HD 
ENDBRANCH  27  28
BRANCH  27  32
HETATM   32  C   UNL     1      -6.778  13.467  67.666  1.00  0.00    -0.174 C  
BRANCH  32  33
HETATM   33  C   UNL     1      -6.876  14.904  68.150  1.00  0.00    -0.136 A  
HETATM   34  C   UNL     1      -7.066  17.144  68.656  1.00  0.00    -0.217 A  
HETATM   35  H   UNL     1      -6.723  16.853  70.724  1.00  0.00     0.000 HD 
HETATM   36  C   UNL     1      -7.258  18.528  68.520  1.00  0.00    -0.306 A  
HETATM   37  C   UNL     1      -6.702  15.119  69.515  1.00  0.00    -0.171 A  
HETATM   38  C   UNL     1      -7.470  19.027  67.241  1.00  0.00    -0.243 A  
HETATM   39  N   UNL     1      -6.814  16.443  69.795  1.00  0.00    -0.103 NA 
HETATM   40  C   UNL     1      -7.481  18.164  66.145  1.00  0.00    -0.297 A  
HETATM   41  C   UNL     1      -7.299  16.773  66.302  1.00  0.00    -0.186 A  
HETATM   42  C   UNL     1      -7.091  16.227  67.587  1.00  0.00    -0.164 A  
ENDBRANCH  32  33
ENDBRANCH  27  32
ENDBRANCH  24  27
ENDBRANCH  11  23
ENDBRANCH   7  11
TORSDOF 8
ENDMDL
MODEL      227
REMARK 921   NORMALIZED FREE ENERGY PREDICTED BY IDOCK:   -5.86 KCAL/MOL
REMARK 922        TOTAL FREE ENERGY PREDICTED BY IDOCK:  -10.75 KCAL/MOL
REMARK 923 INTER-LIGAND FREE ENERGY PREDICTED BY IDOCK:   -9.14 KCAL/MOL
REMARK 924 INTRA-LIGAND FREE ENERGY PREDICTED BY IDOCK:   -1.60 KCAL/MOL
REMARK 927      BINDING AFFINITY PREDICTED BY RF-SCORE:    0.00 PKD
ROOT
HETATM    1  C   UNL     1      -8.648  16.416  66.514  1.00  0.00    -0.329 C  
HETATM    2  C   UNL     1     -10.118  16.135  66.880  1.00  0.00    -0.272 C  
HETATM    3  C   UNL     1     -10.310  14.781  67.846  1.00  0.00    -0.240 C  
HETATM    4  N   UNL     1     -10.860  15.924  65.603  1.00  0.00    -0.314 NA 
HETATM    5  C   UNL     1     -10.643  17.469  67.480  1.00  0.00    -0.333 C  
HETATM    6  H2  UNL     1     -10.448  15.196  65.018  1.00  0.00     0.000 HD 
HETATM    7  N   UNL     1     -10.462  13.547  67.204  1.00  0.00    -0.256 N  
HETATM    8  H1  UNL     1     -11.833  15.738  65.846  1.00  0.00     0.000 HD 
HETATM    9  O   UNL     1     -10.278  14.859  69.073  1.00  0.00    -0.232 OA 
HETATM   10  H   UNL     1     -10.613  13.642  66.201  1.00  0.00     0.000 HD 
ENDROOT
BRANCH   7  11
HETATM   11  C   UNL     1     -10.452  12.049  67.675  1.00  0.00    -0.205 C  
BRANCH  11  12
HETATM   12  C   UNL     1      -9.556  11.476  68.869  1.00  0.00    -0.045 C  
BRANCH  12  13
HETATM   13  C   UNL     1     -10.058  10.215  69.724  1.00  0.00    -0.269 A  
HETATM   14  C   UNL     1      -9.480   8.965  69.843  1.00  0.00    -0.170 A  
HETATM   15  C   UNL     1     -13.373  10.607  71.766  1.00  0.00    -0.437 A  
HETATM   16  C   UNL     1     -13.579   9.253  72.015  1.00  0.00    -0.519 A  
HETATM   17  C   UNL     1     -12.617   8.323  71.623  1.00  0.00    -0.355 A  
HETATM   18  N   UNL     1     -10.334   8.115  70.546  1.00  0.00    -0.200 NA 
HETATM   19  C   UNL     1     -12.239  11.048  71.051  1.00  0.00    -0.456 A  
HETATM   20  C   UNL     1     -11.271  10.125  70.575  1.00  0.00    -0.411 A  
HETATM   21  C   UNL     1     -11.463   8.792  70.941  1.00  0.00    -0.284 A  
HETATM   22  H   UNL     1     -10.147   7.132  70.739  1.00  0.00     0.000 HD 
ENDBRANCH  12  13
ENDBRANCH  11  12
BRANCH  11  23
HETATM   23  C   UNL     1     -10.446  11.173  66.393  1.00  0.00    -0.260 C  
HETATM   24  N   UNL     1     -10.232  11.814  65.189  1.00  0.00    -0.258 N  
HETATM   25  H   UNL     1      -9.951  12.795  65.179  1.00  0.00     0.000 HD 
HETATM   26  O   UNL     1     -10.709   9.969  66.461  1.00  0.00    -0.136 OA 
BRANCH  24  27
HETATM   27  C   UNL     1     -10.403  11.104  63.942  1.00  0.00    -0.380 C  
BRANCH  27  28
HETATM   28  N   UNL     1     -11.161  11.932  63.040  1.00  0.00    -0.654 N  
HETATM   29  O   UNL     1     -13.053  12.033  64.364  1.00  0.00    -0.655 OA 
HETATM   30  C   UNL     1     -12.443  12.329  63.347  1.00  0.00    -0.481 C  
HETATM   31  H   UNL     1     -10.741  12.230  62.160  1.00  0.00     0.000 HD 
ENDBRANCH  27  28
BRANCH  27  32
HETATM   32  C   UNL     1      -9.168  10.421  63.316  1.00  0.00    -0.312 C  
BRANCH  32  33
HETATM   33  C   UNL     1      -8.152   9.500  63.972  1.00  0.00    -0.152 A  
HETATM   34  C   UNL     1      -6.690   7.933  64.818  1.00  0.00    -0.051 A  
HETATM   35  H   UNL     1      -5.850   9.268  66.229  1.00  0.00     0.000 HD 
HETATM   36  C   UNL     1      -5.997   6.728  65.015  1.00  0.00    -0.035 A  
HETATM   37  C   UNL     1      -7.374  10.048  64.989  1.00  0.00    -0.140 A  
HETATM   38  C   UNL     1      -6.369   5.637  64.239  1.00  0.00    -0.029 A  
HETATM   39  N   UNL     1      -6.521   9.112  65.477  1.00  0.00    -0.067 NA 
HETATM   40  C   UNL     1      -7.400   5.757  63.308  1.00  0.00    -0.061 A  
HETATM   41  C   UNL     1      -8.077   6.981  63.114  1.00  0.00    -0.007 A  
HETATM   42  C   UNL     1      -7.722   8.115  63.876  1.00  0.00    -0.138 A  
ENDBRANCH  32  33
ENDBRANCH  27  32
ENDBRANCH  24  27
ENDBRANCH  11  23
ENDBRANCH   7  11
TORSDOF 8
ENDMDL
MODEL      228
REMARK 921   NORMALIZED FREE ENERGY PREDICTED BY IDOCK:   -5.85 KCAL/MOL
REMARK 922        TOTAL FREE ENERGY PREDICTED BY IDOCK:  -10.73 KCAL/MOL
REMARK 923 INTER-LIGAND FREE ENERGY PREDICTED BY IDOCK:   -9.27 KCAL/MOL
REMARK 924 INTRA-LIGAND FREE ENERGY PREDICTED BY IDOCK:   -1.45 KCAL/MOL
REMARK 927      BINDING AFFINITY PREDICTED BY RF-SCORE:    0.00 PKD
ROOT
HETATM    1  C   UNL     1      -6.570   8.068  70.913  1.00  0.00    -0.037 C  
HETATM    2  C   UNL     1      -7.998   7.662  71.328  1.00  0.00    -0.094 C  
HETATM    3  C   UNL     1      -9.066   7.605  70.041  1.00  0.00    -0.151 C  
HETATM    4  N   UNL     1      -8.480   8.678  72.308  1.00  0.00    -0.372 NA 
HETATM    5  C   UNL     1      -7.824   6.336  72.118  1.00  0.00    -0.104 C  
HETATM    6  H2  UNL     1      -8.423   9.633  71.953  1.00  0.00     0.000 HD 
HETATM    7  N   UNL     1      -9.735   8.787  69.703  1.00  0.00    -0.170 N  
HETATM    8  H1  UNL     1      -9.425   8.409  72.582  1.00  0.00     0.000 HD 
HETATM    9  O   UNL     1      -9.229   6.574  69.388  1.00  0.00    -0.143 OA 
HETATM   10  H   UNL     1      -9.619   9.518  70.404  1.00  0.00     0.000 HD 
ENDROOT
BRANCH   7  11
HETATM   11  C   UNL     1     -10.622   9.247  68.492  1.00  0.00    -0.183 C  
BRANCH  11  12
HETATM   12  C   UNL     1     -10.752   8.457  67.108  1.00  0.00    -0.222 C  
BRANCH  12  13
HETATM   13  C   UNL     1      -9.482   8.305  66.140  1.00  0.00    -0.241 A  
HETATM   14  C   UNL     1      -8.460   7.376  66.196  1.00  0.00    -0.145 A  
HETATM   15  C   UNL     1      -9.109  10.871  63.210  1.00  0.00    -0.252 A  
HETATM   16  C   UNL     1      -7.779  10.591  62.909  1.00  0.00    -0.096 A  
HETATM   17  C   UNL     1      -7.124   9.551  63.567  1.00  0.00    -0.102 A  
HETATM   18  N   UNL     1      -7.470   7.708  65.271  1.00  0.00    -0.078 NA 
HETATM   19  C   UNL     1      -9.785  10.167  64.229  1.00  0.00    -0.326 A  
HETATM   20  C   UNL     1      -9.132   9.146  64.969  1.00  0.00    -0.215 A  
HETATM   21  C   UNL     1      -7.835   8.827  64.561  1.00  0.00    -0.129 A  
HETATM   22  H   UNL     1      -6.599   7.195  65.140  1.00  0.00     0.000 HD 
ENDBRANCH  12  13
ENDBRANCH  11  12
BRANCH  11  23
HETATM   23  C   UNL     1     -10.418  10.778  68.338  1.00  0.00    -0.183 C  
HETATM   24  N   UNL     1     -11.392  11.482  67.658  1.00  0.00    -0.284 N  
HETATM   25  H   UNL     1     -12.265  11.021  67.403  1.00  0.00     0.000 HD 
HETATM   26  O   UNL     1      -9.378  11.310  68.738  1.00  0.00    -0.182 OA 
BRANCH  24  27
HETATM   27  C   UNL     1     -11.182  12.867  67.306  1.00  0.00    -0.288 C  
BRANCH  27  28
HETATM   28  N   UNL     1     -10.985  12.956  65.882  1.00  0.00    -0.273 N  
HETATM   29  O   UNL     1      -9.574  14.785  65.963  1.00  0.00    -0.299 OA 
HETATM   30  C   UNL     1     -10.179  13.928  65.335  1.00  0.00    -0.337 C  
HETATM   31  H   UNL     1     -11.451  12.288  65.268  1.00  0.00     0.000 HD 
ENDBRANCH  27  28
BRANCH  27  32
HETATM   32  C   UNL     1     -12.139  13.924  67.898  1.00  0.00    -0.318 C  
BRANCH  32  33
HETATM   33  C   UNL     1     -11.986  14.742  69.170  1.00  0.00    -0.317 A  
HETATM   34  C   UNL     1     -11.890  15.817  71.206  1.00  0.00    -0.437 A  
HETATM   35  H   UNL     1     -10.692  17.401  70.475  1.00  0.00     0.000 HD 
HETATM   36  C   UNL     1     -12.079  16.114  72.565  1.00  0.00    -0.644 A  
HETATM   37  C   UNL     1     -11.228  15.906  69.079  1.00  0.00    -0.327 A  
HETATM   38  C   UNL     1     -12.875  15.251  73.309  1.00  0.00    -0.634 A  
HETATM   39  N   UNL     1     -11.183  16.528  70.285  1.00  0.00    -0.255 NA 
HETATM   40  C   UNL     1     -13.459  14.139  72.703  1.00  0.00    -0.634 A  
HETATM   41  C   UNL     1     -13.247  13.849  71.338  1.00  0.00    -0.392 A  
HETATM   42  C   UNL     1     -12.437  14.696  70.551  1.00  0.00    -0.408 A  
ENDBRANCH  32  33
ENDBRANCH  27  32
ENDBRANCH  24  27
ENDBRANCH  11  23
ENDBRANCH   7  11
TORSDOF 8
ENDMDL
MODEL      229
REMARK 921   NORMALIZED FREE ENERGY PREDICTED BY IDOCK:   -5.83 KCAL/MOL
REMARK 922        TOTAL FREE ENERGY PREDICTED BY IDOCK:  -10.71 KCAL/MOL
REMARK 923 INTER-LIGAND FREE ENERGY PREDICTED BY IDOCK:   -7.90 KCAL/MOL
REMARK 924 INTRA-LIGAND FREE ENERGY PREDICTED BY IDOCK:   -2.80 KCAL/MOL
REMARK 927      BINDING AFFINITY PREDICTED BY RF-SCORE:    0.00 PKD
ROOT
HETATM    1  C   UNL     1      -8.535  19.741  68.152  1.00  0.00    -0.327 C  
HETATM    2  C   UNL     1      -9.238  19.043  66.971  1.00  0.00    -0.299 C  
HETATM    3  C   UNL     1      -9.600  17.437  67.276  1.00  0.00    -0.258 C  
HETATM    4  N   UNL     1      -8.315  19.114  65.802  1.00  0.00    -0.382 NA 
HETATM    5  C   UNL     1     -10.450  19.954  66.632  1.00  0.00    -0.580 C  
HETATM    6  H2  UNL     1      -7.390  18.730  65.999  1.00  0.00     0.000 HD 
HETATM    7  N   UNL     1      -8.621  16.485  66.971  1.00  0.00    -0.182 N  
HETATM    8  H1  UNL     1      -8.781  18.652  65.020  1.00  0.00     0.000 HD 
HETATM    9  O   UNL     1     -10.670  17.107  67.786  1.00  0.00    -0.361 OA 
HETATM   10  H   UNL     1      -7.850  16.874  66.428  1.00  0.00     0.000 HD 
ENDROOT
BRANCH   7  11
HETATM   11  C   UNL     1      -8.435  14.956  67.274  1.00  0.00    -0.208 C  
BRANCH  11  12
HETATM   12  C   UNL     1      -7.022  14.217  67.396  1.00  0.00    -0.077 C  
BRANCH  12  13
HETATM   13  C   UNL     1      -6.836  12.988  68.409  1.00  0.00    -0.097 A  
HETATM   14  C   UNL     1      -6.592  13.018  69.769  1.00  0.00     0.069 A  
HETATM   15  C   UNL     1      -7.050   9.369  66.937  1.00  0.00    -0.086 A  
HETATM   16  C   UNL     1      -6.497   8.709  68.031  1.00  0.00    -0.057 A  
HETATM   17  C   UNL     1      -6.196   9.422  69.191  1.00  0.00    -0.041 A  
HETATM   18  N   UNL     1      -6.326  11.729  70.230  1.00  0.00    -0.443 NA 
HETATM   19  C   UNL     1      -7.238  10.767  66.954  1.00  0.00    -0.115 A  
HETATM   20  C   UNL     1      -6.880  11.540  68.091  1.00  0.00    -0.068 A  
HETATM   21  C   UNL     1      -6.432  10.823  69.202  1.00  0.00    -0.059 A  
HETATM   22  H   UNL     1      -6.088  11.492  71.192  1.00  0.00     0.000 HD 
ENDBRANCH  12  13
ENDBRANCH  11  12
BRANCH  11  23
HETATM   23  C   UNL     1      -9.482  14.196  66.416  1.00  0.00    -0.269 C  
HETATM   24  N   UNL     1      -9.912  12.968  66.882  1.00  0.00    -0.238 N  
HETATM   25  H   UNL     1      -9.649  12.662  67.818  1.00  0.00     0.000 HD 
HETATM   26  O   UNL     1      -9.837  14.647  65.323  1.00  0.00    -0.329 OA 
BRANCH  24  27
HETATM   27  C   UNL     1     -10.732  12.117  66.051  1.00  0.00    -0.273 C  
BRANCH  27  28
HETATM   28  N   UNL     1     -10.041  11.883  64.808  1.00  0.00    -0.260 N  
HETATM   29  O   UNL     1     -11.935  11.946  63.484  1.00  0.00    -0.489 OA 
HETATM   30  C   UNL     1     -10.726  11.822  63.616  1.00  0.00    -0.440 C  
HETATM   31  H   UNL     1      -9.029  11.761  64.812  1.00  0.00     0.000 HD 
ENDBRANCH  27  28
BRANCH  27  32
HETATM   32  C   UNL     1     -11.363  10.863  66.690  1.00  0.00     0.079 C  
BRANCH  32  33
HETATM   33  C   UNL     1     -10.768   9.913  67.717  1.00  0.00    -0.332 A  
HETATM   34  C   UNL     1      -9.902   8.298  69.114  1.00  0.00    -0.179 A  
HETATM   35  H   UNL     1      -9.483   9.667  70.673  1.00  0.00     0.000 HD 
HETATM   36  C   UNL     1      -9.472   7.057  69.609  1.00  0.00    -0.147 A  
HETATM   37  C   UNL     1     -10.354  10.473  68.923  1.00  0.00    -0.208 A  
HETATM   38  C   UNL     1      -9.660   5.941  68.801  1.00  0.00    -0.152 A  
HETATM   39  N   UNL     1      -9.849   9.508  69.734  1.00  0.00    -0.201 NA 
HETATM   40  C   UNL     1     -10.262   6.075  67.551  1.00  0.00    -0.225 A  
HETATM   41  C   UNL     1     -10.677   7.333  67.064  1.00  0.00    -0.406 A  
HETATM   42  C   UNL     1     -10.495   8.492  67.851  1.00  0.00    -0.262 A  
ENDBRANCH  32  33
ENDBRANCH  27  32
ENDBRANCH  24  27
ENDBRANCH  11  23
ENDBRANCH   7  11
TORSDOF 8
ENDMDL
MODEL      230
REMARK 921   NORMALIZED FREE ENERGY PREDICTED BY IDOCK:   -5.83 KCAL/MOL
REMARK 922        TOTAL FREE ENERGY PREDICTED BY IDOCK:  -10.71 KCAL/MOL
REMARK 923 INTER-LIGAND FREE ENERGY PREDICTED BY IDOCK:   -8.92 KCAL/MOL
REMARK 924 INTRA-LIGAND FREE ENERGY PREDICTED BY IDOCK:   -1.79 KCAL/MOL
REMARK 927      BINDING AFFINITY PREDICTED BY RF-SCORE:    0.00 PKD
ROOT
HETATM    1  C   UNL     1     -13.500   7.166  71.240  1.00  0.00    -0.309 C  
HETATM    2  C   UNL     1     -13.039   8.444  71.967  1.00  0.00    -0.352 C  
HETATM    3  C   UNL     1     -12.259   9.531  70.960  1.00  0.00    -0.304 C  
HETATM    4  N   UNL     1     -12.097   8.025  73.044  1.00  0.00    -0.642 NA 
HETATM    5  C   UNL     1     -14.312   8.981  72.679  1.00  0.00    -0.150 C  
HETATM    6  H2  UNL     1     -11.320   7.461  72.698  1.00  0.00     0.000 HD 
HETATM    7  N   UNL     1     -10.876   9.385  70.800  1.00  0.00    -0.277 N  
HETATM    8  H1  UNL     1     -11.792   8.871  73.526  1.00  0.00     0.000 HD 
HETATM    9  O   UNL     1     -12.881  10.399  70.350  1.00  0.00    -0.314 OA 
HETATM   10  H   UNL     1     -10.472   8.726  71.465  1.00  0.00     0.000 HD 
ENDROOT
BRANCH   7  11
HETATM   11  C   UNL     1      -9.806  10.002  69.833  1.00  0.00    -0.224 C  
BRANCH  11  12
HETATM   12  C   UNL     1      -9.999  10.179  68.255  1.00  0.00    -0.168 C  
BRANCH  12  13
HETATM   13  C   UNL     1     -10.715  11.489  67.669  1.00  0.00    -0.255 A  
HETATM   14  C   UNL     1     -11.251  12.562  68.356  1.00  0.00    -0.272 A  
HETATM   15  C   UNL     1     -11.075  11.781  63.784  1.00  0.00    -0.513 A  
HETATM   16  C   UNL     1     -12.012  12.810  63.778  1.00  0.00    -0.585 A  
HETATM   17  C   UNL     1     -12.386  13.413  64.978  1.00  0.00    -0.481 A  
HETATM   18  N   UNL     1     -11.929  13.399  67.470  1.00  0.00    -0.359 NA 
HETATM   19  C   UNL     1     -10.553  11.283  64.997  1.00  0.00    -0.353 A  
HETATM   20  C   UNL     1     -10.960  11.824  66.245  1.00  0.00    -0.346 A  
HETATM   21  C   UNL     1     -11.817  12.924  66.185  1.00  0.00    -0.429 A  
HETATM   22  H   UNL     1     -12.436  14.242  67.737  1.00  0.00     0.000 HD 
ENDBRANCH  12  13
ENDBRANCH  11  12
BRANCH  11  23
HETATM   23  C   UNL     1      -8.430   9.412  70.246  1.00  0.00    -0.212 C  
HETATM   24  N   UNL     1      -8.390   8.072  70.577  1.00  0.00    -0.121 N  
HETATM   25  H   UNL     1      -9.207   7.484  70.413  1.00  0.00     0.000 HD 
HETATM   26  O   UNL     1      -7.444  10.147  70.351  1.00  0.00    -0.247 OA 
BRANCH  24  27
HETATM   27  C   UNL     1      -7.196   7.497  71.155  1.00  0.00    -0.063 C  
BRANCH  27  28
HETATM   28  N   UNL     1      -7.076   7.956  72.515  1.00  0.00    -0.079 N  
HETATM   29  O   UNL     1      -9.336   7.858  72.986  1.00  0.00    -0.209 OA 
HETATM   30  C   UNL     1      -8.184   8.092  73.319  1.00  0.00    -0.199 C  
HETATM   31  H   UNL     1      -6.154   8.182  72.888  1.00  0.00     0.000 HD 
ENDBRANCH  27  28
BRANCH  27  32
HETATM   32  C   UNL     1      -6.940   5.989  70.951  1.00  0.00    -0.067 C  
BRANCH  32  33
HETATM   33  C   UNL     1      -7.555   4.809  71.688  1.00  0.00    -0.091 A  
HETATM   34  C   UNL     1      -8.690   3.148  72.810  1.00  0.00    -0.084 A  
HETATM   35  H   UNL     1      -7.016   1.854  72.881  1.00  0.00     0.000 HD 
HETATM   36  C   UNL     1      -9.716   2.435  73.452  1.00  0.00    -0.141 A  
HETATM   37  C   UNL     1      -6.724   3.717  71.926  1.00  0.00    -0.019 A  
HETATM   38  C   UNL     1     -10.947   3.064  73.591  1.00  0.00    -0.323 A  
HETATM   39  N   UNL     1      -7.408   2.750  72.590  1.00  0.00    -0.043 NA 
HETATM   40  C   UNL     1     -11.132   4.359  73.108  1.00  0.00    -0.326 A  
HETATM   41  C   UNL     1     -10.093   5.055  72.454  1.00  0.00    -0.238 A  
HETATM   42  C   UNL     1      -8.830   4.448  72.284  1.00  0.00    -0.126 A  
ENDBRANCH  32  33
ENDBRANCH  27  32
ENDBRANCH  24  27
ENDBRANCH  11  23
ENDBRANCH   7  11
TORSDOF 8
ENDMDL
MODEL      231
REMARK 921   NORMALIZED FREE ENERGY PREDICTED BY IDOCK:   -5.83 KCAL/MOL
REMARK 922        TOTAL FREE ENERGY PREDICTED BY IDOCK:  -10.70 KCAL/MOL
REMARK 923 INTER-LIGAND FREE ENERGY PREDICTED BY IDOCK:   -9.76 KCAL/MOL
REMARK 924 INTRA-LIGAND FREE ENERGY PREDICTED BY IDOCK:   -0.95 KCAL/MOL
REMARK 927      BINDING AFFINITY PREDICTED BY RF-SCORE:    0.00 PKD
ROOT
HETATM    1  C   UNL     1      -7.031   9.604  64.474  1.00  0.00    -0.117 C  
HETATM    2  C   UNL     1      -8.541   9.334  64.330  1.00  0.00    -0.193 C  
HETATM    3  C   UNL     1      -9.487  10.381  65.231  1.00  0.00    -0.237 C  
HETATM    4  N   UNL     1      -8.788   7.939  64.798  1.00  0.00    -0.359 NA 
HETATM    5  C   UNL     1      -8.804   9.337  62.798  1.00  0.00    -0.198 C  
HETATM    6  H2  UNL     1      -8.440   7.768  65.742  1.00  0.00     0.000 HD 
HETATM    7  N   UNL     1      -9.770  10.020  66.553  1.00  0.00    -0.189 N  
HETATM    8  H1  UNL     1      -9.788   7.761  64.703  1.00  0.00     0.000 HD 
HETATM    9  O   UNL     1      -9.885  11.448  64.765  1.00  0.00    -0.241 OA 
HETATM   10  H   UNL     1      -9.504   9.058  66.763  1.00  0.00     0.000 HD 
ENDROOT
BRANCH   7  11
HETATM   11  C   UNL     1     -10.402  10.755  67.787  1.00  0.00    -0.193 C  
BRANCH  11  12
HETATM   12  C   UNL     1      -9.869  12.134  68.397  1.00  0.00    -0.200 C  
BRANCH  12  13
HETATM   13  C   UNL     1     -10.890  13.330  68.709  1.00  0.00    -0.273 A  
HETATM   14  C   UNL     1     -11.078  14.511  68.015  1.00  0.00    -0.276 A  
HETATM   15  C   UNL     1     -13.192  12.983  71.854  1.00  0.00    -0.527 A  
HETATM   16  C   UNL     1     -13.593  14.314  71.918  1.00  0.00    -0.501 A  
HETATM   17  C   UNL     1     -13.206  15.203  70.916  1.00  0.00    -0.488 A  
HETATM   18  N   UNL     1     -11.941  15.345  68.726  1.00  0.00    -0.554 NA 
HETATM   19  C   UNL     1     -12.330  12.534  70.831  1.00  0.00    -0.349 A  
HETATM   20  C   UNL     1     -11.858  13.424  69.830  1.00  0.00    -0.385 A  
HETATM   21  C   UNL     1     -12.372  14.721  69.871  1.00  0.00    -0.283 A  
HETATM   22  H   UNL     1     -12.212  16.284  68.436  1.00  0.00     0.000 HD 
ENDBRANCH  12  13
ENDBRANCH  11  12
BRANCH  11  23
HETATM   23  C   UNL     1     -10.718   9.667  68.848  1.00  0.00    -0.206 C  
HETATM   24  N   UNL     1     -11.139  10.098  70.091  1.00  0.00    -0.293 N  
HETATM   25  H   UNL     1     -11.363  11.082  70.237  1.00  0.00     0.000 HD 
HETATM   26  O   UNL     1     -10.510   8.476  68.599  1.00  0.00    -0.208 OA 
BRANCH  24  27
HETATM   27  C   UNL     1     -11.265   9.162  71.185  1.00  0.00    -0.325 C  
BRANCH  27  28
HETATM   28  N   UNL     1     -12.259   8.179  70.839  1.00  0.00    -0.489 N  
HETATM   29  O   UNL     1     -13.721   8.729  72.542  1.00  0.00    -0.414 OA 
HETATM   30  C   UNL     1     -13.421   8.056  71.567  1.00  0.00    -0.289 C  
HETATM   31  H   UNL     1     -12.100   7.564  70.042  1.00  0.00     0.000 HD 
ENDBRANCH  27  28
BRANCH  27  32
HETATM   32  C   UNL     1      -9.973   8.590  71.808  1.00  0.00    -0.345 C  
BRANCH  32  33
HETATM   33  C   UNL     1      -9.629   7.146  72.132  1.00  0.00    -0.160 A  
HETATM   34  C   UNL     1      -9.156   4.906  72.393  1.00  0.00    -0.129 A  
HETATM   35  H   UNL     1      -8.684   5.098  74.448  1.00  0.00     0.000 HD 
HETATM   36  C   UNL     1      -8.968   3.543  72.113  1.00  0.00    -0.138 A  
HETATM   37  C   UNL     1      -9.252   6.870  73.444  1.00  0.00    -0.144 A  
HETATM   38  C   UNL     1      -9.245   3.106  70.823  1.00  0.00    -0.205 A  
HETATM   39  N   UNL     1      -8.979   5.547  73.581  1.00  0.00    -0.125 NA 
HETATM   40  C   UNL     1      -9.698   4.007  69.861  1.00  0.00    -0.263 A  
HETATM   41  C   UNL     1      -9.869   5.376  70.157  1.00  0.00    -0.273 A  
HETATM   42  C   UNL     1      -9.589   5.861  71.453  1.00  0.00    -0.189 A  
ENDBRANCH  32  33
ENDBRANCH  27  32
ENDBRANCH  24  27
ENDBRANCH  11  23
ENDBRANCH   7  11
TORSDOF 8
ENDMDL
MODEL      232
REMARK 921   NORMALIZED FREE ENERGY PREDICTED BY IDOCK:   -5.80 KCAL/MOL
REMARK 922        TOTAL FREE ENERGY PREDICTED BY IDOCK:  -10.65 KCAL/MOL
REMARK 923 INTER-LIGAND FREE ENERGY PREDICTED BY IDOCK:   -9.27 KCAL/MOL
REMARK 924 INTRA-LIGAND FREE ENERGY PREDICTED BY IDOCK:   -1.38 KCAL/MOL
REMARK 927      BINDING AFFINITY PREDICTED BY RF-SCORE:    0.00 PKD
ROOT
HETATM    1  C   UNL     1     -13.596  15.315  70.722  1.00  0.00    -0.313 C  
HETATM    2  C   UNL     1     -12.100  15.052  70.980  1.00  0.00    -0.324 C  
HETATM    3  C   UNL     1     -11.099  15.781  69.853  1.00  0.00    -0.331 C  
HETATM    4  N   UNL     1     -11.893  13.576  70.924  1.00  0.00    -0.471 NA 
HETATM    5  C   UNL     1     -11.869  15.474  72.458  1.00  0.00    -0.572 C  
HETATM    6  H2  UNL     1     -12.227  13.159  70.054  1.00  0.00     0.000 HD 
HETATM    7  N   UNL     1     -10.802  15.059  68.691  1.00  0.00    -0.241 N  
HETATM    8  H1  UNL     1     -10.902  13.403  71.095  1.00  0.00     0.000 HD 
HETATM    9  O   UNL     1     -10.673  16.923  70.017  1.00  0.00    -0.214 OA 
HETATM   10  H   UNL     1     -11.097  14.084  68.748  1.00  0.00     0.000 HD 
ENDROOT
BRANCH   7  11
HETATM   11  C   UNL     1     -10.118  15.404  67.321  1.00  0.00    -0.238 C  
BRANCH  11  12
HETATM   12  C   UNL     1     -10.466  16.683  66.427  1.00  0.00    -0.266 C  
BRANCH  12  13
HETATM   13  C   UNL     1      -9.870  18.123  66.807  1.00  0.00    -0.337 A  
HETATM   14  C   UNL     1     -10.550  19.293  67.089  1.00  0.00    -0.472 A  
HETATM   15  C   UNL     1      -5.978  18.499  66.955  1.00  0.00    -0.171 A  
HETATM   16  C   UNL     1      -5.943  19.891  66.950  1.00  0.00    -0.182 A  
HETATM   17  C   UNL     1      -7.133  20.614  67.010  1.00  0.00    -0.375 A  
HETATM   18  N   UNL     1      -9.646  20.350  67.197  1.00  0.00    -0.459 NA 
HETATM   19  C   UNL     1      -7.207  17.806  66.939  1.00  0.00    -0.228 A  
HETATM   20  C   UNL     1      -8.442  18.507  66.930  1.00  0.00    -0.277 A  
HETATM   21  C   UNL     1      -8.359  19.896  67.035  1.00  0.00    -0.319 A  
HETATM   22  H   UNL     1      -9.903  21.321  67.372  1.00  0.00     0.000 HD 
ENDBRANCH  12  13
ENDBRANCH  11  12
BRANCH  11  23
HETATM   23  C   UNL     1     -10.010  14.077  66.523  1.00  0.00    -0.284 C  
HETATM   24  N   UNL     1      -9.731  12.929  67.238  1.00  0.00    -0.216 N  
HETATM   25  H   UNL     1      -9.742  12.951  68.257  1.00  0.00     0.000 HD 
HETATM   26  O   UNL     1     -10.088  14.084  65.291  1.00  0.00    -0.343 OA 
BRANCH  24  27
HETATM   27  C   UNL     1      -9.425  11.696  66.550  1.00  0.00    -0.206 C  
BRANCH  27  28
HETATM   28  N   UNL     1      -8.052  11.738  66.117  1.00  0.00    -0.377 N  
HETATM   29  O   UNL     1      -7.162  12.065  68.225  1.00  0.00    -0.077 OA 
HETATM   30  C   UNL     1      -7.028  11.920  67.019  1.00  0.00    -0.116 C  
HETATM   31  H   UNL     1      -7.834  11.631  65.127  1.00  0.00     0.000 HD 
ENDBRANCH  27  28
BRANCH  27  32
HETATM   32  C   UNL     1      -9.861  10.367  67.204  1.00  0.00    -0.221 C  
BRANCH  32  33
HETATM   33  C   UNL     1      -9.608   8.944  66.734  1.00  0.00    -0.262 A  
HETATM   34  C   UNL     1      -9.339   6.714  66.218  1.00  0.00    -0.105 A  
HETATM   35  H   UNL     1      -8.302   7.109  64.416  1.00  0.00     0.000 HD 
HETATM   36  C   UNL     1      -9.405   5.314  66.289  1.00  0.00    -0.159 A  
HETATM   37  C   UNL     1      -8.924   8.794  65.530  1.00  0.00    -0.181 A  
HETATM   38  C   UNL     1     -10.009   4.753  67.408  1.00  0.00    -0.204 A  
HETATM   39  N   UNL     1      -8.772   7.476  65.243  1.00  0.00    -0.006 NA 
HETATM   40  C   UNL     1     -10.519   5.573  68.414  1.00  0.00    -0.227 A  
HETATM   41  C   UNL     1     -10.456   6.980  68.319  1.00  0.00    -0.237 A  
HETATM   42  C   UNL     1      -9.858   7.588  67.194  1.00  0.00    -0.263 A  
ENDBRANCH  32  33
ENDBRANCH  27  32
ENDBRANCH  24  27
ENDBRANCH  11  23
ENDBRANCH   7  11
TORSDOF 8
ENDMDL
MODEL      233
REMARK 921   NORMALIZED FREE ENERGY PREDICTED BY IDOCK:   -5.79 KCAL/MOL
REMARK 922        TOTAL FREE ENERGY PREDICTED BY IDOCK:  -10.65 KCAL/MOL
REMARK 923 INTER-LIGAND FREE ENERGY PREDICTED BY IDOCK:   -8.76 KCAL/MOL
REMARK 924 INTRA-LIGAND FREE ENERGY PREDICTED BY IDOCK:   -1.89 KCAL/MOL
REMARK 927      BINDING AFFINITY PREDICTED BY RF-SCORE:    0.00 PKD
ROOT
HETATM    1  C   UNL     1      -7.357   8.056  66.884  1.00  0.00    -0.090 C  
HETATM    2  C   UNL     1      -8.178   8.073  68.188  1.00  0.00    -0.126 C  
HETATM    3  C   UNL     1      -9.533   9.052  68.101  1.00  0.00    -0.142 C  
HETATM    4  N   UNL     1      -7.284   8.584  69.267  1.00  0.00    -0.062 NA 
HETATM    5  C   UNL     1      -8.447   6.577  68.511  1.00  0.00    -0.124 C  
HETATM    6  H2  UNL     1      -6.868   9.489  69.045  1.00  0.00     0.000 HD 
HETATM    7  N   UNL     1      -9.378  10.401  68.438  1.00  0.00    -0.145 N  
HETATM    8  H1  UNL     1      -7.827   8.595  70.130  1.00  0.00     0.000 HD 
HETATM    9  O   UNL     1     -10.617   8.614  67.716  1.00  0.00    -0.236 OA 
HETATM   10  H   UNL     1      -8.476  10.596  68.871  1.00  0.00     0.000 HD 
ENDROOT
BRANCH   7  11
HETATM   11  C   UNL     1     -10.273  11.683  68.302  1.00  0.00    -0.199 C  
BRANCH  11  12
HETATM   12  C   UNL     1      -9.724  13.185  68.338  1.00  0.00    -0.196 C  
BRANCH  12  13
HETATM   13  C   UNL     1     -10.134  14.225  67.188  1.00  0.00    -0.254 A  
HETATM   14  C   UNL     1     -10.414  13.976  65.857  1.00  0.00    -0.309 A  
HETATM   15  C   UNL     1     -10.380  18.007  68.158  1.00  0.00    -0.398 A  
HETATM   16  C   UNL     1     -10.392  18.514  66.862  1.00  0.00    -0.431 A  
HETATM   17  C   UNL     1     -10.431  17.639  65.776  1.00  0.00    -0.208 A  
HETATM   18  N   UNL     1     -10.556  15.182  65.171  1.00  0.00    -0.401 NA 
HETATM   19  C   UNL     1     -10.327  16.617  68.392  1.00  0.00    -0.299 A  
HETATM   20  C   UNL     1     -10.296  15.694  67.313  1.00  0.00    -0.277 A  
HETATM   21  C   UNL     1     -10.419  16.242  66.035  1.00  0.00    -0.331 A  
HETATM   22  H   UNL     1     -10.735  15.266  64.171  1.00  0.00     0.000 HD 
ENDBRANCH  12  13
ENDBRANCH  11  12
BRANCH  11  23
HETATM   23  C   UNL     1     -11.538  11.445  69.170  1.00  0.00    -0.314 C  
HETATM   24  N   UNL     1     -11.421  11.650  70.531  1.00  0.00    -0.386 N  
HETATM   25  H   UNL     1     -10.574  12.075  70.908  1.00  0.00     0.000 HD 
HETATM   26  O   UNL     1     -12.571  11.007  68.656  1.00  0.00    -0.304 OA 
BRANCH  24  27
HETATM   27  C   UNL     1     -12.490  11.265  71.423  1.00  0.00    -0.287 C  
BRANCH  27  28
HETATM   28  N   UNL     1     -13.536  12.252  71.341  1.00  0.00     0.085 N  
HETATM   29  O   UNL     1     -12.641  13.662  72.939  1.00  0.00    -0.077 OA 
HETATM   30  C   UNL     1     -13.508  13.384  72.124  1.00  0.00    -0.552 C  
HETATM   31  H   UNL     1     -14.310  12.110  70.693  1.00  0.00     0.000 HD 
ENDBRANCH  27  28
BRANCH  27  32
HETATM   32  C   UNL     1     -12.974   9.800  71.392  1.00  0.00    -0.490 C  
BRANCH  32  33
HETATM   33  C   UNL     1     -12.152   8.522  71.456  1.00  0.00    -0.351 A  
HETATM   34  C   UNL     1     -10.722   6.723  71.622  1.00  0.00    -0.225 A  
HETATM   35  H   UNL     1     -12.192   5.318  71.034  1.00  0.00     0.000 HD 
HETATM   36  C   UNL     1      -9.570   5.955  71.851  1.00  0.00    -0.169 A  
HETATM   37  C   UNL     1     -12.807   7.339  71.127  1.00  0.00    -0.286 A  
HETATM   38  C   UNL     1      -8.410   6.627  72.219  1.00  0.00    -0.107 A  
HETATM   39  N   UNL     1     -11.950   6.290  71.227  1.00  0.00    -0.211 NA 
HETATM   40  C   UNL     1      -8.415   8.015  72.345  1.00  0.00    -0.211 A  
HETATM   41  C   UNL     1      -9.587   8.771  72.123  1.00  0.00    -0.325 A  
HETATM   42  C   UNL     1     -10.787   8.124  71.757  1.00  0.00    -0.317 A  
ENDBRANCH  32  33
ENDBRANCH  27  32
ENDBRANCH  24  27
ENDBRANCH  11  23
ENDBRANCH   7  11
TORSDOF 8
ENDMDL
MODEL      234
REMARK 921   NORMALIZED FREE ENERGY PREDICTED BY IDOCK:   -5.79 KCAL/MOL
REMARK 922        TOTAL FREE ENERGY PREDICTED BY IDOCK:  -10.64 KCAL/MOL
REMARK 923 INTER-LIGAND FREE ENERGY PREDICTED BY IDOCK:   -8.46 KCAL/MOL
REMARK 924 INTRA-LIGAND FREE ENERGY PREDICTED BY IDOCK:   -2.18 KCAL/MOL
REMARK 927      BINDING AFFINITY PREDICTED BY RF-SCORE:    0.00 PKD
ROOT
HETATM    1  C   UNL     1     -13.186   9.905  70.214  1.00  0.00     0.277 C  
HETATM    2  C   UNL     1     -12.100  10.998  70.229  1.00  0.00    -0.362 C  
HETATM    3  C   UNL     1     -11.660  11.512  68.698  1.00  0.00    -0.313 C  
HETATM    4  N   UNL     1     -10.902  10.423  70.907  1.00  0.00    -0.256 NA 
HETATM    5  C   UNL     1     -12.655  12.100  71.175  1.00  0.00    -0.360 C  
HETATM    6  H2  UNL     1     -10.584   9.551  70.483  1.00  0.00     0.000 HD 
HETATM    7  N   UNL     1     -10.636  10.810  68.051  1.00  0.00    -0.192 N  
HETATM    8  H1  UNL     1     -10.184  11.148  70.917  1.00  0.00     0.000 HD 
HETATM    9  O   UNL     1     -12.241  12.443  68.142  1.00  0.00    -0.314 OA 
HETATM   10  H   UNL     1     -10.151  10.163  68.672  1.00  0.00     0.000 HD 
ENDROOT
BRANCH   7  11
HETATM   11  C   UNL     1     -10.062  10.791  66.591  1.00  0.00    -0.218 C  
BRANCH  11  12
HETATM   12  C   UNL     1     -10.949  10.887  65.263  1.00  0.00    -0.033 C  
BRANCH  12  13
HETATM   13  C   UNL     1     -11.489  12.308  64.752  1.00  0.00    -0.382 A  
HETATM   14  C   UNL     1     -12.409  12.575  63.755  1.00  0.00    -0.502 A  
HETATM   15  C   UNL     1     -10.059  15.522  66.465  1.00  0.00    -0.290 A  
HETATM   16  C   UNL     1     -10.503  16.433  65.511  1.00  0.00    -0.349 A  
HETATM   17  C   UNL     1     -11.307  15.998  64.458  1.00  0.00    -0.303 A  
HETATM   18  N   UNL     1     -12.461  13.949  63.517  1.00  0.00    -1.067 NA 
HETATM   19  C   UNL     1     -10.345  14.145  66.340  1.00  0.00    -0.287 A  
HETATM   20  C   UNL     1     -11.104  13.653  65.246  1.00  0.00    -0.307 A  
HETATM   21  C   UNL     1     -11.618  14.614  64.374  1.00  0.00    -0.305 A  
HETATM   22  H   UNL     1     -13.042  14.395  62.808  1.00  0.00     0.000 HD 
ENDBRANCH  12  13
ENDBRANCH  11  12
BRANCH  11  23
HETATM   23  C   UNL     1      -8.968   9.690  66.550  1.00  0.00    -0.147 C  
HETATM   24  N   UNL     1      -9.127   8.607  67.391  1.00  0.00    -0.132 N  
HETATM   25  H   UNL     1     -10.001   8.486  67.901  1.00  0.00     0.000 HD 
HETATM   26  O   UNL     1      -7.961   9.840  65.850  1.00  0.00    -0.107 OA 
BRANCH  24  27
HETATM   27  C   UNL     1      -8.062   7.643  67.552  1.00  0.00    -0.120 C  
BRANCH  27  28
HETATM   28  N   UNL     1      -7.010   8.245  68.331  1.00  0.00    -0.071 N  
HETATM   29  O   UNL     1      -8.400   9.084  69.976  1.00  0.00    -0.118 OA 
HETATM   30  C   UNL     1      -7.288   8.921  69.497  1.00  0.00    -0.071 C  
HETATM   31  H   UNL     1      -6.045   8.168  68.013  1.00  0.00     0.000 HD 
ENDBRANCH  27  28
BRANCH  27  32
HETATM   32  C   UNL     1      -8.437   6.204  67.965  1.00  0.00    -0.116 C  
BRANCH  32  33
HETATM   33  C   UNL     1      -8.904   5.691  69.318  1.00  0.00    -0.112 A  
HETATM   34  C   UNL     1      -9.800   5.061  71.345  1.00  0.00    -0.182 A  
HETATM   35  H   UNL     1      -8.239   3.696  71.772  1.00  0.00     0.000 HD 
HETATM   36  C   UNL     1     -10.661   4.970  72.449  1.00  0.00    -0.262 A  
HETATM   37  C   UNL     1      -8.102   4.736  69.937  1.00  0.00    -0.069 A  
HETATM   38  C   UNL     1     -11.778   5.798  72.465  1.00  0.00    -0.280 A  
HETATM   39  N   UNL     1      -8.642   4.378  71.130  1.00  0.00    -0.096 NA 
HETATM   40  C   UNL     1     -12.009   6.682  71.413  1.00  0.00    -0.405 A  
HETATM   41  C   UNL     1     -11.139   6.751  70.304  1.00  0.00    -0.360 A  
HETATM   42  C   UNL     1      -9.999   5.920  70.246  1.00  0.00    -0.247 A  
ENDBRANCH  32  33
ENDBRANCH  27  32
ENDBRANCH  24  27
ENDBRANCH  11  23
ENDBRANCH   7  11
TORSDOF 8
ENDMDL
MODEL      235
REMARK 921   NORMALIZED FREE ENERGY PREDICTED BY IDOCK:   -5.78 KCAL/MOL
REMARK 922        TOTAL FREE ENERGY PREDICTED BY IDOCK:  -10.63 KCAL/MOL
REMARK 923 INTER-LIGAND FREE ENERGY PREDICTED BY IDOCK:   -8.80 KCAL/MOL
REMARK 924 INTRA-LIGAND FREE ENERGY PREDICTED BY IDOCK:   -1.83 KCAL/MOL
REMARK 927      BINDING AFFINITY PREDICTED BY RF-SCORE:    0.00 PKD
ROOT
HETATM    1  C   UNL     1      -9.208   5.985  68.129  1.00  0.00    -0.116 C  
HETATM    2  C   UNL     1      -9.037   6.716  69.475  1.00  0.00    -0.144 C  
HETATM    3  C   UNL     1     -10.093   7.999  69.667  1.00  0.00    -0.198 C  
HETATM    4  N   UNL     1      -7.638   7.232  69.523  1.00  0.00    -0.097 NA 
HETATM    5  C   UNL     1      -9.131   5.598  70.551  1.00  0.00    -0.164 C  
HETATM    6  H2  UNL     1      -7.400   7.815  68.720  1.00  0.00     0.000 HD 
HETATM    7  N   UNL     1      -9.686   9.249  69.186  1.00  0.00    -0.160 N  
HETATM    8  H1  UNL     1      -7.525   7.715  70.415  1.00  0.00     0.000 HD 
HETATM    9  O   UNL     1     -11.204   7.845  70.174  1.00  0.00    -0.242 OA 
HETATM   10  H   UNL     1      -8.701   9.267  68.924  1.00  0.00     0.000 HD 
ENDROOT
BRANCH   7  11
HETATM   11  C   UNL     1     -10.396  10.630  68.958  1.00  0.00    -0.218 C  
BRANCH  11  12
HETATM   12  C   UNL     1     -11.957  10.899  69.184  1.00  0.00    -0.359 C  
BRANCH  12  13
HETATM   13  C   UNL     1     -12.473  11.579  70.542  1.00  0.00    -0.367 A  
HETATM   14  C   UNL     1     -12.937  10.968  71.692  1.00  0.00    -0.456 A  
HETATM   15  C   UNL     1     -12.494  15.487  70.727  1.00  0.00    -0.491 A  
HETATM   16  C   UNL     1     -13.306  15.598  71.852  1.00  0.00    -0.537 A  
HETATM   17  C   UNL     1     -13.702  14.450  72.537  1.00  0.00    -0.589 A  
HETATM   18  N   UNL     1     -13.445  11.930  72.565  1.00  0.00    -0.479 NA 
HETATM   19  C   UNL     1     -12.128  14.222  70.220  1.00  0.00    -0.403 A  
HETATM   20  C   UNL     1     -12.567  13.027  70.849  1.00  0.00    -0.364 A  
HETATM   21  C   UNL     1     -13.288  13.188  72.034  1.00  0.00    -0.493 A  
HETATM   22  H   UNL     1     -13.872  11.729  73.469  1.00  0.00     0.000 HD 
ENDBRANCH  12  13
ENDBRANCH  11  12
BRANCH  11  23
HETATM   23  C   UNL     1      -9.832  11.215  67.636  1.00  0.00    -0.174 C  
HETATM   24  N   UNL     1     -10.373  10.747  66.454  1.00  0.00    -0.246 N  
HETATM   25  H   UNL     1     -11.201  10.153  66.477  1.00  0.00     0.000 HD 
HETATM   26  O   UNL     1      -8.880  12.000  67.659  1.00  0.00    -0.159 OA 
BRANCH  24  27
HETATM   27  C   UNL     1      -9.773  11.096  65.187  1.00  0.00    -0.250 C  
BRANCH  27  28
HETATM   28  N   UNL     1      -9.835  12.526  65.025  1.00  0.00    -0.461 N  
HETATM   29  O   UNL     1     -12.102  12.604  64.582  1.00  0.00    -0.374 OA 
HETATM   30  C   UNL     1     -11.023  13.157  64.734  1.00  0.00    -0.336 C  
HETATM   31  H   UNL     1      -8.985  13.079  65.128  1.00  0.00     0.000 HD 
ENDBRANCH  27  28
BRANCH  27  32
HETATM   32  C   UNL     1      -8.416  10.458  64.822  1.00  0.00    -0.176 C  
BRANCH  32  33
HETATM   33  C   UNL     1      -8.136   9.093  64.214  1.00  0.00    -0.148 A  
HETATM   34  C   UNL     1      -7.591   6.973  63.494  1.00  0.00    -0.105 A  
HETATM   35  H   UNL     1      -8.592   7.191  61.641  1.00  0.00     0.000 HD 
HETATM   36  C   UNL     1      -7.065   5.672  63.461  1.00  0.00    -0.051 A  
HETATM   37  C   UNL     1      -8.660   8.852  62.947  1.00  0.00    -0.145 A  
HETATM   38  C   UNL     1      -6.309   5.255  64.551  1.00  0.00    -0.033 A  
HETATM   39  N   UNL     1      -8.328   7.601  62.537  1.00  0.00    -0.083 NA 
HETATM   40  C   UNL     1      -6.091   6.119  65.623  1.00  0.00    -0.033 A  
HETATM   41  C   UNL     1      -6.638   7.419  65.645  1.00  0.00    -0.045 A  
HETATM   42  C   UNL     1      -7.420   7.877  64.561  1.00  0.00    -0.099 A  
ENDBRANCH  32  33
ENDBRANCH  27  32
ENDBRANCH  24  27
ENDBRANCH  11  23
ENDBRANCH   7  11
TORSDOF 8
ENDMDL
MODEL      236
REMARK 921   NORMALIZED FREE ENERGY PREDICTED BY IDOCK:   -5.77 KCAL/MOL
REMARK 922        TOTAL FREE ENERGY PREDICTED BY IDOCK:  -10.62 KCAL/MOL
REMARK 923 INTER-LIGAND FREE ENERGY PREDICTED BY IDOCK:   -8.47 KCAL/MOL
REMARK 924 INTRA-LIGAND FREE ENERGY PREDICTED BY IDOCK:   -2.15 KCAL/MOL
REMARK 927      BINDING AFFINITY PREDICTED BY RF-SCORE:    0.00 PKD
ROOT
HETATM    1  C   UNL     1     -11.906  14.212  67.695  1.00  0.00    -0.427 C  
HETATM    2  C   UNL     1     -10.777  14.583  68.676  1.00  0.00    -0.253 C  
HETATM    3  C   UNL     1      -9.308  13.881  68.286  1.00  0.00    -0.209 C  
HETATM    4  N   UNL     1     -11.192  14.109  70.028  1.00  0.00    -0.471 NA 
HETATM    5  C   UNL     1     -10.788  16.136  68.731  1.00  0.00    -0.310 C  
HETATM    6  H2  UNL     1     -11.429  13.116  70.048  1.00  0.00     0.000 HD 
HETATM    7  N   UNL     1      -9.043  12.608  68.802  1.00  0.00    -0.394 N  
HETATM    8  H1  UNL     1     -10.445  14.354  70.677  1.00  0.00     0.000 HD 
HETATM    9  O   UNL     1      -8.508  14.443  67.539  1.00  0.00    -0.167 OA 
HETATM   10  H   UNL     1      -9.718  12.323  69.511  1.00  0.00     0.000 HD 
ENDROOT
BRANCH   7  11
HETATM   11  C   UNL     1      -7.946  11.517  68.541  1.00  0.00    -0.143 C  
BRANCH  11  12
HETATM   12  C   UNL     1      -7.032  11.440  67.231  1.00  0.00    -0.115 C  
BRANCH  12  13
HETATM   13  C   UNL     1      -7.608  10.793  65.880  1.00  0.00    -0.106 A  
HETATM   14  C   UNL     1      -7.024   9.848  65.057  1.00  0.00    -0.130 A  
HETATM   15  C   UNL     1     -11.114  12.003  64.634  1.00  0.00    -0.375 A  
HETATM   16  C   UNL     1     -11.022  11.486  63.345  1.00  0.00    -0.397 A  
HETATM   17  C   UNL     1      -9.924  10.706  62.988  1.00  0.00    -0.239 A  
HETATM   18  N   UNL     1      -7.787   9.694  63.900  1.00  0.00    -0.129 NA 
HETATM   19  C   UNL     1     -10.070  11.816  65.565  1.00  0.00    -0.285 A  
HETATM   20  C   UNL     1      -8.903  11.085  65.219  1.00  0.00    -0.139 A  
HETATM   21  C   UNL     1      -8.903  10.494  63.954  1.00  0.00    -0.194 A  
HETATM   22  H   UNL     1      -7.550   9.077  63.124  1.00  0.00     0.000 HD 
ENDBRANCH  12  13
ENDBRANCH  11  12
BRANCH  11  23
HETATM   23  C   UNL     1      -8.548  10.155  68.981  1.00  0.00    -0.156 C  
HETATM   24  N   UNL     1      -7.719   9.287  69.664  1.00  0.00    -0.080 N  
HETATM   25  H   UNL     1      -6.803   9.604  69.979  1.00  0.00     0.000 HD 
HETATM   26  O   UNL     1      -9.696   9.847  68.648  1.00  0.00    -0.150 OA 
BRANCH  24  27
HETATM   27  C   UNL     1      -8.144   7.932  69.935  1.00  0.00    -0.118 C  
BRANCH  27  28
HETATM   28  N   UNL     1      -7.042   7.043  69.671  1.00  0.00    -0.069 N  
HETATM   29  O   UNL     1      -7.169   7.204  67.369  1.00  0.00    -0.085 OA 
HETATM   30  C   UNL     1      -6.650   6.760  68.382  1.00  0.00    -0.059 C  
HETATM   31  H   UNL     1      -6.544   6.616  70.452  1.00  0.00     0.000 HD 
ENDBRANCH  27  28
BRANCH  27  32
HETATM   32  C   UNL     1      -8.904   7.655  71.250  1.00  0.00    -0.139 C  
BRANCH  32  33
HETATM   33  C   UNL     1     -10.400   7.505  71.473  1.00  0.00    -0.216 A  
HETATM   34  C   UNL     1     -12.681   7.517  71.794  1.00  0.00    -0.331 A  
HETATM   35  H   UNL     1     -12.810   5.412  71.980  1.00  0.00     0.000 HD 
HETATM   36  C   UNL     1     -14.004   7.966  71.937  1.00  0.00    -0.433 A  
HETATM   37  C   UNL     1     -10.882   6.210  71.640  1.00  0.00    -0.258 A  
HETATM   38  C   UNL     1     -14.226   9.337  71.898  1.00  0.00    -0.210 A  
HETATM   39  N   UNL     1     -12.226   6.235  71.831  1.00  0.00    -0.287 NA 
HETATM   40  C   UNL     1     -13.157  10.216  71.726  1.00  0.00    -0.568 A  
HETATM   41  C   UNL     1     -11.835   9.745  71.571  1.00  0.00    -0.476 A  
HETATM   42  C   UNL     1     -11.569   8.359  71.596  1.00  0.00    -0.348 A  
ENDBRANCH  32  33
ENDBRANCH  27  32
ENDBRANCH  24  27
ENDBRANCH  11  23
ENDBRANCH   7  11
TORSDOF 8
ENDMDL
MODEL      237
REMARK 921   NORMALIZED FREE ENERGY PREDICTED BY IDOCK:   -5.77 KCAL/MOL
REMARK 922        TOTAL FREE ENERGY PREDICTED BY IDOCK:  -10.61 KCAL/MOL
REMARK 923 INTER-LIGAND FREE ENERGY PREDICTED BY IDOCK:   -8.92 KCAL/MOL
REMARK 924 INTRA-LIGAND FREE ENERGY PREDICTED BY IDOCK:   -1.69 KCAL/MOL
REMARK 927      BINDING AFFINITY PREDICTED BY RF-SCORE:    0.00 PKD
ROOT
HETATM    1  C   UNL     1     -11.699  15.367  64.074  1.00  0.00     0.051 C  
HETATM    2  C   UNL     1     -11.558  13.867  64.396  1.00  0.00    -0.382 C  
HETATM    3  C   UNL     1     -12.232  13.443  65.869  1.00  0.00    -0.450 C  
HETATM    4  N   UNL     1     -10.100  13.556  64.427  1.00  0.00    -0.717 NA 
HETATM    5  C   UNL     1     -12.139  13.135  63.155  1.00  0.00    -0.282 C  
HETATM    6  H2  UNL     1      -9.578  14.153  65.070  1.00  0.00     0.000 HD 
HETATM    7  N   UNL     1     -11.418  13.540  67.003  1.00  0.00    -0.324 N  
HETATM    8  H1  UNL     1     -10.007  12.562  64.640  1.00  0.00     0.000 HD 
HETATM    9  O   UNL     1     -13.410  13.099  65.960  1.00  0.00     0.267 OA 
HETATM   10  H   UNL     1     -10.438  13.697  66.771  1.00  0.00     0.000 HD 
ENDROOT
BRANCH   7  11
HETATM   11  C   UNL     1     -11.667  13.463  68.551  1.00  0.00    -0.357 C  
BRANCH  11  12
HETATM   12  C   UNL     1     -11.050  14.476  69.624  1.00  0.00    -0.264 C  
BRANCH  12  13
HETATM   13  C   UNL     1      -9.809  15.414  69.231  1.00  0.00    -0.262 A  
HETATM   14  C   UNL     1      -8.466  15.230  69.502  1.00  0.00    -0.188 A  
HETATM   15  C   UNL     1     -10.571  18.711  67.267  1.00  0.00    -0.480 A  
HETATM   16  C   UNL     1      -9.335  19.318  67.471  1.00  0.00    -0.369 A  
HETATM   17  C   UNL     1      -8.315  18.617  68.112  1.00  0.00    -0.332 A  
HETATM   18  N   UNL     1      -7.749  16.368  69.134  1.00  0.00    -0.237 NA 
HETATM   19  C   UNL     1     -10.835  17.420  67.771  1.00  0.00    -0.257 A  
HETATM   20  C   UNL     1      -9.846  16.699  68.490  1.00  0.00    -0.252 A  
HETATM   21  C   UNL     1      -8.590  17.301  68.576  1.00  0.00    -0.270 A  
HETATM   22  H   UNL     1      -6.745  16.491  69.261  1.00  0.00     0.000 HD 
ENDBRANCH  12  13
ENDBRANCH  11  12
BRANCH  11  23
HETATM   23  C   UNL     1     -11.563  11.967  68.952  1.00  0.00    -0.321 C  
HETATM   24  N   UNL     1     -11.292  11.683  70.276  1.00  0.00    -0.468 N  
HETATM   25  H   UNL     1     -11.306  12.433  70.968  1.00  0.00     0.000 HD 
HETATM   26  O   UNL     1     -11.636  11.086  68.090  1.00  0.00    -0.417 OA 
BRANCH  24  27
HETATM   27  C   UNL     1     -10.990  10.332  70.687  1.00  0.00    -0.214 C  
BRANCH  27  28
HETATM   28  N   UNL     1     -12.083   9.477  70.301  1.00  0.00    -0.464 N  
HETATM   29  O   UNL     1     -13.519  10.182  71.970  1.00  0.00    -0.403 OA 
HETATM   30  C   UNL     1     -13.272   9.487  70.995  1.00  0.00    -0.187 C  
HETATM   31  H   UNL     1     -11.975   8.854  69.501  1.00  0.00     0.000 HD 
ENDBRANCH  27  28
BRANCH  27  32
HETATM   32  C   UNL     1      -9.585   9.772  70.376  1.00  0.00    -0.223 C  
BRANCH  32  33
HETATM   33  C   UNL     1      -9.169   8.335  70.106  1.00  0.00    -0.155 A  
HETATM   34  C   UNL     1      -8.560   6.208  69.464  1.00  0.00    -0.127 A  
HETATM   35  H   UNL     1      -8.311   5.524  71.452  1.00  0.00     0.000 HD 
HETATM   36  C   UNL     1      -8.246   5.096  68.666  1.00  0.00    -0.085 A  
HETATM   37  C   UNL     1      -8.905   7.539  71.218  1.00  0.00    -0.133 A  
HETATM   38  C   UNL     1      -8.360   5.240  67.288  1.00  0.00    -0.107 A  
HETATM   39  N   UNL     1      -8.550   6.290  70.822  1.00  0.00    -0.134 NA 
HETATM   40  C   UNL     1      -8.780   6.452  66.742  1.00  0.00    -0.119 A  
HETATM   41  C   UNL     1      -9.080   7.563  67.560  1.00  0.00    -0.130 A  
HETATM   42  C   UNL     1      -8.967   7.460  68.963  1.00  0.00    -0.131 A  
ENDBRANCH  32  33
ENDBRANCH  27  32
ENDBRANCH  24  27
ENDBRANCH  11  23
ENDBRANCH   7  11
TORSDOF 8
ENDMDL
MODEL      238
REMARK 921   NORMALIZED FREE ENERGY PREDICTED BY IDOCK:   -5.76 KCAL/MOL
REMARK 922        TOTAL FREE ENERGY PREDICTED BY IDOCK:  -10.60 KCAL/MOL
REMARK 923 INTER-LIGAND FREE ENERGY PREDICTED BY IDOCK:   -8.56 KCAL/MOL
REMARK 924 INTRA-LIGAND FREE ENERGY PREDICTED BY IDOCK:   -2.04 KCAL/MOL
REMARK 927      BINDING AFFINITY PREDICTED BY RF-SCORE:    0.00 PKD
ROOT
HETATM    1  C   UNL     1     -13.744  14.794  70.850  1.00  0.00    -0.213 C  
HETATM    2  C   UNL     1     -12.256  14.763  70.449  1.00  0.00    -0.336 C  
HETATM    3  C   UNL     1     -11.995  14.088  68.940  1.00  0.00    -0.352 C  
HETATM    4  N   UNL     1     -11.540  13.946  71.471  1.00  0.00     0.030 NA 
HETATM    5  C   UNL     1     -11.762  16.225  70.628  1.00  0.00    -0.186 C  
HETATM    6  H2  UNL     1     -11.941  13.015  71.591  1.00  0.00     0.000 HD 
HETATM    7  N   UNL     1     -11.817  12.701  68.874  1.00  0.00    -0.311 N  
HETATM    8  H1  UNL     1     -10.555  13.925  71.206  1.00  0.00     0.000 HD 
HETATM    9  O   UNL     1     -11.999  14.777  67.920  1.00  0.00    -0.330 OA 
HETATM   10  H   UNL     1     -11.694  12.277  69.793  1.00  0.00     0.000 HD 
ENDROOT
BRANCH   7  11
HETATM   11  C   UNL     1     -11.764  11.649  67.710  1.00  0.00    -0.245 C  
BRANCH  11  12
HETATM   12  C   UNL     1     -10.879  10.317  67.727  1.00  0.00    -0.346 C  
BRANCH  12  13
HETATM   13  C   UNL     1      -9.568  10.228  68.647  1.00  0.00    -0.169 A  
HETATM   14  C   UNL     1      -9.443   9.723  69.928  1.00  0.00    -0.231 A  
HETATM   15  C   UNL     1      -6.221  11.630  67.184  1.00  0.00    -0.133 A  
HETATM   16  C   UNL     1      -5.517  11.674  68.384  1.00  0.00    -0.045 A  
HETATM   17  C   UNL     1      -6.096  11.164  69.546  1.00  0.00    -0.081 A  
HETATM   18  N   UNL     1      -8.167   9.998  70.421  1.00  0.00    -0.401 NA 
HETATM   19  C   UNL     1      -7.546  11.149  67.138  1.00  0.00    -0.125 A  
HETATM   20  C   UNL     1      -8.196  10.684  68.313  1.00  0.00    -0.120 A  
HETATM   21  C   UNL     1      -7.416  10.645  69.470  1.00  0.00    -0.130 A  
HETATM   22  H   UNL     1      -7.839   9.754  71.355  1.00  0.00     0.000 HD 
ENDBRANCH  12  13
ENDBRANCH  11  12
BRANCH  11  23
HETATM   23  C   UNL     1     -11.691  12.448  66.381  1.00  0.00    -0.391 C  
HETATM   24  N   UNL     1     -10.436  12.712  65.869  1.00  0.00    -0.269 N  
HETATM   25  H   UNL     1      -9.616  12.271  66.285  1.00  0.00     0.000 HD 
HETATM   26  O   UNL     1     -12.721  12.894  65.866  1.00  0.00    -0.437 OA 
BRANCH  24  27
HETATM   27  C   UNL     1     -10.278  13.610  64.749  1.00  0.00    -0.337 C  
BRANCH  27  28
HETATM   28  N   UNL     1     -11.110  13.148  63.667  1.00  0.00    -0.568 N  
HETATM   29  O   UNL     1      -9.841  11.277  63.190  1.00  0.00    -0.330 OA 
HETATM   30  C   UNL     1     -10.805  11.997  62.977  1.00  0.00    -0.005 C  
HETATM   31  H   UNL     1     -11.939  13.684  63.408  1.00  0.00     0.000 HD 
ENDBRANCH  27  28
BRANCH  27  32
HETATM   32  C   UNL     1     -10.342  15.129  65.016  1.00  0.00    -0.377 C  
BRANCH  32  33
HETATM   33  C   UNL     1      -9.649  15.936  66.102  1.00  0.00    -0.365 A  
HETATM   34  C   UNL     1      -8.437  16.982  67.759  1.00  0.00    -0.198 A  
HETATM   35  H   UNL     1      -9.725  18.660  67.840  1.00  0.00     0.000 HD 
HETATM   36  C   UNL     1      -7.446  17.250  68.717  1.00  0.00    -0.260 A  
HETATM   37  C   UNL     1     -10.227  17.157  66.441  1.00  0.00    -0.328 A  
HETATM   38  C   UNL     1      -6.465  16.286  68.917  1.00  0.00    -0.141 A  
HETATM   39  N   UNL     1      -9.502  17.758  67.420  1.00  0.00    -0.251 NA 
HETATM   40  C   UNL     1      -6.490  15.100  68.184  1.00  0.00    -0.135 A  
HETATM   41  C   UNL     1      -7.487  14.853  67.216  1.00  0.00    -0.193 A  
HETATM   42  C   UNL     1      -8.495  15.812  66.977  1.00  0.00    -0.251 A  
ENDBRANCH  32  33
ENDBRANCH  27  32
ENDBRANCH  24  27
ENDBRANCH  11  23
ENDBRANCH   7  11
TORSDOF 8
ENDMDL
MODEL      239
REMARK 921   NORMALIZED FREE ENERGY PREDICTED BY IDOCK:   -5.76 KCAL/MOL
REMARK 922        TOTAL FREE ENERGY PREDICTED BY IDOCK:  -10.60 KCAL/MOL
REMARK 923 INTER-LIGAND FREE ENERGY PREDICTED BY IDOCK:   -6.47 KCAL/MOL
REMARK 924 INTRA-LIGAND FREE ENERGY PREDICTED BY IDOCK:   -4.12 KCAL/MOL
REMARK 927      BINDING AFFINITY PREDICTED BY RF-SCORE:    0.00 PKD
ROOT
HETATM    1  C   UNL     1     -11.115  11.759  66.147  1.00  0.00    -0.358 C  
HETATM    2  C   UNL     1     -11.047  12.409  67.542  1.00  0.00    -0.266 C  
HETATM    3  C   UNL     1      -9.635  12.052  68.367  1.00  0.00    -0.190 C  
HETATM    4  N   UNL     1     -12.206  11.895  68.327  1.00  0.00    -0.365 NA 
HETATM    5  C   UNL     1     -11.318  13.919  67.294  1.00  0.00    -0.344 C  
HETATM    6  H2  UNL     1     -12.243  10.875  68.363  1.00  0.00     0.000 HD 
HETATM    7  N   UNL     1      -9.620  10.890  69.148  1.00  0.00    -0.370 N  
HETATM    8  H1  UNL     1     -12.161  12.325  69.251  1.00  0.00     0.000 HD 
HETATM    9  O   UNL     1      -8.634  12.759  68.261  1.00  0.00    -0.177 OA 
HETATM   10  H   UNL     1     -10.547  10.480  69.260  1.00  0.00     0.000 HD 
ENDROOT
BRANCH   7  11
HETATM   11  C   UNL     1      -8.504  10.072  69.889  1.00  0.00    -0.150 C  
BRANCH  11  12
HETATM   12  C   UNL     1      -6.957  10.066  69.481  1.00  0.00    -0.078 C  
BRANCH  12  13
HETATM   13  C   UNL     1      -6.459   9.225  68.209  1.00  0.00    -0.055 A  
HETATM   14  C   UNL     1      -5.210   8.687  67.963  1.00  0.00    -0.035 A  
HETATM   15  C   UNL     1      -9.035   8.575  65.336  1.00  0.00    -0.150 A  
HETATM   16  C   UNL     1      -8.115   8.172  64.372  1.00  0.00    -0.138 A  
HETATM   17  C   UNL     1      -6.771   8.028  64.714  1.00  0.00    -0.059 A  
HETATM   18  N   UNL     1      -5.159   8.185  66.663  1.00  0.00    -0.027 NA 
HETATM   19  C   UNL     1      -8.616   8.918  66.639  1.00  0.00    -0.130 A  
HETATM   20  C   UNL     1      -7.246   8.850  67.008  1.00  0.00    -0.079 A  
HETATM   21  C   UNL     1      -6.376   8.338  66.044  1.00  0.00    -0.049 A  
HETATM   22  H   UNL     1      -4.336   7.763  66.233  1.00  0.00     0.000 HD 
ENDBRANCH  12  13
ENDBRANCH  11  12
BRANCH  11  23
HETATM   23  C   UNL     1      -9.093   8.666  70.182  1.00  0.00    -0.158 C  
HETATM   24  N   UNL     1     -10.344   8.384  69.669  1.00  0.00    -0.214 N  
HETATM   25  H   UNL     1     -10.780   9.031  69.012  1.00  0.00     0.000 HD 
HETATM   26  O   UNL     1      -8.489   7.880  70.917  1.00  0.00    -0.121 OA 
BRANCH  24  27
HETATM   27  C   UNL     1     -11.038   7.178  70.058  1.00  0.00    -0.258 C  
BRANCH  27  28
HETATM   28  N   UNL     1     -12.319   7.541  70.610  1.00  0.00    -0.539 N  
HETATM   29  O   UNL     1     -11.477   8.402  72.583  1.00  0.00    -0.380 OA 
HETATM   30  C   UNL     1     -12.416   8.135  71.848  1.00  0.00    -0.332 C  
HETATM   31  H   UNL     1     -13.166   7.355  70.074  1.00  0.00     0.000 HD 
ENDBRANCH  27  28
BRANCH  27  32
HETATM   32  C   UNL     1     -11.070   6.000  69.061  1.00  0.00    -0.377 C  
BRANCH  32  33
HETATM   33  C   UNL     1     -10.039   5.609  68.015  1.00  0.00    -0.211 A  
HETATM   34  C   UNL     1      -8.312   5.029  66.604  1.00  0.00    -0.107 A  
HETATM   35  H   UNL     1      -9.568   4.844  64.910  1.00  0.00     0.000 HD 
HETATM   36  C   UNL     1      -7.028   4.718  66.128  1.00  0.00    -0.070 A  
HETATM   37  C   UNL     1     -10.509   5.389  66.723  1.00  0.00    -0.289 A  
HETATM   38  C   UNL     1      -5.972   4.796  67.027  1.00  0.00    -0.027 A  
HETATM   39  N   UNL     1      -9.480   5.051  65.904  1.00  0.00    -0.158 NA 
HETATM   40  C   UNL     1      -6.202   5.177  68.348  1.00  0.00    -0.031 A  
HETATM   41  C   UNL     1      -7.502   5.473  68.812  1.00  0.00    -0.079 A  
HETATM   42  C   UNL     1      -8.603   5.397  67.932  1.00  0.00    -0.104 A  
ENDBRANCH  32  33
ENDBRANCH  27  32
ENDBRANCH  24  27
ENDBRANCH  11  23
ENDBRANCH   7  11
TORSDOF 8
ENDMDL
MODEL      240
REMARK 921   NORMALIZED FREE ENERGY PREDICTED BY IDOCK:   -5.75 KCAL/MOL
REMARK 922        TOTAL FREE ENERGY PREDICTED BY IDOCK:  -10.58 KCAL/MOL
REMARK 923 INTER-LIGAND FREE ENERGY PREDICTED BY IDOCK:   -8.81 KCAL/MOL
REMARK 924 INTRA-LIGAND FREE ENERGY PREDICTED BY IDOCK:   -1.77 KCAL/MOL
REMARK 927      BINDING AFFINITY PREDICTED BY RF-SCORE:    0.00 PKD
ROOT
HETATM    1  C   UNL     1     -11.088   9.747  71.238  1.00  0.00    -0.375 C  
HETATM    2  C   UNL     1     -12.229  10.635  70.703  1.00  0.00    -0.365 C  
HETATM    3  C   UNL     1     -11.852  11.394  69.260  1.00  0.00    -0.349 C  
HETATM    4  N   UNL     1     -12.502  11.675  71.737  1.00  0.00    -0.065 NA 
HETATM    5  C   UNL     1     -13.476   9.707  70.671  1.00  0.00     0.091 C  
HETATM    6  H2  UNL     1     -11.671  12.207  71.997  1.00  0.00     0.000 HD 
HETATM    7  N   UNL     1     -11.213  12.637  69.332  1.00  0.00    -0.433 N  
HETATM    8  H1  UNL     1     -13.258  12.262  71.383  1.00  0.00     0.000 HD 
HETATM    9  O   UNL     1     -12.089  10.864  68.175  1.00  0.00    -0.563 OA 
HETATM   10  H   UNL     1     -11.206  13.021  70.276  1.00  0.00     0.000 HD 
ENDROOT
BRANCH   7  11
HETATM   11  C   UNL     1     -10.503  13.576  68.293  1.00  0.00    -0.253 C  
BRANCH  11  12
HETATM   12  C   UNL     1     -11.026  13.847  66.806  1.00  0.00    -0.301 C  
BRANCH  12  13
HETATM   13  C   UNL     1     -11.039  15.336  66.211  1.00  0.00    -0.273 A  
HETATM   14  C   UNL     1     -11.364  15.755  64.935  1.00  0.00    -0.280 A  
HETATM   15  C   UNL     1     -10.000  18.257  68.599  1.00  0.00    -0.410 A  
HETATM   16  C   UNL     1      -9.818  19.224  67.614  1.00  0.00    -0.429 A  
HETATM   17  C   UNL     1     -10.134  18.930  66.288  1.00  0.00    -0.460 A  
HETATM   18  N   UNL     1     -11.077  17.113  64.795  1.00  0.00    -0.925 NA 
HETATM   19  C   UNL     1     -10.427  16.954  68.265  1.00  0.00    -0.352 A  
HETATM   20  C   UNL     1     -10.694  16.595  66.918  1.00  0.00    -0.153 A  
HETATM   21  C   UNL     1     -10.602  17.624  65.979  1.00  0.00    -0.220 A  
HETATM   22  H   UNL     1     -11.200  17.649  63.937  1.00  0.00     0.000 HD 
ENDBRANCH  12  13
ENDBRANCH  11  12
BRANCH  11  23
HETATM   23  C   UNL     1      -8.981  13.291  68.393  1.00  0.00    -0.124 C  
HETATM   24  N   UNL     1      -8.589  11.972  68.509  1.00  0.00    -0.297 N  
HETATM   25  H   UNL     1      -9.275  11.227  68.388  1.00  0.00     0.000 HD 
HETATM   26  O   UNL     1      -8.176  14.226  68.452  1.00  0.00    -0.133 OA 
BRANCH  24  27
HETATM   27  C   UNL     1      -7.213  11.641  68.800  1.00  0.00    -0.116 C  
BRANCH  27  28
HETATM   28  N   UNL     1      -7.174  10.850  70.004  1.00  0.00    -0.330 N  
HETATM   29  O   UNL     1      -8.410   9.091  69.158  1.00  0.00    -0.118 OA 
HETATM   30  C   UNL     1      -7.789   9.621  70.067  1.00  0.00    -0.165 C  
HETATM   31  H   UNL     1      -6.682  11.208  70.823  1.00  0.00     0.000 HD 
ENDBRANCH  27  28
BRANCH  27  32
HETATM   32  C   UNL     1      -6.329  11.116  67.648  1.00  0.00    -0.054 C  
BRANCH  32  33
HETATM   33  C   UNL     1      -6.748  10.405  66.372  1.00  0.00    -0.107 A  
HETATM   34  C   UNL     1      -7.571   9.478  64.430  1.00  0.00    -0.122 A  
HETATM   35  H   UNL     1      -6.015   8.051  64.283  1.00  0.00     0.000 HD 
HETATM   36  C   UNL     1      -8.381   9.235  63.309  1.00  0.00    -0.193 A  
HETATM   37  C   UNL     1      -5.932   9.364  65.937  1.00  0.00    -0.055 A  
HETATM   38  C   UNL     1      -9.524  10.012  63.159  1.00  0.00    -0.229 A  
HETATM   39  N   UNL     1      -6.432   8.828  64.794  1.00  0.00    -0.066 NA 
HETATM   40  C   UNL     1      -9.837  10.987  64.105  1.00  0.00    -0.360 A  
HETATM   41  C   UNL     1      -9.004  11.226  65.220  1.00  0.00    -0.079 A  
HETATM   42  C   UNL     1      -7.829  10.465  65.402  1.00  0.00    -0.143 A  
ENDBRANCH  32  33
ENDBRANCH  27  32
ENDBRANCH  24  27
ENDBRANCH  11  23
ENDBRANCH   7  11
TORSDOF 8
ENDMDL
MODEL      241
REMARK 921   NORMALIZED FREE ENERGY PREDICTED BY IDOCK:   -5.74 KCAL/MOL
REMARK 922        TOTAL FREE ENERGY PREDICTED BY IDOCK:  -10.57 KCAL/MOL
REMARK 923 INTER-LIGAND FREE ENERGY PREDICTED BY IDOCK:   -8.54 KCAL/MOL
REMARK 924 INTRA-LIGAND FREE ENERGY PREDICTED BY IDOCK:   -2.03 KCAL/MOL
REMARK 927      BINDING AFFINITY PREDICTED BY RF-SCORE:    0.00 PKD
ROOT
HETATM    1  C   UNL     1      -9.254   6.264  73.174  1.00  0.00    -0.131 C  
HETATM    2  C   UNL     1     -10.488   5.486  72.678  1.00  0.00    -0.215 C  
HETATM    3  C   UNL     1     -10.242   4.729  71.205  1.00  0.00    -0.158 C  
HETATM    4  N   UNL     1     -11.601   6.469  72.533  1.00  0.00    -0.427 NA 
HETATM    5  C   UNL     1     -10.875   4.553  73.859  1.00  0.00    -0.344 C  
HETATM    6  H2  UNL     1     -11.360   7.259  71.934  1.00  0.00     0.000 HD 
HETATM    7  N   UNL     1     -10.512   5.466  70.046  1.00  0.00    -0.301 N  
HETATM    8  H1  UNL     1     -12.419   5.954  72.204  1.00  0.00     0.000 HD 
HETATM    9  O   UNL     1      -9.801   3.582  71.140  1.00  0.00    -0.179 OA 
HETATM   10  H   UNL     1     -11.001   6.339  70.241  1.00  0.00     0.000 HD 
ENDROOT
BRANCH   7  11
HETATM   11  C   UNL     1     -10.235   5.258  68.516  1.00  0.00    -0.144 C  
BRANCH  11  12
HETATM   12  C   UNL     1      -8.989   4.453  67.918  1.00  0.00    -0.138 C  
BRANCH  12  13
HETATM   13  C   UNL     1      -8.467   4.756  66.431  1.00  0.00    -0.110 A  
HETATM   14  C   UNL     1      -7.373   5.502  66.034  1.00  0.00    -0.078 A  
HETATM   15  C   UNL     1     -10.507   3.259  63.447  1.00  0.00    -0.233 A  
HETATM   16  C   UNL     1      -9.937   4.040  62.445  1.00  0.00    -0.154 A  
HETATM   17  C   UNL     1      -8.884   4.901  62.751  1.00  0.00    -0.099 A  
HETATM   18  N   UNL     1      -7.383   5.653  64.648  1.00  0.00    -0.065 NA 
HETATM   19  C   UNL     1     -10.087   3.383  64.788  1.00  0.00    -0.037 A  
HETATM   20  C   UNL     1      -9.064   4.298  65.153  1.00  0.00    -0.145 A  
HETATM   21  C   UNL     1      -8.448   4.979  64.101  1.00  0.00    -0.136 A  
HETATM   22  H   UNL     1      -6.697   6.188  64.116  1.00  0.00     0.000 HD 
ENDBRANCH  12  13
ENDBRANCH  11  12
BRANCH  11  23
HETATM   23  C   UNL     1     -10.513   6.616  67.817  1.00  0.00    -0.225 C  
HETATM   24  N   UNL     1      -9.851   7.726  68.304  1.00  0.00    -0.162 N  
HETATM   25  H   UNL     1      -9.111   7.611  68.997  1.00  0.00     0.000 HD 
HETATM   26  O   UNL     1     -11.360   6.693  66.923  1.00  0.00    -0.333 OA 
BRANCH  24  27
HETATM   27  C   UNL     1     -10.200   9.048  67.838  1.00  0.00    -0.221 C  
BRANCH  27  28
HETATM   28  N   UNL     1     -10.131   9.962  68.950  1.00  0.00    -0.176 N  
HETATM   29  O   UNL     1     -11.425   8.682  70.374  1.00  0.00    -0.239 OA 
HETATM   30  C   UNL     1     -10.763   9.682  70.140  1.00  0.00    -0.275 C  
HETATM   31  H   UNL     1      -9.605  10.830  68.853  1.00  0.00     0.000 HD 
ENDBRANCH  27  28
BRANCH  27  32
HETATM   32  C   UNL     1      -9.548   9.558  66.535  1.00  0.00    -0.259 C  
BRANCH  32  33
HETATM   33  C   UNL     1     -10.114  10.513  65.497  1.00  0.00    -0.349 A  
HETATM   34  C   UNL     1     -11.077  12.076  64.104  1.00  0.00    -0.368 A  
HETATM   35  H   UNL     1     -10.243  11.237  62.349  1.00  0.00     0.000 HD 
HETATM   36  C   UNL     1     -11.817  13.180  63.651  1.00  0.00    -0.549 A  
HETATM   37  C   UNL     1      -9.766  10.274  64.170  1.00  0.00    -0.291 A  
HETATM   38  C   UNL     1     -12.520  13.916  64.597  1.00  0.00    -0.361 A  
HETATM   39  N   UNL     1     -10.344  11.201  63.363  1.00  0.00    -0.376 NA 
HETATM   40  C   UNL     1     -12.482  13.548  65.941  1.00  0.00    -0.484 A  
HETATM   41  C   UNL     1     -11.723  12.442  66.380  1.00  0.00    -0.453 A  
HETATM   42  C   UNL     1     -10.987  11.674  65.452  1.00  0.00    -0.328 A  
ENDBRANCH  32  33
ENDBRANCH  27  32
ENDBRANCH  24  27
ENDBRANCH  11  23
ENDBRANCH   7  11
TORSDOF 8
ENDMDL
MODEL      242
REMARK 921   NORMALIZED FREE ENERGY PREDICTED BY IDOCK:   -5.74 KCAL/MOL
REMARK 922        TOTAL FREE ENERGY PREDICTED BY IDOCK:  -10.56 KCAL/MOL
REMARK 923 INTER-LIGAND FREE ENERGY PREDICTED BY IDOCK:   -8.92 KCAL/MOL
REMARK 924 INTRA-LIGAND FREE ENERGY PREDICTED BY IDOCK:   -1.64 KCAL/MOL
REMARK 927      BINDING AFFINITY PREDICTED BY RF-SCORE:    0.00 PKD
ROOT
HETATM    1  C   UNL     1      -8.908   5.963  71.798  1.00  0.00    -0.139 C  
HETATM    2  C   UNL     1      -9.915   7.123  71.924  1.00  0.00    -0.167 C  
HETATM    3  C   UNL     1     -10.680   7.491  70.481  1.00  0.00    -0.235 C  
HETATM    4  N   UNL     1      -9.155   8.321  72.384  1.00  0.00    -0.215 NA 
HETATM    5  C   UNL     1     -10.849   6.717  73.097  1.00  0.00    -0.298 C  
HETATM    6  H2  UNL     1      -8.361   8.545  71.783  1.00  0.00     0.000 HD 
HETATM    7  N   UNL     1     -10.055   8.414  69.635  1.00  0.00    -0.194 N  
HETATM    8  H1  UNL     1      -9.822   9.089  72.467  1.00  0.00     0.000 HD 
HETATM    9  O   UNL     1     -11.732   6.941  70.155  1.00  0.00    -0.312 OA 
HETATM   10  H   UNL     1      -9.276   8.894  70.085  1.00  0.00     0.000 HD 
ENDROOT
BRANCH   7  11
HETATM   11  C   UNL     1     -10.277   8.881  68.154  1.00  0.00    -0.201 C  
BRANCH  11  12
HETATM   12  C   UNL     1      -9.562   8.234  66.878  1.00  0.00    -0.269 C  
BRANCH  12  13
HETATM   13  C   UNL     1      -9.826   6.699  66.494  1.00  0.00    -0.165 A  
HETATM   14  C   UNL     1     -10.889   5.889  66.847  1.00  0.00    -0.296 A  
HETATM   15  C   UNL     1      -7.146   4.889  64.291  1.00  0.00    -0.050 A  
HETATM   16  C   UNL     1      -7.588   3.589  64.522  1.00  0.00    -0.076 A  
HETATM   17  C   UNL     1      -8.751   3.373  65.259  1.00  0.00    -0.121 A  
HETATM   18  N   UNL     1     -10.637   4.577  66.447  1.00  0.00    -0.378 NA 
HETATM   19  C   UNL     1      -7.816   5.993  64.859  1.00  0.00    -0.106 A  
HETATM   20  C   UNL     1      -8.965   5.812  65.673  1.00  0.00    -0.122 A  
HETATM   21  C   UNL     1      -9.434   4.502  65.788  1.00  0.00    -0.172 A  
HETATM   22  H   UNL     1     -11.258   3.787  66.619  1.00  0.00     0.000 HD 
ENDBRANCH  12  13
ENDBRANCH  11  12
BRANCH  11  23
HETATM   23  C   UNL     1     -10.281  10.433  68.165  1.00  0.00    -0.161 C  
HETATM   24  N   UNL     1     -10.538  11.075  66.969  1.00  0.00    -0.243 N  
HETATM   25  H   UNL     1     -10.851  10.536  66.162  1.00  0.00     0.000 HD 
HETATM   26  O   UNL     1      -9.977  11.049  69.191  1.00  0.00    -0.195 OA 
BRANCH  24  27
HETATM   27  C   UNL     1     -10.369  12.505  66.855  1.00  0.00    -0.229 C  
BRANCH  27  28
HETATM   28  N   UNL     1      -9.759  12.797  65.584  1.00  0.00    -0.433 N  
HETATM   29  O   UNL     1     -11.351  11.705  64.314  1.00  0.00    -0.332 OA 
HETATM   30  C   UNL     1     -10.324  12.361  64.407  1.00  0.00    -0.343 C  
HETATM   31  H   UNL     1      -8.894  13.337  65.555  1.00  0.00     0.000 HD 
ENDBRANCH  27  28
BRANCH  27  32
HETATM   32  C   UNL     1     -11.560  13.413  67.230  1.00  0.00    -0.400 C  
BRANCH  32  33
HETATM   33  C   UNL     1     -11.881  14.062  68.567  1.00  0.00    -0.399 A  
HETATM   34  C   UNL     1     -12.426  14.825  70.671  1.00  0.00    -0.345 A  
HETATM   35  H   UNL     1     -11.973  16.842  70.213  1.00  0.00     0.000 HD 
HETATM   36  C   UNL     1     -12.837  14.851  72.014  1.00  0.00    -0.399 A  
HETATM   37  C   UNL     1     -11.695  15.439  68.656  1.00  0.00    -0.354 A  
HETATM   38  C   UNL     1     -13.240  13.651  72.587  1.00  0.00    -0.533 A  
HETATM   39  N   UNL     1     -12.022  15.872  69.901  1.00  0.00    -0.313 NA 
HETATM   40  C   UNL     1     -13.235  12.478  71.834  1.00  0.00    -0.495 A  
HETATM   41  C   UNL     1     -12.807  12.468  70.489  1.00  0.00     0.081 A  
HETATM   42  C   UNL     1     -12.380  13.665  69.873  1.00  0.00    -0.310 A  
ENDBRANCH  32  33
ENDBRANCH  27  32
ENDBRANCH  24  27
ENDBRANCH  11  23
ENDBRANCH   7  11
TORSDOF 8
ENDMDL
MODEL      243
REMARK 921   NORMALIZED FREE ENERGY PREDICTED BY IDOCK:   -5.73 KCAL/MOL
REMARK 922        TOTAL FREE ENERGY PREDICTED BY IDOCK:  -10.55 KCAL/MOL
REMARK 923 INTER-LIGAND FREE ENERGY PREDICTED BY IDOCK:   -8.29 KCAL/MOL
REMARK 924 INTRA-LIGAND FREE ENERGY PREDICTED BY IDOCK:   -2.26 KCAL/MOL
REMARK 927      BINDING AFFINITY PREDICTED BY RF-SCORE:    0.00 PKD
ROOT
HETATM    1  C   UNL     1      -7.357   3.768  66.284  1.00  0.00    -0.075 C  
HETATM    2  C   UNL     1      -8.666   3.345  66.977  1.00  0.00    -0.122 C  
HETATM    3  C   UNL     1      -9.905   4.453  66.777  1.00  0.00    -0.218 C  
HETATM    4  N   UNL     1      -8.373   3.210  68.433  1.00  0.00    -0.072 NA 
HETATM    5  C   UNL     1      -8.953   1.912  66.450  1.00  0.00    -0.099 C  
HETATM    6  H2  UNL     1      -7.961   4.052  68.837  1.00  0.00     0.000 HD 
HETATM    7  N   UNL     1     -10.001   5.491  67.712  1.00  0.00    -0.145 N  
HETATM    8  H1  UNL     1      -9.240   2.930  68.892  1.00  0.00     0.000 HD 
HETATM    9  O   UNL     1     -10.679   4.385  65.823  1.00  0.00    -0.221 OA 
HETATM   10  H   UNL     1      -9.396   5.348  68.520  1.00  0.00     0.000 HD 
ENDROOT
BRANCH   7  11
HETATM   11  C   UNL     1     -10.825   6.823  67.802  1.00  0.00    -0.264 C  
BRANCH  11  12
HETATM   12  C   UNL     1     -10.516   8.144  66.954  1.00  0.00    -0.379 C  
BRANCH  12  13
HETATM   13  C   UNL     1      -9.060   8.380  66.325  1.00  0.00    -0.241 A  
HETATM   14  C   UNL     1      -8.301   7.518  65.556  1.00  0.00    -0.133 A  
HETATM   15  C   UNL     1      -7.312  11.810  67.019  1.00  0.00    -0.133 A  
HETATM   16  C   UNL     1      -6.032  11.431  66.623  1.00  0.00    -0.147 A  
HETATM   17  C   UNL     1      -5.824  10.169  66.068  1.00  0.00    -0.074 A  
HETATM   18  N   UNL     1      -7.027   8.053  65.364  1.00  0.00    -0.062 NA 
HETATM   19  C   UNL     1      -8.392  10.907  66.940  1.00  0.00    -0.133 A  
HETATM   20  C   UNL     1      -8.209   9.589  66.444  1.00  0.00    -0.115 A  
HETATM   21  C   UNL     1      -6.934   9.289  65.959  1.00  0.00    -0.089 A  
HETATM   22  H   UNL     1      -6.273   7.594  64.856  1.00  0.00     0.000 HD 
ENDBRANCH  12  13
ENDBRANCH  11  12
BRANCH  11  23
HETATM   23  C   UNL     1     -11.105   7.081  69.307  1.00  0.00    -0.127 C  
HETATM   24  N   UNL     1     -11.331   8.387  69.695  1.00  0.00    -0.430 N  
HETATM   25  H   UNL     1     -11.446   9.113  68.988  1.00  0.00     0.000 HD 
HETATM   26  O   UNL     1     -11.037   6.154  70.119  1.00  0.00    -0.323 OA 
BRANCH  24  27
HETATM   27  C   UNL     1     -11.405   8.731  71.096  1.00  0.00    -0.285 C  
BRANCH  27  28
HETATM   28  N   UNL     1     -10.073   8.722  71.644  1.00  0.00    -0.291 N  
HETATM   29  O   UNL     1     -10.593   7.416  73.478  1.00  0.00    -0.376 OA 
HETATM   30  C   UNL     1      -9.789   8.047  72.809  1.00  0.00    -0.282 C  
HETATM   31  H   UNL     1      -9.329   9.225  71.161  1.00  0.00     0.000 HD 
ENDBRANCH  27  28
BRANCH  27  32
HETATM   32  C   UNL     1     -12.270   9.943  71.505  1.00  0.00    -0.505 C  
BRANCH  32  33
HETATM   33  C   UNL     1     -12.273  11.349  70.930  1.00  0.00    -0.447 A  
HETATM   34  C   UNL     1     -12.222  13.382  69.846  1.00  0.00    -0.271 A  
HETATM   35  H   UNL     1     -12.705  14.484  71.588  1.00  0.00     0.000 HD 
HETATM   36  C   UNL     1     -12.098  14.351  68.838  1.00  0.00    -0.288 A  
HETATM   37  C   UNL     1     -12.565  12.387  71.811  1.00  0.00    -0.016 A  
HETATM   38  C   UNL     1     -11.741  13.916  67.567  1.00  0.00    -0.416 A  
HETATM   39  N   UNL     1     -12.528  13.577  71.158  1.00  0.00    -0.358 NA 
HETATM   40  C   UNL     1     -11.514  12.562  67.328  1.00  0.00    -0.416 A  
HETATM   41  C   UNL     1     -11.657  11.600  68.351  1.00  0.00    -0.376 A  
HETATM   42  C   UNL     1     -12.027  12.001  69.654  1.00  0.00    -0.360 A  
ENDBRANCH  32  33
ENDBRANCH  27  32
ENDBRANCH  24  27
ENDBRANCH  11  23
ENDBRANCH   7  11
TORSDOF 8
ENDMDL
MODEL      244
REMARK 921   NORMALIZED FREE ENERGY PREDICTED BY IDOCK:   -5.72 KCAL/MOL
REMARK 922        TOTAL FREE ENERGY PREDICTED BY IDOCK:  -10.53 KCAL/MOL
REMARK 923 INTER-LIGAND FREE ENERGY PREDICTED BY IDOCK:   -8.22 KCAL/MOL
REMARK 924 INTRA-LIGAND FREE ENERGY PREDICTED BY IDOCK:   -2.31 KCAL/MOL
REMARK 927      BINDING AFFINITY PREDICTED BY RF-SCORE:    0.00 PKD
ROOT
HETATM    1  C   UNL     1      -7.192   2.619  68.709  1.00  0.00    -0.048 C  
HETATM    2  C   UNL     1      -6.563   4.026  68.731  1.00  0.00    -0.045 C  
HETATM    3  C   UNL     1      -7.557   5.182  69.422  1.00  0.00    -0.061 C  
HETATM    4  N   UNL     1      -6.289   4.410  67.317  1.00  0.00    -0.039 NA 
HETATM    5  C   UNL     1      -5.179   3.834  69.412  1.00  0.00    -0.011 C  
HETATM    6  H2  UNL     1      -7.115   4.352  66.720  1.00  0.00     0.000 HD 
HETATM    7  N   UNL     1      -8.464   5.839  68.583  1.00  0.00    -0.107 N  
HETATM    8  H1  UNL     1      -5.873   5.341  67.332  1.00  0.00     0.000 HD 
HETATM    9  O   UNL     1      -7.524   5.418  70.629  1.00  0.00    -0.075 OA 
HETATM   10  H   UNL     1      -8.290   5.654  67.595  1.00  0.00     0.000 HD 
ENDROOT
BRANCH   7  11
HETATM   11  C   UNL     1      -9.688   6.794  68.812  1.00  0.00    -0.132 C  
BRANCH  11  12
HETATM   12  C   UNL     1     -11.033   6.384  69.574  1.00  0.00    -0.421 C  
BRANCH  12  13
HETATM   13  C   UNL     1     -11.644   7.339  70.708  1.00  0.00    -0.334 A  
HETATM   14  C   UNL     1     -12.210   6.990  71.920  1.00  0.00    -0.327 A  
HETATM   15  C   UNL     1     -11.611  11.196  70.051  1.00  0.00    -0.421 A  
HETATM   16  C   UNL     1     -12.509  11.546  71.056  1.00  0.00    -0.458 A  
HETATM   17  C   UNL     1     -12.978  10.572  71.936  1.00  0.00    -0.553 A  
HETATM   18  N   UNL     1     -12.769   8.116  72.523  1.00  0.00    -0.580 NA 
HETATM   19  C   UNL     1     -11.228   9.852  69.858  1.00  0.00    -0.298 A  
HETATM   20  C   UNL     1     -11.738   8.820  70.690  1.00  0.00    -0.194 A  
HETATM   21  C   UNL     1     -12.548   9.231  71.750  1.00  0.00    -0.382 A  
HETATM   22  H   UNL     1     -13.271   8.114  73.410  1.00  0.00     0.000 HD 
ENDBRANCH  12  13
ENDBRANCH  11  12
BRANCH  11  23
HETATM   23  C   UNL     1      -9.916   7.563  67.483  1.00  0.00    -0.174 C  
HETATM   24  N   UNL     1      -9.034   8.582  67.181  1.00  0.00    -0.128 N  
HETATM   25  H   UNL     1      -8.196   8.711  67.748  1.00  0.00     0.000 HD 
HETATM   26  O   UNL     1     -10.902   7.315  66.782  1.00  0.00    -0.311 OA 
BRANCH  24  27
HETATM   27  C   UNL     1      -9.291   9.466  66.067  1.00  0.00    -0.220 C  
BRANCH  27  28
HETATM   28  N   UNL     1      -9.267   8.694  64.851  1.00  0.00    -0.390 N  
HETATM   29  O   UNL     1      -6.977   8.380  64.829  1.00  0.00    -0.070 OA 
HETATM   30  C   UNL     1      -8.083   8.212  64.339  1.00  0.00    -0.138 C  
HETATM   31  H   UNL     1     -10.140   8.501  64.362  1.00  0.00     0.000 HD 
ENDBRANCH  27  28
BRANCH  27  32
HETATM   32  C   UNL     1     -10.464  10.462  66.182  1.00  0.00    -0.224 C  
BRANCH  32  33
HETATM   33  C   UNL     1     -10.448  11.901  66.671  1.00  0.00    -0.250 A  
HETATM   34  C   UNL     1     -10.190  14.053  67.453  1.00  0.00    -0.248 A  
HETATM   35  H   UNL     1     -12.228  14.552  67.174  1.00  0.00     0.000 HD 
HETATM   36  C   UNL     1      -9.607  15.222  67.968  1.00  0.00    -0.203 A  
HETATM   37  C   UNL     1     -11.658  12.590  66.633  1.00  0.00    -0.380 A  
HETATM   38  C   UNL     1      -8.256  15.180  68.291  1.00  0.00    -0.144 A  
HETATM   39  N   UNL     1     -11.489  13.854  67.099  1.00  0.00    -0.329 NA 
HETATM   40  C   UNL     1      -7.528  14.005  68.108  1.00  0.00    -0.131 A  
HETATM   41  C   UNL     1      -8.128  12.842  67.577  1.00  0.00    -0.181 A  
HETATM   42  C   UNL     1      -9.496  12.848  67.227  1.00  0.00    -0.216 A  
ENDBRANCH  32  33
ENDBRANCH  27  32
ENDBRANCH  24  27
ENDBRANCH  11  23
ENDBRANCH   7  11
TORSDOF 8
ENDMDL
MODEL      245
REMARK 921   NORMALIZED FREE ENERGY PREDICTED BY IDOCK:   -5.71 KCAL/MOL
REMARK 922        TOTAL FREE ENERGY PREDICTED BY IDOCK:  -10.53 KCAL/MOL
REMARK 923 INTER-LIGAND FREE ENERGY PREDICTED BY IDOCK:   -8.45 KCAL/MOL
REMARK 924 INTRA-LIGAND FREE ENERGY PREDICTED BY IDOCK:   -2.08 KCAL/MOL
REMARK 927      BINDING AFFINITY PREDICTED BY RF-SCORE:    0.00 PKD
ROOT
HETATM    1  C   UNL     1      -9.124   8.184  70.861  1.00  0.00    -0.169 C  
HETATM    2  C   UNL     1     -10.582   8.462  70.446  1.00  0.00    -0.223 C  
HETATM    3  C   UNL     1     -10.710   9.217  68.957  1.00  0.00    -0.167 C  
HETATM    4  N   UNL     1     -11.177   9.349  71.487  1.00  0.00    -0.378 NA 
HETATM    5  C   UNL     1     -11.303   7.091  70.570  1.00  0.00    -0.355 C  
HETATM    6  H2  UNL     1     -10.637  10.201  71.643  1.00  0.00     0.000 HD 
HETATM    7  N   UNL     1     -10.666  10.616  68.936  1.00  0.00    -0.203 N  
HETATM    8  H1  UNL     1     -12.142   9.533  71.212  1.00  0.00     0.000 HD 
HETATM    9  O   UNL     1     -10.798   8.569  67.915  1.00  0.00    -0.125 OA 
HETATM   10  H   UNL     1     -10.736  11.025  69.867  1.00  0.00     0.000 HD 
ENDROOT
BRANCH   7  11
HETATM   11  C   UNL     1     -10.535  11.700  67.809  1.00  0.00    -0.187 C  
BRANCH  11  12
HETATM   12  C   UNL     1     -11.760  12.513  67.180  1.00  0.00    -0.425 C  
BRANCH  12  13
HETATM   13  C   UNL     1     -11.497  13.860  66.349  1.00  0.00    -0.354 A  
HETATM   14  C   UNL     1     -11.515  14.048  64.980  1.00  0.00    -0.344 A  
HETATM   15  C   UNL     1     -10.652  17.105  68.365  1.00  0.00    -0.371 A  
HETATM   16  C   UNL     1     -10.176  17.852  67.291  1.00  0.00    -0.360 A  
HETATM   17  C   UNL     1     -10.250  17.333  65.999  1.00  0.00    -0.314 A  
HETATM   18  N   UNL     1     -11.063  15.332  64.674  1.00  0.00    -0.631 NA 
HETATM   19  C   UNL     1     -11.139  15.794  68.177  1.00  0.00    -0.341 A  
HETATM   20  C   UNL     1     -11.168  15.203  66.886  1.00  0.00    -0.292 A  
HETATM   21  C   UNL     1     -10.783  16.026  65.827  1.00  0.00    -0.301 A  
HETATM   22  H   UNL     1     -10.956  15.702  63.730  1.00  0.00     0.000 HD 
ENDBRANCH  12  13
ENDBRANCH  11  12
BRANCH  11  23
HETATM   23  C   UNL     1      -9.534  11.143  66.761  1.00  0.00    -0.184 C  
HETATM   24  N   UNL     1     -10.030  10.273  65.810  1.00  0.00    -0.259 N  
HETATM   25  H   UNL     1     -11.036  10.129  65.732  1.00  0.00     0.000 HD 
HETATM   26  O   UNL     1      -8.332  11.411  66.845  1.00  0.00    -0.147 OA 
BRANCH  24  27
HETATM   27  C   UNL     1      -9.132   9.565  64.927  1.00  0.00    -0.223 C  
BRANCH  27  28
HETATM   28  N   UNL     1      -8.526  10.514  64.029  1.00  0.00    -0.270 N  
HETATM   29  O   UNL     1     -10.504  11.185  63.041  1.00  0.00    -0.261 OA 
HETATM   30  C   UNL     1      -9.289  11.252  63.153  1.00  0.00    -0.311 C  
HETATM   31  H   UNL     1      -7.514  10.642  64.042  1.00  0.00     0.000 HD 
ENDBRANCH  27  28
BRANCH  27  32
HETATM   32  C   UNL     1      -8.158   8.540  65.545  1.00  0.00    -0.126 C  
BRANCH  32  33
HETATM   33  C   UNL     1      -8.250   7.023  65.557  1.00  0.00    -0.135 A  
HETATM   34  C   UNL     1      -8.444   4.741  65.808  1.00  0.00    -0.119 A  
HETATM   35  H   UNL     1      -7.999   4.336  63.778  1.00  0.00     0.000 HD 
HETATM   36  C   UNL     1      -8.659   3.478  66.382  1.00  0.00    -0.117 A  
HETATM   37  C   UNL     1      -8.014   6.371  64.349  1.00  0.00    -0.108 A  
HETATM   38  C   UNL     1      -8.938   3.427  67.742  1.00  0.00    -0.177 A  
HETATM   39  N   UNL     1      -8.129   5.029  64.515  1.00  0.00    -0.113 NA 
HETATM   40  C   UNL     1      -8.991   4.602  68.491  1.00  0.00    -0.139 A  
HETATM   41  C   UNL     1      -8.784   5.865  67.894  1.00  0.00    -0.104 A  
HETATM   42  C   UNL     1      -8.508   5.959  66.513  1.00  0.00    -0.113 A  
ENDBRANCH  32  33
ENDBRANCH  27  32
ENDBRANCH  24  27
ENDBRANCH  11  23
ENDBRANCH   7  11
TORSDOF 8
ENDMDL
MODEL      246
REMARK 921   NORMALIZED FREE ENERGY PREDICTED BY IDOCK:   -5.71 KCAL/MOL
REMARK 922        TOTAL FREE ENERGY PREDICTED BY IDOCK:  -10.52 KCAL/MOL
REMARK 923 INTER-LIGAND FREE ENERGY PREDICTED BY IDOCK:   -9.35 KCAL/MOL
REMARK 924 INTRA-LIGAND FREE ENERGY PREDICTED BY IDOCK:   -1.17 KCAL/MOL
REMARK 927      BINDING AFFINITY PREDICTED BY RF-SCORE:    0.00 PKD
ROOT
HETATM    1  C   UNL     1     -14.390  15.322  71.850  1.00  0.00    -0.691 C  
HETATM    2  C   UNL     1     -12.912  14.886  71.873  1.00  0.00    -0.333 C  
HETATM    3  C   UNL     1     -12.601  13.560  70.899  1.00  0.00    -0.337 C  
HETATM    4  N   UNL     1     -12.576  14.537  73.283  1.00  0.00    -0.382 NA 
HETATM    5  C   UNL     1     -12.110  16.173  71.534  1.00  0.00    -0.438 C  
HETATM    6  H2  UNL     1     -13.205  13.839  73.682  1.00  0.00     0.000 HD 
HETATM    7  N   UNL     1     -12.759  12.291  71.468  1.00  0.00    -0.293 N  
HETATM    8  H1  UNL     1     -11.597  14.248  73.298  1.00  0.00     0.000 HD 
HETATM    9  O   UNL     1     -12.287  13.692  69.717  1.00  0.00    -0.305 OA 
HETATM   10  H   UNL     1     -12.880  12.326  72.480  1.00  0.00     0.000 HD 
ENDROOT
BRANCH   7  11
HETATM   11  C   UNL     1     -12.791  10.826  70.906  1.00  0.00    -0.351 C  
BRANCH  11  12
HETATM   12  C   UNL     1     -12.706   9.504  71.803  1.00  0.00    -0.492 C  
BRANCH  12  13
HETATM   13  C   UNL     1     -11.819   8.257  71.326  1.00  0.00    -0.319 A  
HETATM   14  C   UNL     1     -11.999   7.436  70.228  1.00  0.00     0.061 A  
HETATM   15  C   UNL     1      -8.714   7.294  73.504  1.00  0.00    -0.197 A  
HETATM   16  C   UNL     1      -8.504   6.034  72.951  1.00  0.00    -0.117 A  
HETATM   17  C   UNL     1      -9.274   5.616  71.867  1.00  0.00    -0.157 A  
HETATM   18  N   UNL     1     -11.101   6.371  70.282  1.00  0.00    -0.322 NA 
HETATM   19  C   UNL     1      -9.752   8.127  73.035  1.00  0.00    -0.327 A  
HETATM   20  C   UNL     1     -10.603   7.710  71.978  1.00  0.00    -0.264 A  
HETATM   21  C   UNL     1     -10.287   6.488  71.382  1.00  0.00    -0.206 A  
HETATM   22  H   UNL     1     -11.056   5.612  69.602  1.00  0.00     0.000 HD 
ENDBRANCH  12  13
ENDBRANCH  11  12
BRANCH  11  23
HETATM   23  C   UNL     1     -11.880  10.803  69.649  1.00  0.00    -0.320 C  
HETATM   24  N   UNL     1     -10.536  11.064  69.836  1.00  0.00    -0.443 N  
HETATM   25  H   UNL     1     -10.159  11.123  70.782  1.00  0.00     0.000 HD 
HETATM   26  O   UNL     1     -12.370  10.644  68.528  1.00  0.00    -0.317 OA 
BRANCH  24  27
HETATM   27  C   UNL     1      -9.663  11.252  68.701  1.00  0.00    -0.195 C  
BRANCH  27  28
HETATM   28  N   UNL     1      -9.337   9.962  68.151  1.00  0.00    -0.131 N  
HETATM   29  O   UNL     1      -8.544   9.067  70.129  1.00  0.00    -0.131 OA 
HETATM   30  C   UNL     1      -8.799   8.969  68.938  1.00  0.00    -0.139 C  
HETATM   31  H   UNL     1      -9.508   9.780  67.162  1.00  0.00     0.000 HD 
ENDBRANCH  27  28
BRANCH  27  32
HETATM   32  C   UNL     1     -10.042  12.327  67.659  1.00  0.00    -0.204 C  
BRANCH  32  33
HETATM   33  C   UNL     1      -9.796  13.826  67.703  1.00  0.00    -0.234 A  
HETATM   34  C   UNL     1      -9.221  16.050  67.890  1.00  0.00    -0.196 A  
HETATM   35  H   UNL     1     -10.936  16.728  66.849  1.00  0.00     0.000 HD 
HETATM   36  C   UNL     1      -8.517  17.220  68.213  1.00  0.00    -0.243 A  
HETATM   37  C   UNL     1     -10.749  14.636  67.091  1.00  0.00    -0.292 A  
HETATM   38  C   UNL     1      -7.344  17.085  68.946  1.00  0.00    -0.245 A  
HETATM   39  N   UNL     1     -10.397  15.942  67.213  1.00  0.00    -0.286 NA 
HETATM   40  C   UNL     1      -6.906  15.822  69.340  1.00  0.00    -0.190 A  
HETATM   41  C   UNL     1      -7.621  14.654  68.996  1.00  0.00    -0.136 A  
HETATM   42  C   UNL     1      -8.812  14.749  68.243  1.00  0.00    -0.179 A  
ENDBRANCH  32  33
ENDBRANCH  27  32
ENDBRANCH  24  27
ENDBRANCH  11  23
ENDBRANCH   7  11
TORSDOF 8
ENDMDL
MODEL      247
REMARK 921   NORMALIZED FREE ENERGY PREDICTED BY IDOCK:   -5.69 KCAL/MOL
REMARK 922        TOTAL FREE ENERGY PREDICTED BY IDOCK:  -10.50 KCAL/MOL
REMARK 923 INTER-LIGAND FREE ENERGY PREDICTED BY IDOCK:   -7.90 KCAL/MOL
REMARK 924 INTRA-LIGAND FREE ENERGY PREDICTED BY IDOCK:   -2.60 KCAL/MOL
REMARK 927      BINDING AFFINITY PREDICTED BY RF-SCORE:    0.00 PKD
ROOT
HETATM    1  C   UNL     1      -8.570   1.642  67.269  1.00  0.00    -0.109 C  
HETATM    2  C   UNL     1      -8.501   2.826  66.285  1.00  0.00    -0.103 C  
HETATM    3  C   UNL     1      -8.426   4.314  67.049  1.00  0.00    -0.104 C  
HETATM    4  N   UNL     1      -9.733   2.777  65.447  1.00  0.00    -0.365 NA 
HETATM    5  C   UNL     1      -7.312   2.494  65.342  1.00  0.00    -0.067 C  
HETATM    6  H2  UNL     1     -10.591   2.766  65.999  1.00  0.00     0.000 HD 
HETATM    7  N   UNL     1      -9.638   4.935  67.372  1.00  0.00    -0.143 N  
HETATM    8  H1  UNL     1      -9.687   3.561  64.795  1.00  0.00     0.000 HD 
HETATM    9  O   UNL     1      -7.349   4.825  67.354  1.00  0.00    -0.072 OA 
HETATM   10  H   UNL     1     -10.441   4.478  66.940  1.00  0.00     0.000 HD 
ENDROOT
BRANCH   7  11
HETATM   11  C   UNL     1     -10.046   6.174  68.246  1.00  0.00    -0.158 C  
BRANCH  11  12
HETATM   12  C   UNL     1     -11.304   6.217  69.233  1.00  0.00    -0.411 C  
BRANCH  12  13
HETATM   13  C   UNL     1     -11.122   6.682  70.757  1.00  0.00    -0.336 A  
HETATM   14  C   UNL     1     -12.091   6.879  71.723  1.00  0.00    -0.346 A  
HETATM   15  C   UNL     1      -7.490   7.418  72.012  1.00  0.00    -0.080 A  
HETATM   16  C   UNL     1      -7.847   8.093  73.176  1.00  0.00    -0.213 A  
HETATM   17  C   UNL     1      -9.189   8.178  73.544  1.00  0.00    -0.257 A  
HETATM   18  N   UNL     1     -11.516   7.449  72.859  1.00  0.00    -0.560 NA 
HETATM   19  C   UNL     1      -8.473   6.885  71.153  1.00  0.00    -0.123 A  
HETATM   20  C   UNL     1      -9.855   7.010  71.457  1.00  0.00    -0.176 A  
HETATM   21  C   UNL     1     -10.161   7.598  72.685  1.00  0.00    -0.265 A  
HETATM   22  H   UNL     1     -12.029   7.717  73.698  1.00  0.00     0.000 HD 
ENDBRANCH  12  13
ENDBRANCH  11  12
BRANCH  11  23
HETATM   23  C   UNL     1      -9.895   7.430  67.347  1.00  0.00    -0.169 C  
HETATM   24  N   UNL     1      -8.614   7.807  66.994  1.00  0.00    -0.126 N  
HETATM   25  H   UNL     1      -7.829   7.192  67.206  1.00  0.00     0.000 HD 
HETATM   26  O   UNL     1     -10.886   8.100  67.044  1.00  0.00    -0.265 OA 
BRANCH  24  27
HETATM   27  C   UNL     1      -8.380   9.067  66.326  1.00  0.00    -0.120 C  
BRANCH  27  28
HETATM   28  N   UNL     1      -9.250   9.149  65.181  1.00  0.00    -0.395 N  
HETATM   29  O   UNL     1      -7.614   9.853  63.707  1.00  0.00    -0.127 OA 
HETATM   30  C   UNL     1      -8.770   9.542  63.952  1.00  0.00    -0.216 C  
HETATM   31  H   UNL     1     -10.236   8.914  65.282  1.00  0.00     0.000 HD 
ENDBRANCH  27  28
BRANCH  27  32
HETATM   32  C   UNL     1      -8.312  10.347  67.186  1.00  0.00    -0.126 C  
BRANCH  32  33
HETATM   33  C   UNL     1      -9.453  11.176  67.753  1.00  0.00    -0.173 A  
HETATM   34  C   UNL     1     -11.200  12.269  68.785  1.00  0.00    -0.265 A  
HETATM   35  H   UNL     1     -11.241  13.842  67.369  1.00  0.00     0.000 HD 
HETATM   36  C   UNL     1     -12.218  12.587  69.698  1.00  0.00    -0.167 A  
HETATM   37  C   UNL     1      -9.784  12.340  67.064  1.00  0.00    -0.205 A  
HETATM   38  C   UNL     1     -12.453  11.696  70.737  1.00  0.00    -0.425 A  
HETATM   39  N   UNL     1     -10.816  12.970  67.684  1.00  0.00    -0.236 NA 
HETATM   40  C   UNL     1     -11.696  10.530  70.846  1.00  0.00    -0.431 A  
HETATM   41  C   UNL     1     -10.667  10.232  69.926  1.00  0.00    -0.344 A  
HETATM   42  C   UNL     1     -10.391  11.118  68.862  1.00  0.00    -0.220 A  
ENDBRANCH  32  33
ENDBRANCH  27  32
ENDBRANCH  24  27
ENDBRANCH  11  23
ENDBRANCH   7  11
TORSDOF 8
ENDMDL
MODEL      248
REMARK 921   NORMALIZED FREE ENERGY PREDICTED BY IDOCK:   -5.69 KCAL/MOL
REMARK 922        TOTAL FREE ENERGY PREDICTED BY IDOCK:  -10.50 KCAL/MOL
REMARK 923 INTER-LIGAND FREE ENERGY PREDICTED BY IDOCK:   -8.52 KCAL/MOL
REMARK 924 INTRA-LIGAND FREE ENERGY PREDICTED BY IDOCK:   -1.98 KCAL/MOL
REMARK 927      BINDING AFFINITY PREDICTED BY RF-SCORE:    0.00 PKD
ROOT
HETATM    1  C   UNL     1      -9.785   4.655  67.752  1.00  0.00    -0.205 C  
HETATM    2  C   UNL     1      -9.849   5.150  66.294  1.00  0.00    -0.192 C  
HETATM    3  C   UNL     1      -8.926   6.520  66.022  1.00  0.00    -0.122 C  
HETATM    4  N   UNL     1     -11.276   5.464  65.996  1.00  0.00    -0.774 NA 
HETATM    5  C   UNL     1      -9.481   3.909  65.434  1.00  0.00    -0.170 C  
HETATM    6  H2  UNL     1     -11.687   6.122  66.659  1.00  0.00     0.000 HD 
HETATM    7  N   UNL     1      -9.533   7.762  66.241  1.00  0.00    -0.354 N  
HETATM    8  H1  UNL     1     -11.318   5.792  65.030  1.00  0.00     0.000 HD 
HETATM    9  O   UNL     1      -7.746   6.441  65.683  1.00  0.00    -0.085 OA 
HETATM   10  H   UNL     1     -10.541   7.687  66.378  1.00  0.00     0.000 HD 
ENDROOT
BRANCH   7  11
HETATM   11  C   UNL     1      -9.021   9.243  66.324  1.00  0.00    -0.159 C  
BRANCH  11  12
HETATM   12  C   UNL     1      -7.619   9.687  66.955  1.00  0.00    -0.095 C  
BRANCH  12  13
HETATM   13  C   UNL     1      -7.440   9.777  68.546  1.00  0.00    -0.079 A  
HETATM   14  C   UNL     1      -7.237  10.896  69.331  1.00  0.00    -0.126 A  
HETATM   15  C   UNL     1      -7.542   6.436  70.580  1.00  0.00    -0.096 A  
HETATM   16  C   UNL     1      -7.010   6.941  71.762  1.00  0.00    -0.070 A  
HETATM   17  C   UNL     1      -6.756   8.307  71.879  1.00  0.00    -0.076 A  
HETATM   18  N   UNL     1      -6.961  10.509  70.643  1.00  0.00    -0.449 NA 
HETATM   19  C   UNL     1      -7.757   7.274  69.465  1.00  0.00    -0.113 A  
HETATM   20  C   UNL     1      -7.448   8.659  69.521  1.00  0.00    -0.072 A  
HETATM   21  C   UNL     1      -7.019   9.141  70.759  1.00  0.00    -0.097 A  
HETATM   22  H   UNL     1      -6.746  11.150  71.406  1.00  0.00     0.000 HD 
ENDBRANCH  12  13
ENDBRANCH  11  12
BRANCH  11  23
HETATM   23  C   UNL     1     -10.226  10.114  66.769  1.00  0.00    -0.228 C  
HETATM   24  N   UNL     1     -10.450  10.240  68.126  1.00  0.00    -0.177 N  
HETATM   25  H   UNL     1      -9.760   9.887  68.788  1.00  0.00     0.000 HD 
HETATM   26  O   UNL     1     -10.991  10.593  65.927  1.00  0.00    -0.034 OA 
BRANCH  24  27
HETATM   27  C   UNL     1     -11.656  10.870  68.612  1.00  0.00    -0.303 C  
BRANCH  27  28
HETATM   28  N   UNL     1     -12.225  10.040  69.643  1.00  0.00    -0.438 N  
HETATM   29  O   UNL     1     -10.299   9.907  70.913  1.00  0.00    -0.253 OA 
HETATM   30  C   UNL     1     -11.474   9.631  70.721  1.00  0.00    -0.328 C  
HETATM   31  H   UNL     1     -13.201   9.752  69.573  1.00  0.00     0.000 HD 
ENDBRANCH  27  28
BRANCH  27  32
HETATM   32  C   UNL     1     -11.612  12.377  68.940  1.00  0.00    -0.364 C  
BRANCH  32  33
HETATM   33  C   UNL     1     -11.165  13.532  68.058  1.00  0.00    -0.300 A  
HETATM   34  C   UNL     1     -10.651  15.207  66.562  1.00  0.00    -0.304 A  
HETATM   35  H   UNL     1      -9.163  16.057  67.805  1.00  0.00     0.000 HD 
HETATM   36  C   UNL     1     -10.665  16.023  65.419  1.00  0.00    -0.399 A  
HETATM   37  C   UNL     1     -10.160  14.354  68.562  1.00  0.00    -0.244 A  
HETATM   38  C   UNL     1     -11.535  15.677  64.392  1.00  0.00    -0.266 A  
HETATM   39  N   UNL     1      -9.868  15.333  67.668  1.00  0.00    -0.217 NA 
HETATM   40  C   UNL     1     -12.350  14.553  64.513  1.00  0.00    -0.434 A  
HETATM   41  C   UNL     1     -12.332  13.752  65.675  1.00  0.00    -0.517 A  
HETATM   42  C   UNL     1     -11.469  14.075  66.744  1.00  0.00    -0.379 A  
ENDBRANCH  32  33
ENDBRANCH  27  32
ENDBRANCH  24  27
ENDBRANCH  11  23
ENDBRANCH   7  11
TORSDOF 8
ENDMDL
MODEL      249
REMARK 921   NORMALIZED FREE ENERGY PREDICTED BY IDOCK:   -5.68 KCAL/MOL
REMARK 922        TOTAL FREE ENERGY PREDICTED BY IDOCK:  -10.48 KCAL/MOL
REMARK 923 INTER-LIGAND FREE ENERGY PREDICTED BY IDOCK:   -8.14 KCAL/MOL
REMARK 924 INTRA-LIGAND FREE ENERGY PREDICTED BY IDOCK:   -2.34 KCAL/MOL
REMARK 927      BINDING AFFINITY PREDICTED BY RF-SCORE:    0.00 PKD
ROOT
HETATM    1  C   UNL     1      -7.324   3.222  67.249  1.00  0.00    -0.059 C  
HETATM    2  C   UNL     1      -8.828   2.892  67.180  1.00  0.00    -0.144 C  
HETATM    3  C   UNL     1      -9.776   4.217  66.793  1.00  0.00    -0.210 C  
HETATM    4  N   UNL     1      -9.233   2.387  68.524  1.00  0.00    -0.170 NA 
HETATM    5  C   UNL     1      -8.929   1.685  66.206  1.00  0.00    -0.092 C  
HETATM    6  H2  UNL     1      -9.000   3.032  69.279  1.00  0.00     0.000 HD 
HETATM    7  N   UNL     1     -10.224   5.021  67.848  1.00  0.00    -0.121 N  
HETATM    8  H1  UNL     1     -10.228   2.169  68.478  1.00  0.00     0.000 HD 
HETATM    9  O   UNL     1     -10.037   4.499  65.625  1.00  0.00    -0.213 OA 
HETATM   10  H   UNL     1     -10.059   4.598  68.761  1.00  0.00     0.000 HD 
ENDROOT
BRANCH   7  11
HETATM   11  C   UNL     1     -10.921   6.423  67.949  1.00  0.00    -0.325 C  
BRANCH  11  12
HETATM   12  C   UNL     1     -10.421   7.744  67.199  1.00  0.00    -0.413 C  
BRANCH  12  13
HETATM   13  C   UNL     1      -8.955   8.331  67.484  1.00  0.00    -0.141 A  
HETATM   14  C   UNL     1      -8.414   9.538  67.083  1.00  0.00    -0.131 A  
HETATM   15  C   UNL     1      -6.482   6.121  69.560  1.00  0.00    -0.042 A  
HETATM   16  C   UNL     1      -5.323   6.826  69.248  1.00  0.00    -0.014 A  
HETATM   17  C   UNL     1      -5.406   8.000  68.501  1.00  0.00    -0.032 A  
HETATM   18  N   UNL     1      -7.056   9.575  67.398  1.00  0.00    -0.085 NA 
HETATM   19  C   UNL     1      -7.738   6.535  69.065  1.00  0.00    -0.109 A  
HETATM   20  C   UNL     1      -7.856   7.688  68.244  1.00  0.00    -0.121 A  
HETATM   21  C   UNL     1      -6.685   8.422  68.047  1.00  0.00    -0.065 A  
HETATM   22  H   UNL     1      -6.428  10.347  67.177  1.00  0.00     0.000 HD 
ENDBRANCH  12  13
ENDBRANCH  11  12
BRANCH  11  23
HETATM   23  C   UNL     1     -11.292   6.637  69.441  1.00  0.00    -0.271 C  
HETATM   24  N   UNL     1     -11.612   7.921  69.836  1.00  0.00    -0.445 N  
HETATM   25  H   UNL     1     -11.732   8.652  69.135  1.00  0.00     0.000 HD 
HETATM   26  O   UNL     1     -11.213   5.701  70.242  1.00  0.00    -0.243 OA 
BRANCH  24  27
HETATM   27  C   UNL     1     -11.778   8.235  71.237  1.00  0.00    -0.283 C  
BRANCH  27  28
HETATM   28  N   UNL     1     -10.510   8.072  71.899  1.00  0.00    -0.222 N  
HETATM   29  O   UNL     1      -9.364   9.571  70.564  1.00  0.00    -0.252 OA 
HETATM   30  C   UNL     1      -9.399   8.775  71.491  1.00  0.00    -0.267 C  
HETATM   31  H   UNL     1     -10.433   7.425  72.684  1.00  0.00     0.000 HD 
ENDBRANCH  27  28
BRANCH  27  32
HETATM   32  C   UNL     1     -12.547   9.520  71.610  1.00  0.00    -0.476 C  
BRANCH  32  33
HETATM   33  C   UNL     1     -12.450  10.904  70.990  1.00  0.00    -0.514 A  
HETATM   34  C   UNL     1     -12.228  12.893  69.848  1.00  0.00    -0.188 A  
HETATM   35  H   UNL     1     -12.864  14.071  71.488  1.00  0.00     0.000 HD 
HETATM   36  C   UNL     1     -11.970  13.820  68.826  1.00  0.00    -0.400 A  
HETATM   37  C   UNL     1     -12.807  11.980  71.798  1.00  0.00    -0.272 A  
HETATM   38  C   UNL     1     -11.491  13.330  67.617  1.00  0.00    -0.360 A  
HETATM   39  N   UNL     1     -12.668  13.143  71.111  1.00  0.00    -0.343 NA 
HETATM   40  C   UNL     1     -11.277  11.962  67.451  1.00  0.00    -0.366 A  
HETATM   41  C   UNL     1     -11.554  11.043  68.486  1.00  0.00    -0.380 A  
HETATM   42  C   UNL     1     -12.051  11.501  69.726  1.00  0.00    -0.374 A  
ENDBRANCH  32  33
ENDBRANCH  27  32
ENDBRANCH  24  27
ENDBRANCH  11  23
ENDBRANCH   7  11
TORSDOF 8
ENDMDL
MODEL      250
REMARK 921   NORMALIZED FREE ENERGY PREDICTED BY IDOCK:   -5.68 KCAL/MOL
REMARK 922        TOTAL FREE ENERGY PREDICTED BY IDOCK:  -10.48 KCAL/MOL
REMARK 923 INTER-LIGAND FREE ENERGY PREDICTED BY IDOCK:   -7.93 KCAL/MOL
REMARK 924 INTRA-LIGAND FREE ENERGY PREDICTED BY IDOCK:   -2.55 KCAL/MOL
REMARK 927      BINDING AFFINITY PREDICTED BY RF-SCORE:    0.00 PKD
ROOT
HETATM    1  C   UNL     1     -11.411  14.960  66.155  1.00  0.00    -0.272 C  
HETATM    2  C   UNL     1     -11.171  14.768  67.665  1.00  0.00    -0.323 C  
HETATM    3  C   UNL     1      -9.828  13.828  68.004  1.00  0.00    -0.239 C  
HETATM    4  N   UNL     1     -12.380  14.098  68.224  1.00  0.00    -0.556 NA 
HETATM    5  C   UNL     1     -11.151  16.206  68.253  1.00  0.00    -0.348 C  
HETATM    6  H2  UNL     1     -12.613  13.229  67.743  1.00  0.00     0.000 HD 
HETATM    7  N   UNL     1     -10.011  12.442  68.078  1.00  0.00    -0.201 N  
HETATM    8  H1  UNL     1     -12.220  13.971  69.224  1.00  0.00     0.000 HD 
HETATM    9  O   UNL     1      -8.712  14.329  68.141  1.00  0.00    -0.160 OA 
HETATM   10  H   UNL     1     -10.996  12.177  68.087  1.00  0.00     0.000 HD 
ENDROOT
BRANCH   7  11
HETATM   11  C   UNL     1      -9.051  11.203  68.150  1.00  0.00    -0.159 C  
BRANCH  11  12
HETATM   12  C   UNL     1      -8.540  10.372  66.883  1.00  0.00    -0.127 C  
BRANCH  12  13
HETATM   13  C   UNL     1      -7.994   8.875  67.064  1.00  0.00    -0.102 A  
HETATM   14  C   UNL     1      -6.692   8.445  67.242  1.00  0.00    -0.063 A  
HETATM   15  C   UNL     1     -10.604   5.962  66.972  1.00  0.00    -0.376 A  
HETATM   16  C   UNL     1      -9.693   4.924  66.804  1.00  0.00    -0.195 A  
HETATM   17  C   UNL     1      -8.325   5.190  66.839  1.00  0.00    -0.107 A  
HETATM   18  N   UNL     1      -6.642   7.053  67.182  1.00  0.00    -0.053 NA 
HETATM   19  C   UNL     1     -10.166   7.298  67.098  1.00  0.00    -0.339 A  
HETATM   20  C   UNL     1      -8.783   7.619  67.070  1.00  0.00    -0.127 A  
HETATM   21  C   UNL     1      -7.904   6.537  67.009  1.00  0.00    -0.108 A  
HETATM   22  H   UNL     1      -5.791   6.497  67.255  1.00  0.00     0.000 HD 
ENDBRANCH  12  13
ENDBRANCH  11  12
BRANCH  11  23
HETATM   23  C   UNL     1      -9.533  10.327  69.337  1.00  0.00    -0.206 C  
HETATM   24  N   UNL     1     -10.865   9.962  69.356  1.00  0.00    -0.230 N  
HETATM   25  H   UNL     1     -11.453  10.151  68.544  1.00  0.00     0.000 HD 
HETATM   26  O   UNL     1      -8.761  10.051  70.261  1.00  0.00    -0.114 OA 
BRANCH  24  27
HETATM   27  C   UNL     1     -11.430   9.315  70.517  1.00  0.00    -0.248 C  
BRANCH  27  28
HETATM   28  N   UNL     1     -12.709   9.914  70.802  1.00  0.00    -0.498 N  
HETATM   29  O   UNL     1     -11.981  12.099  70.618  1.00  0.00    -0.322 OA 
HETATM   30  C   UNL     1     -12.865  11.281  70.822  1.00  0.00    -0.191 C  
HETATM   31  H   UNL     1     -13.512   9.314  70.991  1.00  0.00     0.000 HD 
ENDBRANCH  27  28
BRANCH  27  32
HETATM   32  C   UNL     1     -11.405   7.773  70.578  1.00  0.00    -0.253 C  
BRANCH  32  33
HETATM   33  C   UNL     1     -10.905   6.871  71.694  1.00  0.00    -0.252 A  
HETATM   34  C   UNL     1     -10.121   5.332  73.220  1.00  0.00    -0.175 A  
HETATM   35  H   UNL     1     -10.271   6.666  74.857  1.00  0.00     0.000 HD 
HETATM   36  C   UNL     1      -9.619   4.145  73.776  1.00  0.00    -0.128 A  
HETATM   37  C   UNL     1     -10.856   7.422  72.972  1.00  0.00    -0.375 A  
HETATM   38  C   UNL     1      -9.449   3.058  72.927  1.00  0.00    -0.137 A  
HETATM   39  N   UNL     1     -10.395   6.503  73.858  1.00  0.00    -0.316 NA 
HETATM   40  C   UNL     1      -9.779   3.165  71.577  1.00  0.00    -0.226 A  
HETATM   41  C   UNL     1     -10.271   4.371  71.032  1.00  0.00    -0.121 A  
HETATM   42  C   UNL     1     -10.448   5.501  71.860  1.00  0.00    -0.282 A  
ENDBRANCH  32  33
ENDBRANCH  27  32
ENDBRANCH  24  27
ENDBRANCH  11  23
ENDBRANCH   7  11
TORSDOF 8
ENDMDL
MODEL      251
REMARK 921   NORMALIZED FREE ENERGY PREDICTED BY IDOCK:   -5.68 KCAL/MOL
REMARK 922        TOTAL FREE ENERGY PREDICTED BY IDOCK:  -10.48 KCAL/MOL
REMARK 923 INTER-LIGAND FREE ENERGY PREDICTED BY IDOCK:   -8.65 KCAL/MOL
REMARK 924 INTRA-LIGAND FREE ENERGY PREDICTED BY IDOCK:   -1.83 KCAL/MOL
REMARK 927      BINDING AFFINITY PREDICTED BY RF-SCORE:    0.00 PKD
ROOT
HETATM    1  C   UNL     1      -9.802   3.773  71.215  1.00  0.00    -0.219 C  
HETATM    2  C   UNL     1     -10.058   5.124  71.912  1.00  0.00    -0.197 C  
HETATM    3  C   UNL     1     -10.603   6.312  70.866  1.00  0.00    -0.241 C  
HETATM    4  N   UNL     1      -8.765   5.566  72.510  1.00  0.00    -0.124 NA 
HETATM    5  C   UNL     1     -11.001   4.788  73.100  1.00  0.00    -0.374 C  
HETATM    6  H2  UNL     1      -8.004   5.605  71.831  1.00  0.00     0.000 HD 
HETATM    7  N   UNL     1      -9.640   7.083  70.206  1.00  0.00    -0.169 N  
HETATM    8  H1  UNL     1      -8.935   6.460  72.971  1.00  0.00     0.000 HD 
HETATM    9  O   UNL     1     -11.804   6.476  70.652  1.00  0.00    -0.384 OA 
HETATM   10  H   UNL     1      -8.701   6.942  70.578  1.00  0.00     0.000 HD 
ENDROOT
BRANCH   7  11
HETATM   11  C   UNL     1      -9.672   8.115  69.024  1.00  0.00    -0.163 C  
BRANCH  11  12
HETATM   12  C   UNL     1      -8.485   8.333  67.974  1.00  0.00    -0.132 C  
BRANCH  12  13
HETATM   13  C   UNL     1      -8.384   7.413  66.664  1.00  0.00    -0.124 A  
HETATM   14  C   UNL     1      -8.895   6.146  66.456  1.00  0.00    -0.133 A  
HETATM   15  C   UNL     1      -6.422   8.832  63.591  1.00  0.00    -0.088 A  
HETATM   16  C   UNL     1      -6.295   7.629  62.901  1.00  0.00    -0.063 A  
HETATM   17  C   UNL     1      -6.922   6.483  63.388  1.00  0.00    -0.051 A  
HETATM   18  N   UNL     1      -8.430   5.642  65.241  1.00  0.00    -0.146 NA 
HETATM   19  C   UNL     1      -7.110   8.893  64.821  1.00  0.00    -0.088 A  
HETATM   20  C   UNL     1      -7.704   7.733  65.385  1.00  0.00    -0.106 A  
HETATM   21  C   UNL     1      -7.645   6.575  64.607  1.00  0.00    -0.100 A  
HETATM   22  H   UNL     1      -8.641   4.714  64.877  1.00  0.00     0.000 HD 
ENDBRANCH  12  13
ENDBRANCH  11  12
BRANCH  11  23
HETATM   23  C   UNL     1     -10.275   9.429  69.588  1.00  0.00    -0.212 C  
HETATM   24  N   UNL     1     -11.542   9.779  69.163  1.00  0.00    -0.457 N  
HETATM   25  H   UNL     1     -12.093   9.117  68.616  1.00  0.00     0.000 HD 
HETATM   26  O   UNL     1      -9.599  10.161  70.317  1.00  0.00    -0.118 OA 
BRANCH  24  27
HETATM   27  C   UNL     1     -12.091  11.075  69.488  1.00  0.00    -0.329 C  
BRANCH  27  28
HETATM   28  N   UNL     1     -12.250  11.163  70.917  1.00  0.00    -0.369 N  
HETATM   29  O   UNL     1     -13.781   9.440  71.080  1.00  0.00    -0.304 OA 
HETATM   30  C   UNL     1     -13.098  10.315  71.591  1.00  0.00    -0.449 C  
HETATM   31  H   UNL     1     -11.725  11.865  71.438  1.00  0.00     0.000 HD 
ENDBRANCH  27  28
BRANCH  27  32
HETATM   32  C   UNL     1     -11.464  12.320  68.825  1.00  0.00    -0.360 C  
BRANCH  32  33
HETATM   33  C   UNL     1     -11.738  12.908  67.450  1.00  0.00    -0.428 A  
HETATM   34  C   UNL     1     -12.045  13.605  65.276  1.00  0.00    -0.406 A  
HETATM   35  H   UNL     1     -13.025  15.395  65.837  1.00  0.00     0.000 HD 
HETATM   36  C   UNL     1     -12.028  13.636  63.872  1.00  0.00    -0.455 A  
HETATM   37  C   UNL     1     -12.399  14.133  67.413  1.00  0.00    -0.101 A  
HETATM   38  C   UNL     1     -11.401  12.586  63.212  1.00  0.00    -0.362 A  
HETATM   39  N   UNL     1     -12.570  14.530  66.125  1.00  0.00    -0.186 NA 
HETATM   40  C   UNL     1     -10.812  11.553  63.940  1.00  0.00    -0.469 A  
HETATM   41  C   UNL     1     -10.851  11.531  65.351  1.00  0.00    -0.318 A  
HETATM   42  C   UNL     1     -11.487  12.575  66.058  1.00  0.00    -0.423 A  
ENDBRANCH  32  33
ENDBRANCH  27  32
ENDBRANCH  24  27
ENDBRANCH  11  23
ENDBRANCH   7  11
TORSDOF 8
ENDMDL
MODEL      252
REMARK 921   NORMALIZED FREE ENERGY PREDICTED BY IDOCK:   -5.68 KCAL/MOL
REMARK 922        TOTAL FREE ENERGY PREDICTED BY IDOCK:  -10.47 KCAL/MOL
REMARK 923 INTER-LIGAND FREE ENERGY PREDICTED BY IDOCK:   -8.64 KCAL/MOL
REMARK 924 INTRA-LIGAND FREE ENERGY PREDICTED BY IDOCK:   -1.83 KCAL/MOL
REMARK 927      BINDING AFFINITY PREDICTED BY RF-SCORE:    0.00 PKD
ROOT
HETATM    1  C   UNL     1      -9.772   3.824  66.999  1.00  0.00    -0.149 C  
HETATM    2  C   UNL     1      -9.605   5.314  66.644  1.00  0.00    -0.152 C  
HETATM    3  C   UNL     1      -8.559   6.123  67.671  1.00  0.00    -0.106 C  
HETATM    4  N   UNL     1     -10.954   5.945  66.736  1.00  0.00    -0.618 NA 
HETATM    5  C   UNL     1      -9.215   5.326  65.140  1.00  0.00    -0.013 C  
HETATM    6  H2  UNL     1     -11.402   5.797  67.641  1.00  0.00     0.000 HD 
HETATM    7  N   UNL     1      -9.101   6.685  68.833  1.00  0.00    -0.132 N  
HETATM    8  H1  UNL     1     -10.843   6.931  66.501  1.00  0.00     0.000 HD 
HETATM    9  O   UNL     1      -7.353   6.188  67.437  1.00  0.00    -0.074 OA 
HETATM   10  H   UNL     1     -10.121   6.683  68.831  1.00  0.00     0.000 HD 
ENDROOT
BRANCH   7  11
HETATM   11  C   UNL     1      -8.501   7.317  70.138  1.00  0.00    -0.138 C  
BRANCH  11  12
HETATM   12  C   UNL     1      -9.042   7.039  71.616  1.00  0.00    -0.139 C  
BRANCH  12  13
HETATM   13  C   UNL     1     -10.615   7.092  71.926  1.00  0.00    -0.238 A  
HETATM   14  C   UNL     1     -11.438   6.087  72.400  1.00  0.00    -0.308 A  
HETATM   15  C   UNL     1     -12.487  10.462  71.258  1.00  0.00    -0.521 A  
HETATM   16  C   UNL     1     -13.780   9.951  71.310  1.00  0.00    -0.174 A  
HETATM   17  C   UNL     1     -13.983   8.615  71.655  1.00  0.00    -0.459 A  
HETATM   18  N   UNL     1     -12.767   6.508  72.361  1.00  0.00    -0.524 NA 
HETATM   19  C   UNL     1     -11.368   9.629  71.473  1.00  0.00    -0.420 A  
HETATM   20  C   UNL     1     -11.530   8.248  71.759  1.00  0.00    -0.353 A  
HETATM   21  C   UNL     1     -12.845   7.803  71.908  1.00  0.00    -0.292 A  
HETATM   22  H   UNL     1     -13.567   5.936  72.631  1.00  0.00     0.000 HD 
ENDBRANCH  12  13
ENDBRANCH  11  12
BRANCH  11  23
HETATM   23  C   UNL     1      -8.225   8.813  69.829  1.00  0.00    -0.117 C  
HETATM   24  N   UNL     1      -8.147   9.182  68.501  1.00  0.00    -0.102 N  
HETATM   25  H   UNL     1      -8.404   8.515  67.774  1.00  0.00     0.000 HD 
HETATM   26  O   UNL     1      -8.001   9.606  70.748  1.00  0.00    -0.288 OA 
BRANCH  24  27
HETATM   27  C   UNL     1      -7.704  10.508  68.135  1.00  0.00    -0.096 C  
BRANCH  27  28
HETATM   28  N   UNL     1      -6.296  10.617  68.417  1.00  0.00    -0.054 N  
HETATM   29  O   UNL     1      -5.627   9.090  66.817  1.00  0.00    -0.039 OA 
HETATM   30  C   UNL     1      -5.371   9.882  67.712  1.00  0.00    -0.035 C  
HETATM   31  H   UNL     1      -5.979  11.250  69.151  1.00  0.00     0.000 HD 
ENDBRANCH  27  28
BRANCH  27  32
HETATM   32  C   UNL     1      -8.139  11.071  66.765  1.00  0.00    -0.151 C  
BRANCH  32  33
HETATM   33  C   UNL     1      -8.968  12.308  66.463  1.00  0.00    -0.161 A  
HETATM   34  C   UNL     1     -10.343  14.051  65.842  1.00  0.00    -0.318 A  
HETATM   35  H   UNL     1      -9.461  15.417  67.197  1.00  0.00     0.000 HD 
HETATM   36  C   UNL     1     -11.345  14.791  65.196  1.00  0.00    -0.379 A  
HETATM   37  C   UNL     1      -8.670  13.457  67.191  1.00  0.00    -0.215 A  
HETATM   38  C   UNL     1     -12.080  14.151  64.205  1.00  0.00    -0.437 A  
HETATM   39  N   UNL     1      -9.486  14.473  66.812  1.00  0.00    -0.257 NA 
HETATM   40  C   UNL     1     -11.809  12.823  63.878  1.00  0.00    -0.541 A  
HETATM   41  C   UNL     1     -10.806  12.091  64.548  1.00  0.00    -0.363 A  
HETATM   42  C   UNL     1     -10.044  12.702  65.567  1.00  0.00    -0.279 A  
ENDBRANCH  32  33
ENDBRANCH  27  32
ENDBRANCH  24  27
ENDBRANCH  11  23
ENDBRANCH   7  11
TORSDOF 8
ENDMDL
MODEL      253
REMARK 921   NORMALIZED FREE ENERGY PREDICTED BY IDOCK:   -5.67 KCAL/MOL
REMARK 922        TOTAL FREE ENERGY PREDICTED BY IDOCK:  -10.47 KCAL/MOL
REMARK 923 INTER-LIGAND FREE ENERGY PREDICTED BY IDOCK:   -8.73 KCAL/MOL
REMARK 924 INTRA-LIGAND FREE ENERGY PREDICTED BY IDOCK:   -1.74 KCAL/MOL
REMARK 927      BINDING AFFINITY PREDICTED BY RF-SCORE:    0.00 PKD
ROOT
HETATM    1  C   UNL     1     -11.681  14.666  65.546  1.00  0.00    -0.316 C  
HETATM    2  C   UNL     1     -11.213  13.242  65.192  1.00  0.00    -0.302 C  
HETATM    3  C   UNL     1     -10.408  12.481  66.448  1.00  0.00    -0.243 C  
HETATM    4  N   UNL     1     -10.288  13.357  64.028  1.00  0.00    -0.706 NA 
HETATM    5  C   UNL     1     -12.487  12.519  64.673  1.00  0.00    -0.539 C  
HETATM    6  H2  UNL     1      -9.514  14.002  64.195  1.00  0.00     0.000 HD 
HETATM    7  N   UNL     1      -9.025  12.678  66.542  1.00  0.00    -0.385 N  
HETATM    8  H1  UNL     1      -9.978  12.413  63.794  1.00  0.00     0.000 HD 
HETATM    9  O   UNL     1     -11.012  11.809  67.283  1.00  0.00    -0.237 OA 
HETATM   10  H   UNL     1      -8.636  13.132  65.716  1.00  0.00     0.000 HD 
ENDROOT
BRANCH   7  11
HETATM   11  C   UNL     1      -7.936  12.361  67.626  1.00  0.00    -0.164 C  
BRANCH  11  12
HETATM   12  C   UNL     1      -6.617  13.231  67.873  1.00  0.00    -0.145 C  
BRANCH  12  13
HETATM   13  C   UNL     1      -6.731  14.754  68.362  1.00  0.00    -0.102 A  
HETATM   14  C   UNL     1      -6.183  15.345  69.485  1.00  0.00    -0.141 A  
HETATM   15  C   UNL     1      -8.848  17.212  66.175  1.00  0.00    -0.220 A  
HETATM   16  C   UNL     1      -8.956  18.229  67.120  1.00  0.00    -0.264 A  
HETATM   17  C   UNL     1      -8.273  18.124  68.331  1.00  0.00    -0.314 A  
HETATM   18  N   UNL     1      -6.673  16.644  69.621  1.00  0.00    -0.187 NA 
HETATM   19  C   UNL     1      -8.120  16.037  66.455  1.00  0.00    -0.304 A  
HETATM   20  C   UNL     1      -7.466  15.862  67.704  1.00  0.00    -0.174 A  
HETATM   21  C   UNL     1      -7.511  16.950  68.577  1.00  0.00    -0.217 A  
HETATM   22  H   UNL     1      -6.442  17.276  70.387  1.00  0.00     0.000 HD 
ENDBRANCH  12  13
ENDBRANCH  11  12
BRANCH  11  23
HETATM   23  C   UNL     1      -7.692  10.828  67.587  1.00  0.00    -0.104 C  
HETATM   24  N   UNL     1      -8.703  10.039  67.074  1.00  0.00    -0.132 N  
HETATM   25  H   UNL     1      -9.504  10.475  66.618  1.00  0.00     0.000 HD 
HETATM   26  O   UNL     1      -6.666  10.349  68.078  1.00  0.00    -0.064 OA 
BRANCH  24  27
HETATM   27  C   UNL     1      -8.633   8.600  67.182  1.00  0.00    -0.121 C  
BRANCH  27  28
HETATM   28  N   UNL     1      -7.575   8.125  66.328  1.00  0.00    -0.088 N  
HETATM   29  O   UNL     1      -8.436   9.025  64.381  1.00  0.00    -0.173 OA 
HETATM   30  C   UNL     1      -7.577   8.392  64.978  1.00  0.00    -0.094 C  
HETATM   31  H   UNL     1      -6.812   7.582  66.730  1.00  0.00     0.000 HD 
ENDBRANCH  27  28
BRANCH  27  32
HETATM   32  C   UNL     1      -8.664   7.971  68.591  1.00  0.00    -0.131 C  
BRANCH  32  33
HETATM   33  C   UNL     1      -9.861   7.695  69.487  1.00  0.00    -0.178 A  
HETATM   34  C   UNL     1     -11.709   7.515  70.850  1.00  0.00    -0.283 A  
HETATM   35  H   UNL     1     -11.611   5.403  70.945  1.00  0.00     0.000 HD 
HETATM   36  C   UNL     1     -12.827   7.853  71.630  1.00  0.00    -0.357 A  
HETATM   37  C   UNL     1     -10.128   6.361  69.783  1.00  0.00    -0.176 A  
HETATM   38  C   UNL     1     -13.121   9.202  71.785  1.00  0.00    -0.456 A  
HETATM   39  N   UNL     1     -11.218   6.273  70.588  1.00  0.00    -0.322 NA 
HETATM   40  C   UNL     1     -12.316  10.168  71.182  1.00  0.00    -0.488 A  
HETATM   41  C   UNL     1     -11.204   9.810  70.391  1.00  0.00    -0.362 A  
HETATM   42  C   UNL     1     -10.878   8.449  70.202  1.00  0.00    -0.238 A  
ENDBRANCH  32  33
ENDBRANCH  27  32
ENDBRANCH  24  27
ENDBRANCH  11  23
ENDBRANCH   7  11
TORSDOF 8
ENDMDL
MODEL      254
REMARK 921   NORMALIZED FREE ENERGY PREDICTED BY IDOCK:   -5.67 KCAL/MOL
REMARK 922        TOTAL FREE ENERGY PREDICTED BY IDOCK:  -10.47 KCAL/MOL
REMARK 923 INTER-LIGAND FREE ENERGY PREDICTED BY IDOCK:   -8.92 KCAL/MOL
REMARK 924 INTRA-LIGAND FREE ENERGY PREDICTED BY IDOCK:   -1.54 KCAL/MOL
REMARK 927      BINDING AFFINITY PREDICTED BY RF-SCORE:    0.00 PKD
ROOT
HETATM    1  C   UNL     1     -10.997  12.329  63.612  1.00  0.00    -0.532 C  
HETATM    2  C   UNL     1     -11.540  13.267  64.707  1.00  0.00    -0.332 C  
HETATM    3  C   UNL     1     -10.332  14.006  65.600  1.00  0.00    -0.329 C  
HETATM    4  N   UNL     1     -12.377  12.440  65.624  1.00  0.00    -0.621 NA 
HETATM    5  C   UNL     1     -12.513  14.226  63.967  1.00  0.00    -0.171 C  
HETATM    6  H2  UNL     1     -11.879  11.632  66.000  1.00  0.00     0.000 HD 
HETATM    7  N   UNL     1      -9.852  13.326  66.725  1.00  0.00    -0.257 N  
HETATM    8  H1  UNL     1     -12.736  13.061  66.349  1.00  0.00     0.000 HD 
HETATM    9  O   UNL     1      -9.852  15.086  65.259  1.00  0.00    -0.323 OA 
HETATM   10  H   UNL     1     -10.427  12.521  66.972  1.00  0.00     0.000 HD 
ENDROOT
BRANCH   7  11
HETATM   11  C   UNL     1      -8.632  13.517  67.694  1.00  0.00    -0.185 C  
BRANCH  11  12
HETATM   12  C   UNL     1      -8.087  14.932  68.202  1.00  0.00    -0.137 C  
BRANCH  12  13
HETATM   13  C   UNL     1      -9.106  16.133  68.501  1.00  0.00    -0.208 A  
HETATM   14  C   UNL     1     -10.158  16.172  69.398  1.00  0.00    -0.256 A  
HETATM   15  C   UNL     1      -8.674  19.438  66.453  1.00  0.00    -0.376 A  
HETATM   16  C   UNL     1      -9.911  19.994  66.766  1.00  0.00    -0.585 A  
HETATM   17  C   UNL     1     -10.749  19.351  67.677  1.00  0.00    -0.536 A  
HETATM   18  N   UNL     1     -10.892  17.343  69.214  1.00  0.00    -0.296 NA 
HETATM   19  C   UNL     1      -8.285  18.191  66.985  1.00  0.00    -0.246 A  
HETATM   20  C   UNL     1      -9.138  17.472  67.863  1.00  0.00    -0.261 A  
HETATM   21  C   UNL     1     -10.320  18.116  68.233  1.00  0.00    -0.363 A  
HETATM   22  H   UNL     1     -11.733  17.591  69.734  1.00  0.00     0.000 HD 
ENDBRANCH  12  13
ENDBRANCH  11  12
BRANCH  11  23
HETATM   23  C   UNL     1      -7.524  12.536  67.224  1.00  0.00    -0.125 C  
HETATM   24  N   UNL     1      -7.926  11.410  66.532  1.00  0.00    -0.252 N  
HETATM   25  H   UNL     1      -8.896  11.321  66.231  1.00  0.00     0.000 HD 
HETATM   26  O   UNL     1      -6.347  12.729  67.543  1.00  0.00    -0.142 OA 
BRANCH  24  27
HETATM   27  C   UNL     1      -6.981  10.360  66.233  1.00  0.00    -0.118 C  
BRANCH  27  28
HETATM   28  N   UNL     1      -5.808  10.950  65.641  1.00  0.00    -0.285 N  
HETATM   29  O   UNL     1      -5.901   9.720  63.686  1.00  0.00    -0.095 OA 
HETATM   30  C   UNL     1      -5.373  10.565  64.393  1.00  0.00    -0.145 C  
HETATM   31  H   UNL     1      -5.292  11.664  66.154  1.00  0.00     0.000 HD 
ENDBRANCH  27  28
BRANCH  27  32
HETATM   32  C   UNL     1      -6.698   9.301  67.321  1.00  0.00    -0.069 C  
BRANCH  32  33
HETATM   33  C   UNL     1      -7.682   8.412  68.064  1.00  0.00    -0.103 A  
HETATM   34  C   UNL     1      -9.199   7.245  69.347  1.00  0.00    -0.148 A  
HETATM   35  H   UNL     1      -9.128   5.522  68.119  1.00  0.00     0.000 HD 
HETATM   36  C   UNL     1     -10.116   6.921  70.359  1.00  0.00    -0.201 A  
HETATM   37  C   UNL     1      -7.908   7.146  67.532  1.00  0.00    -0.112 A  
HETATM   38  C   UNL     1     -10.341   7.867  71.352  1.00  0.00    -0.234 A  
HETATM   39  N   UNL     1      -8.802   6.471  68.300  1.00  0.00    -0.120 NA 
HETATM   40  C   UNL     1      -9.663   9.085  71.325  1.00  0.00    -0.371 A  
HETATM   41  C   UNL     1      -8.754   9.399  70.293  1.00  0.00    -0.261 A  
HETATM   42  C   UNL     1      -8.505   8.468  69.261  1.00  0.00    -0.128 A  
ENDBRANCH  32  33
ENDBRANCH  27  32
ENDBRANCH  24  27
ENDBRANCH  11  23
ENDBRANCH   7  11
TORSDOF 8
ENDMDL
MODEL      255
REMARK 921   NORMALIZED FREE ENERGY PREDICTED BY IDOCK:   -5.67 KCAL/MOL
REMARK 922        TOTAL FREE ENERGY PREDICTED BY IDOCK:  -10.46 KCAL/MOL
REMARK 923 INTER-LIGAND FREE ENERGY PREDICTED BY IDOCK:   -9.65 KCAL/MOL
REMARK 924 INTRA-LIGAND FREE ENERGY PREDICTED BY IDOCK:   -0.81 KCAL/MOL
REMARK 927      BINDING AFFINITY PREDICTED BY RF-SCORE:    0.00 PKD
ROOT
HETATM    1  C   UNL     1      -6.968   8.682  67.011  1.00  0.00    -0.074 C  
HETATM    2  C   UNL     1      -8.185   7.921  67.570  1.00  0.00    -0.124 C  
HETATM    3  C   UNL     1      -9.608   8.798  67.481  1.00  0.00    -0.152 C  
HETATM    4  N   UNL     1      -7.898   7.615  69.001  1.00  0.00    -0.117 NA 
HETATM    5  C   UNL     1      -8.185   6.560  66.820  1.00  0.00    -0.110 C  
HETATM    6  H2  UNL     1      -7.661   8.444  69.547  1.00  0.00     0.000 HD 
HETATM    7  N   UNL     1      -9.916   9.640  68.556  1.00  0.00    -0.160 N  
HETATM    8  H1  UNL     1      -8.704   7.110  69.371  1.00  0.00     0.000 HD 
HETATM    9  O   UNL     1     -10.337   8.739  66.492  1.00  0.00    -0.279 OA 
HETATM   10  H   UNL     1      -9.310   9.486  69.361  1.00  0.00     0.000 HD 
ENDROOT
BRANCH   7  11
HETATM   11  C   UNL     1     -10.981  10.766  68.807  1.00  0.00    -0.247 C  
BRANCH  11  12
HETATM   12  C   UNL     1     -12.356  10.559  69.597  1.00  0.00    -0.145 C  
BRANCH  12  13
HETATM   13  C   UNL     1     -12.725  11.502  70.841  1.00  0.00    -0.372 A  
HETATM   14  C   UNL     1     -13.240  11.147  72.073  1.00  0.00    -0.323 A  
HETATM   15  C   UNL     1     -12.161  15.353  70.432  1.00  0.00    -0.430 A  
HETATM   16  C   UNL     1     -12.914  15.751  71.533  1.00  0.00    -0.495 A  
HETATM   17  C   UNL     1     -13.456  14.791  72.386  1.00  0.00    -0.529 A  
HETATM   18  N   UNL     1     -13.574  12.293  72.794  1.00  0.00    -0.438 NA 
HETATM   19  C   UNL     1     -12.002  13.986  70.120  1.00  0.00    -0.399 A  
HETATM   20  C   UNL     1     -12.595  12.978  70.926  1.00  0.00    -0.364 A  
HETATM   21  C   UNL     1     -13.248  13.420  72.077  1.00  0.00    -0.438 A  
HETATM   22  H   UNL     1     -14.000  12.295  73.720  1.00  0.00     0.000 HD 
ENDBRANCH  12  13
ENDBRANCH  11  12
BRANCH  11  23
HETATM   23  C   UNL     1     -11.119  11.560  67.481  1.00  0.00    -0.272 C  
HETATM   24  N   UNL     1      -9.957  11.865  66.800  1.00  0.00    -0.194 N  
HETATM   25  H   UNL     1      -9.073  11.454  67.099  1.00  0.00     0.000 HD 
HETATM   26  O   UNL     1     -12.225  11.968  67.113  1.00  0.00    -0.505 OA 
BRANCH  24  27
HETATM   27  C   UNL     1      -9.986  12.762  65.669  1.00  0.00    -0.238 C  
BRANCH  27  28
HETATM   28  N   UNL     1     -10.837  12.196  64.653  1.00  0.00    -0.292 N  
HETATM   29  O   UNL     1     -11.752  14.208  63.978  1.00  0.00    -0.328 OA 
HETATM   30  C   UNL     1     -11.655  12.994  63.886  1.00  0.00    -0.449 C  
HETATM   31  H   UNL     1     -10.832  11.188  64.501  1.00  0.00     0.000 HD 
ENDBRANCH  27  28
BRANCH  27  32
HETATM   32  C   UNL     1     -10.204  14.267  65.936  1.00  0.00    -0.338 C  
BRANCH  32  33
HETATM   33  C   UNL     1      -9.254  15.271  66.568  1.00  0.00    -0.321 A  
HETATM   34  C   UNL     1      -7.745  16.617  67.673  1.00  0.00    -0.166 A  
HETATM   35  H   UNL     1      -8.184  18.320  66.495  1.00  0.00     0.000 HD 
HETATM   36  C   UNL     1      -6.756  17.052  68.569  1.00  0.00    -0.172 A  
HETATM   37  C   UNL     1      -9.256  16.557  66.034  1.00  0.00    -0.260 A  
HETATM   38  C   UNL     1      -6.292  16.139  69.509  1.00  0.00    -0.191 A  
HETATM   39  N   UNL     1      -8.364  17.337  66.698  1.00  0.00    -0.238 NA 
HETATM   40  C   UNL     1      -6.811  14.845  69.545  1.00  0.00    -0.172 A  
HETATM   41  C   UNL     1      -7.796  14.422  68.627  1.00  0.00    -0.140 A  
HETATM   42  C   UNL     1      -8.286  15.316  67.651  1.00  0.00    -0.176 A  
ENDBRANCH  32  33
ENDBRANCH  27  32
ENDBRANCH  24  27
ENDBRANCH  11  23
ENDBRANCH   7  11
TORSDOF 8
ENDMDL
MODEL      256
REMARK 921   NORMALIZED FREE ENERGY PREDICTED BY IDOCK:   -5.66 KCAL/MOL
REMARK 922        TOTAL FREE ENERGY PREDICTED BY IDOCK:  -10.45 KCAL/MOL
REMARK 923 INTER-LIGAND FREE ENERGY PREDICTED BY IDOCK:   -9.38 KCAL/MOL
REMARK 924 INTRA-LIGAND FREE ENERGY PREDICTED BY IDOCK:   -1.08 KCAL/MOL
REMARK 927      BINDING AFFINITY PREDICTED BY RF-SCORE:    0.00 PKD
ROOT
HETATM    1  C   UNL     1      -9.046   5.508  73.418  1.00  0.00    -0.129 C  
HETATM    2  C   UNL     1     -10.421   5.684  72.744  1.00  0.00    -0.211 C  
HETATM    3  C   UNL     1     -10.331   5.761  71.074  1.00  0.00    -0.230 C  
HETATM    4  N   UNL     1     -11.003   6.959  73.253  1.00  0.00    -0.481 NA 
HETATM    5  C   UNL     1     -11.299   4.538  73.319  1.00  0.00    -0.364 C  
HETATM    6  H2  UNL     1     -10.387   7.762  73.118  1.00  0.00     0.000 HD 
HETATM    7  N   UNL     1     -10.129   7.019  70.495  1.00  0.00    -0.191 N  
HETATM    8  H1  UNL     1     -11.913   7.076  72.806  1.00  0.00     0.000 HD 
HETATM    9  O   UNL     1     -10.397   4.746  70.381  1.00  0.00    -0.223 OA 
HETATM   10  H   UNL     1     -10.234   7.781  71.164  1.00  0.00     0.000 HD 
ENDROOT
BRANCH   7  11
HETATM   11  C   UNL     1      -9.777   7.527  69.052  1.00  0.00    -0.162 C  
BRANCH  11  12
HETATM   12  C   UNL     1      -8.840   6.749  68.016  1.00  0.00    -0.119 C  
BRANCH  12  13
HETATM   13  C   UNL     1      -9.487   5.847  66.858  1.00  0.00    -0.145 A  
HETATM   14  C   UNL     1     -10.822   5.593  66.605  1.00  0.00    -0.204 A  
HETATM   15  C   UNL     1      -7.053   4.051  64.377  1.00  0.00    -0.054 A  
HETATM   16  C   UNL     1      -7.983   3.166  63.839  1.00  0.00    -0.082 A  
HETATM   17  C   UNL     1      -9.324   3.261  64.208  1.00  0.00    -0.136 A  
HETATM   18  N   UNL     1     -10.937   4.620  65.611  1.00  0.00    -0.868 NA 
HETATM   19  C   UNL     1      -7.433   4.996  65.353  1.00  0.00    -0.073 A  
HETATM   20  C   UNL     1      -8.776   5.080  65.806  1.00  0.00    -0.135 A  
HETATM   21  C   UNL     1      -9.693   4.248  65.161  1.00  0.00    -0.194 A  
HETATM   22  H   UNL     1     -11.818   4.240  65.269  1.00  0.00     0.000 HD 
ENDBRANCH  12  13
ENDBRANCH  11  12
BRANCH  11  23
HETATM   23  C   UNL     1      -9.477   9.046  69.169  1.00  0.00    -0.153 C  
HETATM   24  N   UNL     1      -9.972   9.868  68.175  1.00  0.00    -0.147 N  
HETATM   25  H   UNL     1     -10.622   9.493  67.485  1.00  0.00     0.000 HD 
HETATM   26  O   UNL     1      -8.750   9.468  70.073  1.00  0.00    -0.184 OA 
BRANCH  24  27
HETATM   27  C   UNL     1      -9.574  11.255  68.108  1.00  0.00    -0.186 C  
BRANCH  27  28
HETATM   28  N   UNL     1      -8.871  11.474  66.870  1.00  0.00    -0.175 N  
HETATM   29  O   UNL     1     -10.550  10.653  65.510  1.00  0.00    -0.212 OA 
HETATM   30  C   UNL     1      -9.442  11.146  65.662  1.00  0.00    -0.224 C  
HETATM   31  H   UNL     1      -7.936  11.878  66.890  1.00  0.00     0.000 HD 
ENDBRANCH  27  28
BRANCH  27  32
HETATM   32  C   UNL     1     -10.622  12.332  68.461  1.00  0.00    -0.254 C  
BRANCH  32  33
HETATM   33  C   UNL     1     -11.546  12.405  69.666  1.00  0.00    -0.330 A  
HETATM   34  C   UNL     1     -12.975  12.749  71.441  1.00  0.00    -0.266 A  
HETATM   35  H   UNL     1     -12.878  10.738  72.093  1.00  0.00     0.000 HD 
HETATM   36  C   UNL     1     -13.846  13.374  72.347  1.00  0.00    -0.665 A  
HETATM   37  C   UNL     1     -11.741  11.226  70.379  1.00  0.00    -0.304 A  
HETATM   38  C   UNL     1     -14.075  14.735  72.187  1.00  0.00    -0.604 A  
HETATM   39  N   UNL     1     -12.583  11.446  71.422  1.00  0.00    -0.362 NA 
HETATM   40  C   UNL     1     -13.446  15.435  71.159  1.00  0.00    -0.565 A  
HETATM   41  C   UNL     1     -12.583  14.788  70.248  1.00  0.00    -0.365 A  
HETATM   42  C   UNL     1     -12.332  13.404  70.371  1.00  0.00    -0.382 A  
ENDBRANCH  32  33
ENDBRANCH  27  32
ENDBRANCH  24  27
ENDBRANCH  11  23
ENDBRANCH   7  11
TORSDOF 8
ENDMDL
MODEL      257
REMARK 921   NORMALIZED FREE ENERGY PREDICTED BY IDOCK:   -5.66 KCAL/MOL
REMARK 922        TOTAL FREE ENERGY PREDICTED BY IDOCK:  -10.45 KCAL/MOL
REMARK 923 INTER-LIGAND FREE ENERGY PREDICTED BY IDOCK:   -8.61 KCAL/MOL
REMARK 924 INTRA-LIGAND FREE ENERGY PREDICTED BY IDOCK:   -1.84 KCAL/MOL
REMARK 927      BINDING AFFINITY PREDICTED BY RF-SCORE:    0.00 PKD
ROOT
HETATM    1  C   UNL     1      -8.515  19.979  68.199  1.00  0.00    -0.217 C  
HETATM    2  C   UNL     1      -9.133  19.186  67.031  1.00  0.00    -0.294 C  
HETATM    3  C   UNL     1      -9.465  17.592  67.420  1.00  0.00    -0.255 C  
HETATM    4  N   UNL     1      -8.151  19.212  65.909  1.00  0.00    -0.460 NA 
HETATM    5  C   UNL     1     -10.351  20.035  66.571  1.00  0.00    -0.572 C  
HETATM    6  H2  UNL     1      -7.227  18.871  66.179  1.00  0.00     0.000 HD 
HETATM    7  N   UNL     1      -8.444  16.654  67.230  1.00  0.00    -0.189 N  
HETATM    8  H1  UNL     1      -8.560  18.687  65.136  1.00  0.00     0.000 HD 
HETATM    9  O   UNL     1     -10.551  17.261  67.895  1.00  0.00    -0.365 OA 
HETATM   10  H   UNL     1      -7.657  17.033  66.703  1.00  0.00     0.000 HD 
ENDROOT
BRANCH   7  11
HETATM   11  C   UNL     1      -8.231  15.154  67.641  1.00  0.00    -0.164 C  
BRANCH  11  12
HETATM   12  C   UNL     1      -6.805  14.445  67.790  1.00  0.00    -0.194 C  
BRANCH  12  13
HETATM   13  C   UNL     1      -6.576  13.315  68.905  1.00  0.00    -0.107 A  
HETATM   14  C   UNL     1      -6.322  13.471  70.255  1.00  0.00     0.024 A  
HETATM   15  C   UNL     1      -6.702   9.576  67.759  1.00  0.00    -0.067 A  
HETATM   16  C   UNL     1      -6.122   9.030  68.900  1.00  0.00    -0.044 A  
HETATM   17  C   UNL     1      -5.831   9.850  69.990  1.00  0.00    -0.046 A  
HETATM   18  N   UNL     1      -6.016  12.235  70.824  1.00  0.00    -0.520 NA 
HETATM   19  C   UNL     1      -6.929  10.965  67.655  1.00  0.00    -0.082 A  
HETATM   20  C   UNL     1      -6.583  11.844  68.716  1.00  0.00    -0.080 A  
HETATM   21  C   UNL     1      -6.106  11.240  69.881  1.00  0.00    -0.130 A  
HETATM   22  H   UNL     1      -5.763  12.090  71.801  1.00  0.00     0.000 HD 
ENDBRANCH  12  13
ENDBRANCH  11  12
BRANCH  11  23
HETATM   23  C   UNL     1      -9.281  14.319  66.860  1.00  0.00    -0.254 C  
HETATM   24  N   UNL     1      -9.784  13.193  67.482  1.00  0.00    -0.209 N  
HETATM   25  H   UNL     1      -9.568  13.018  68.463  1.00  0.00     0.000 HD 
HETATM   26  O   UNL     1      -9.576  14.618  65.699  1.00  0.00    -0.298 OA 
BRANCH  24  27
HETATM   27  C   UNL     1     -10.613  12.263  66.751  1.00  0.00    -0.224 C  
BRANCH  27  28
HETATM   28  N   UNL     1      -9.819  11.651  65.717  1.00  0.00    -0.231 N  
HETATM   29  O   UNL     1     -11.344  12.012  64.019  1.00  0.00    -0.347 OA 
HETATM   30  C   UNL     1     -10.271  11.586  64.419  1.00  0.00    -0.300 C  
HETATM   31  H   UNL     1      -8.906  11.261  65.950  1.00  0.00     0.000 HD 
ENDBRANCH  27  28
BRANCH  27  32
HETATM   32  C   UNL     1     -11.498  11.286  67.556  1.00  0.00    -0.324 C  
BRANCH  32  33
HETATM   33  C   UNL     1     -11.175  10.547  68.844  1.00  0.00    -0.323 A  
HETATM   34  C   UNL     1     -10.913   9.465  70.862  1.00  0.00    -0.320 A  
HETATM   35  H   UNL     1      -8.874   9.015  70.519  1.00  0.00     0.000 HD 
HETATM   36  C   UNL     1     -11.190   8.914  72.123  1.00  0.00    -0.362 A  
HETATM   37  C   UNL     1      -9.872  10.076  68.987  1.00  0.00    -0.199 A  
HETATM   38  C   UNL     1     -12.469   9.091  72.637  1.00  0.00    -0.207 A  
HETATM   39  N   UNL     1      -9.735   9.444  70.181  1.00  0.00    -0.218 NA 
HETATM   40  C   UNL     1     -13.424   9.800  71.909  1.00  0.00    -0.485 A  
HETATM   41  C   UNL     1     -13.132  10.336  70.637  1.00  0.00    -0.292 A  
HETATM   42  C   UNL     1     -11.847  10.170  70.076  1.00  0.00    -0.253 A  
ENDBRANCH  32  33
ENDBRANCH  27  32
ENDBRANCH  24  27
ENDBRANCH  11  23
ENDBRANCH   7  11
TORSDOF 8
ENDMDL
MODEL      258
REMARK 921   NORMALIZED FREE ENERGY PREDICTED BY IDOCK:   -5.66 KCAL/MOL
REMARK 922        TOTAL FREE ENERGY PREDICTED BY IDOCK:  -10.44 KCAL/MOL
REMARK 923 INTER-LIGAND FREE ENERGY PREDICTED BY IDOCK:   -8.53 KCAL/MOL
REMARK 924 INTRA-LIGAND FREE ENERGY PREDICTED BY IDOCK:   -1.91 KCAL/MOL
REMARK 927      BINDING AFFINITY PREDICTED BY RF-SCORE:    0.00 PKD
ROOT
HETATM    1  C   UNL     1     -13.735  14.677  71.083  1.00  0.00    -0.374 C  
HETATM    2  C   UNL     1     -12.312  14.993  71.582  1.00  0.00    -0.342 C  
HETATM    3  C   UNL     1     -11.265  15.434  70.353  1.00  0.00    -0.323 C  
HETATM    4  N   UNL     1     -11.789  13.761  72.240  1.00  0.00     0.558 NA 
HETATM    5  C   UNL     1     -12.508  16.045  72.710  1.00  0.00    -0.582 C  
HETATM    6  H2  UNL     1     -11.826  12.939  71.636  1.00  0.00     0.000 HD 
HETATM    7  N   UNL     1     -10.572  14.411  69.696  1.00  0.00    -0.446 N  
HETATM    8  H1  UNL     1     -10.847  13.971  72.571  1.00  0.00     0.000 HD 
HETATM    9  O   UNL     1     -11.138  16.609  70.009  1.00  0.00    -0.312 OA 
HETATM   10  H   UNL     1     -10.658  13.512  70.170  1.00  0.00     0.000 HD 
ENDROOT
BRANCH   7  11
HETATM   11  C   UNL     1      -9.692  14.329  68.399  1.00  0.00    -0.225 C  
BRANCH  11  12
HETATM   12  C   UNL     1     -10.054  15.028  67.008  1.00  0.00    -0.244 C  
BRANCH  12  13
HETATM   13  C   UNL     1     -11.186  14.404  66.058  1.00  0.00    -0.333 A  
HETATM   14  C   UNL     1     -12.542  14.670  66.041  1.00  0.00     0.055 A  
HETATM   15  C   UNL     1     -10.079  11.738  63.418  1.00  0.00    -0.470 A  
HETATM   16  C   UNL     1     -11.351  11.257  63.120  1.00  0.00     0.192 A  
HETATM   17  C   UNL     1     -12.472  11.868  63.681  1.00  0.00    -0.583 A  
HETATM   18  N   UNL     1     -13.186  13.783  65.178  1.00  0.00    -0.682 NA 
HETATM   19  C   UNL     1      -9.900  12.787  64.344  1.00  0.00    -0.052 A  
HETATM   20  C   UNL     1     -11.011  13.391  64.989  1.00  0.00    -0.328 A  
HETATM   21  C   UNL     1     -12.271  12.951  64.579  1.00  0.00    -0.426 A  
HETATM   22  H   UNL     1     -14.192  13.756  65.014  1.00  0.00     0.000 HD 
ENDBRANCH  12  13
ENDBRANCH  11  12
BRANCH  11  23
HETATM   23  C   UNL     1      -9.215  12.857  68.270  1.00  0.00    -0.187 C  
HETATM   24  N   UNL     1     -10.094  11.869  68.666  1.00  0.00    -0.312 N  
HETATM   25  H   UNL     1     -11.058  12.111  68.896  1.00  0.00     0.000 HD 
HETATM   26  O   UNL     1      -8.062  12.606  67.906  1.00  0.00    -0.140 OA 
BRANCH  24  27
HETATM   27  C   UNL     1      -9.657  10.495  68.759  1.00  0.00    -0.179 C  
BRANCH  27  28
HETATM   28  N   UNL     1      -8.976  10.311  70.014  1.00  0.00    -0.369 N  
HETATM   29  O   UNL     1      -6.962   9.662  69.085  1.00  0.00    -0.049 OA 
HETATM   30  C   UNL     1      -7.662   9.905  70.057  1.00  0.00    -0.178 C  
HETATM   31  H   UNL     1      -9.476  10.484  70.886  1.00  0.00     0.000 HD 
ENDBRANCH  27  28
BRANCH  27  32
HETATM   32  C   UNL     1     -10.664   9.383  68.395  1.00  0.00    -0.213 C  
BRANCH  32  33
HETATM   33  C   UNL     1     -10.484   7.875  68.460  1.00  0.00    -0.202 A  
HETATM   34  C   UNL     1     -10.164   5.617  68.793  1.00  0.00    -0.204 A  
HETATM   35  H   UNL     1     -10.544   5.120  66.771  1.00  0.00     0.000 HD 
HETATM   36  C   UNL     1      -9.902   4.387  69.417  1.00  0.00    -0.239 A  
HETATM   37  C   UNL     1     -10.666   7.170  67.273  1.00  0.00    -0.329 A  
HETATM   38  C   UNL     1      -9.575   4.406  70.767  1.00  0.00    -0.259 A  
HETATM   39  N   UNL     1     -10.471   5.843  67.486  1.00  0.00    -0.215 NA 
HETATM   40  C   UNL     1      -9.510   5.617  71.455  1.00  0.00    -0.177 A  
HETATM   41  C   UNL     1      -9.789   6.843  70.815  1.00  0.00    -0.190 A  
HETATM   42  C   UNL     1     -10.135   6.865  69.446  1.00  0.00    -0.176 A  
ENDBRANCH  32  33
ENDBRANCH  27  32
ENDBRANCH  24  27
ENDBRANCH  11  23
ENDBRANCH   7  11
TORSDOF 8
ENDMDL
MODEL      259
REMARK 921   NORMALIZED FREE ENERGY PREDICTED BY IDOCK:   -5.65 KCAL/MOL
REMARK 922        TOTAL FREE ENERGY PREDICTED BY IDOCK:  -10.44 KCAL/MOL
REMARK 923 INTER-LIGAND FREE ENERGY PREDICTED BY IDOCK:   -8.03 KCAL/MOL
REMARK 924 INTRA-LIGAND FREE ENERGY PREDICTED BY IDOCK:   -2.41 KCAL/MOL
REMARK 927      BINDING AFFINITY PREDICTED BY RF-SCORE:    0.00 PKD
ROOT
HETATM    1  C   UNL     1      -6.966  10.011  70.447  1.00  0.00    -0.137 C  
HETATM    2  C   UNL     1      -7.842   8.835  69.974  1.00  0.00    -0.094 C  
HETATM    3  C   UNL     1      -7.342   8.186  68.514  1.00  0.00    -0.093 C  
HETATM    4  N   UNL     1      -9.232   9.353  69.819  1.00  0.00    -0.181 NA 
HETATM    5  C   UNL     1      -7.871   7.848  71.174  1.00  0.00    -0.086 C  
HETATM    6  H2  UNL     1      -9.289  10.165  69.204  1.00  0.00     0.000 HD 
HETATM    7  N   UNL     1      -7.857   8.756  67.344  1.00  0.00    -0.097 N  
HETATM    8  H1  UNL     1      -9.812   8.574  69.506  1.00  0.00     0.000 HD 
HETATM    9  O   UNL     1      -6.521   7.270  68.467  1.00  0.00    -0.038 OA 
HETATM   10  H   UNL     1      -8.625   9.401  67.526  1.00  0.00     0.000 HD 
ENDROOT
BRANCH   7  11
HETATM   11  C   UNL     1      -7.524   8.630  65.815  1.00  0.00    -0.085 C  
BRANCH  11  12
HETATM   12  C   UNL     1      -7.563   9.842  64.772  1.00  0.00    -0.139 C  
BRANCH  12  13
HETATM   13  C   UNL     1      -8.962  10.354  64.178  1.00  0.00    -0.251 A  
HETATM   14  C   UNL     1      -9.447  10.240  62.889  1.00  0.00    -0.301 A  
HETATM   15  C   UNL     1     -11.398  12.217  66.607  1.00  0.00    -0.398 A  
HETATM   16  C   UNL     1     -12.233  12.753  65.631  1.00  0.00    -0.503 A  
HETATM   17  C   UNL     1     -12.044  12.410  64.293  1.00  0.00    -0.516 A  
HETATM   18  N   UNL     1     -10.627  10.972  62.761  1.00  0.00    -0.778 NA 
HETATM   19  C   UNL     1     -10.309  11.391  66.256  1.00  0.00    -0.287 A  
HETATM   20  C   UNL     1     -10.041  11.073  64.898  1.00  0.00    -0.359 A  
HETATM   21  C   UNL     1     -10.967  11.543  63.964  1.00  0.00    -0.383 A  
HETATM   22  H   UNL     1     -11.162  11.070  61.899  1.00  0.00     0.000 HD 
ENDBRANCH  12  13
ENDBRANCH  11  12
BRANCH  11  23
HETATM   23  C   UNL     1      -8.205   7.330  65.310  1.00  0.00    -0.125 C  
HETATM   24  N   UNL     1      -8.682   6.452  66.264  1.00  0.00    -0.139 N  
HETATM   25  H   UNL     1      -8.703   6.732  67.244  1.00  0.00     0.000 HD 
HETATM   26  O   UNL     1      -8.231   7.070  64.103  1.00  0.00    -0.066 OA 
BRANCH  24  27
HETATM   27  C   UNL     1      -9.150   5.140  65.881  1.00  0.00    -0.153 C  
BRANCH  27  28
HETATM   28  N   UNL     1      -8.098   4.466  65.165  1.00  0.00    -0.101 N  
HETATM   29  O   UNL     1      -6.596   4.464  66.921  1.00  0.00    -0.044 OA 
HETATM   30  C   UNL     1      -6.894   4.184  65.770  1.00  0.00    -0.057 C  
HETATM   31  H   UNL     1      -8.247   4.193  64.194  1.00  0.00     0.000 HD 
ENDBRANCH  27  28
BRANCH  27  32
HETATM   32  C   UNL     1      -9.867   4.282  66.945  1.00  0.00    -0.224 C  
BRANCH  32  33
HETATM   33  C   UNL     1      -9.845   4.425  68.458  1.00  0.00    -0.140 A  
HETATM   34  C   UNL     1      -9.977   4.815  70.725  1.00  0.00    -0.221 A  
HETATM   35  H   UNL     1      -8.540   3.337  71.208  1.00  0.00     0.000 HD 
HETATM   36  C   UNL     1     -10.363   5.351  71.964  1.00  0.00    -0.268 A  
HETATM   37  C   UNL     1      -8.985   3.581  69.155  1.00  0.00    -0.120 A  
HETATM   38  C   UNL     1     -11.286   6.389  71.958  1.00  0.00    -0.338 A  
HETATM   39  N   UNL     1      -9.074   3.825  70.488  1.00  0.00    -0.106 NA 
HETATM   40  C   UNL     1     -11.793   6.868  70.750  1.00  0.00    -0.427 A  
HETATM   41  C   UNL     1     -11.404   6.308  69.515  1.00  0.00    -0.475 A  
HETATM   42  C   UNL     1     -10.475   5.246  69.480  1.00  0.00    -0.304 A  
ENDBRANCH  32  33
ENDBRANCH  27  32
ENDBRANCH  24  27
ENDBRANCH  11  23
ENDBRANCH   7  11
TORSDOF 8
ENDMDL
MODEL      260
REMARK 921   NORMALIZED FREE ENERGY PREDICTED BY IDOCK:   -5.63 KCAL/MOL
REMARK 922        TOTAL FREE ENERGY PREDICTED BY IDOCK:  -10.40 KCAL/MOL
REMARK 923 INTER-LIGAND FREE ENERGY PREDICTED BY IDOCK:   -8.68 KCAL/MOL
REMARK 924 INTRA-LIGAND FREE ENERGY PREDICTED BY IDOCK:   -1.73 KCAL/MOL
REMARK 927      BINDING AFFINITY PREDICTED BY RF-SCORE:    0.00 PKD
ROOT
HETATM    1  C   UNL     1      -9.818  12.337  63.799  1.00  0.00    -0.204 C  
HETATM    2  C   UNL     1     -10.562  11.534  64.884  1.00  0.00    -0.303 C  
HETATM    3  C   UNL     1      -9.879  11.691  66.405  1.00  0.00    -0.207 C  
HETATM    4  N   UNL     1     -10.516  10.098  64.483  1.00  0.00    -0.228 NA 
HETATM    5  C   UNL     1     -12.046  11.978  64.764  1.00  0.00    -0.282 C  
HETATM    6  H2  UNL     1      -9.568   9.761  64.316  1.00  0.00     0.000 HD 
HETATM    7  N   UNL     1      -8.860  10.796  66.750  1.00  0.00    -0.140 N  
HETATM    8  H1  UNL     1     -11.009   9.567  65.201  1.00  0.00     0.000 HD 
HETATM    9  O   UNL     1     -10.229  12.584  67.176  1.00  0.00    -0.216 OA 
HETATM   10  H   UNL     1      -8.769  10.028  66.086  1.00  0.00     0.000 HD 
ENDROOT
BRANCH   7  11
HETATM   11  C   UNL     1      -7.823  10.703  67.925  1.00  0.00    -0.105 C  
BRANCH  11  12
HETATM   12  C   UNL     1      -8.096   9.977  69.324  1.00  0.00    -0.141 C  
BRANCH  12  13
HETATM   13  C   UNL     1      -9.556   9.413  69.672  1.00  0.00    -0.199 A  
HETATM   14  C   UNL     1     -10.771  10.070  69.626  1.00  0.00    -0.255 A  
HETATM   15  C   UNL     1      -9.834   5.693  70.852  1.00  0.00    -0.237 A  
HETATM   16  C   UNL     1     -11.130   5.771  71.354  1.00  0.00    -0.273 A  
HETATM   17  C   UNL     1     -11.865   6.945  71.194  1.00  0.00    -0.395 A  
HETATM   18  N   UNL     1     -11.767   9.261  70.174  1.00  0.00    -0.465 NA 
HETATM   19  C   UNL     1      -9.221   6.812  70.251  1.00  0.00    -0.156 A  
HETATM   20  C   UNL     1      -9.912   8.047  70.130  1.00  0.00    -0.191 A  
HETATM   21  C   UNL     1     -11.243   8.047  70.549  1.00  0.00    -0.250 A  
HETATM   22  H   UNL     1     -12.743   9.533  70.281  1.00  0.00     0.000 HD 
ENDBRANCH  12  13
ENDBRANCH  11  12
BRANCH  11  23
HETATM   23  C   UNL     1      -7.155  12.099  68.049  1.00  0.00    -0.096 C  
HETATM   24  N   UNL     1      -7.687  12.977  68.974  1.00  0.00    -0.326 N  
HETATM   25  H   UNL     1      -8.394  12.651  69.632  1.00  0.00     0.000 HD 
HETATM   26  O   UNL     1      -6.242  12.422  67.283  1.00  0.00    -0.150 OA 
BRANCH  24  27
HETATM   27  C   UNL     1      -7.248  14.352  69.013  1.00  0.00    -0.129 C  
BRANCH  27  28
HETATM   28  N   UNL     1      -5.819  14.376  69.193  1.00  0.00    -0.091 N  
HETATM   29  O   UNL     1      -5.849  13.502  71.333  1.00  0.00    -0.305 OA 
HETATM   30  C   UNL     1      -5.244  13.935  70.364  1.00  0.00    -0.104 C  
HETATM   31  H   UNL     1      -5.225  14.724  68.442  1.00  0.00     0.000 HD 
ENDBRANCH  27  28
BRANCH  27  32
HETATM   32  C   UNL     1      -7.784  15.320  67.935  1.00  0.00    -0.147 C  
BRANCH  32  33
HETATM   33  C   UNL     1      -7.960  16.828  68.011  1.00  0.00    -0.179 A  
HETATM   34  C   UNL     1      -8.419  19.086  67.983  1.00  0.00    -0.301 A  
HETATM   35  H   UNL     1      -6.780  19.580  69.229  1.00  0.00     0.000 HD 
HETATM   36  C   UNL     1      -9.039  20.315  67.711  1.00  0.00    -0.367 A  
HETATM   37  C   UNL     1      -7.033  17.530  68.776  1.00  0.00    -0.237 A  
HETATM   38  C   UNL     1     -10.145  20.307  66.868  1.00  0.00    -0.565 A  
HETATM   39  N   UNL     1      -7.316  18.857  68.748  1.00  0.00    -0.313 NA 
HETATM   40  C   UNL     1     -10.599  19.107  66.321  1.00  0.00    -0.521 A  
HETATM   41  C   UNL     1      -9.970  17.879  66.616  1.00  0.00    -0.355 A  
HETATM   42  C   UNL     1      -8.850  17.844  67.475  1.00  0.00    -0.248 A  
ENDBRANCH  32  33
ENDBRANCH  27  32
ENDBRANCH  24  27
ENDBRANCH  11  23
ENDBRANCH   7  11
TORSDOF 8
ENDMDL
MODEL      261
REMARK 921   NORMALIZED FREE ENERGY PREDICTED BY IDOCK:   -5.62 KCAL/MOL
REMARK 922        TOTAL FREE ENERGY PREDICTED BY IDOCK:  -10.39 KCAL/MOL
REMARK 923 INTER-LIGAND FREE ENERGY PREDICTED BY IDOCK:   -8.44 KCAL/MOL
REMARK 924 INTRA-LIGAND FREE ENERGY PREDICTED BY IDOCK:   -1.96 KCAL/MOL
REMARK 927      BINDING AFFINITY PREDICTED BY RF-SCORE:    0.00 PKD
ROOT
HETATM    1  C   UNL     1      -7.340   3.466  70.013  1.00  0.00    -0.041 C  
HETATM    2  C   UNL     1      -8.798   3.103  69.671  1.00  0.00    -0.086 C  
HETATM    3  C   UNL     1      -9.493   4.145  68.560  1.00  0.00    -0.153 C  
HETATM    4  N   UNL     1      -9.579   3.163  70.940  1.00  0.00    -0.164 NA 
HETATM    5  C   UNL     1      -8.751   1.607  69.253  1.00  0.00    -0.108 C  
HETATM    6  H2  UNL     1      -9.493   4.060  71.420  1.00  0.00     0.000 HD 
HETATM    7  N   UNL     1     -10.124   5.292  69.057  1.00  0.00    -0.197 N  
HETATM    8  H1  UNL     1     -10.545   2.923  70.713  1.00  0.00     0.000 HD 
HETATM    9  O   UNL     1      -9.418   3.936  67.350  1.00  0.00    -0.178 OA 
HETATM   10  H   UNL     1     -10.239   5.269  70.070  1.00  0.00     0.000 HD 
ENDROOT
BRANCH   7  11
HETATM   11  C   UNL     1     -10.696   6.604  68.413  1.00  0.00    -0.258 C  
BRANCH  11  12
HETATM   12  C   UNL     1     -10.475   7.043  66.891  1.00  0.00    -0.356 C  
BRANCH  12  13
HETATM   13  C   UNL     1      -9.077   7.676  66.427  1.00  0.00    -0.214 A  
HETATM   14  C   UNL     1      -7.993   7.047  65.844  1.00  0.00    -0.113 A  
HETATM   15  C   UNL     1      -8.537  11.509  66.999  1.00  0.00    -0.161 A  
HETATM   16  C   UNL     1      -7.159  11.517  66.803  1.00  0.00    -0.112 A  
HETATM   17  C   UNL     1      -6.510  10.350  66.401  1.00  0.00    -0.097 A  
HETATM   18  N   UNL     1      -6.920   7.934  65.761  1.00  0.00    -0.056 NA 
HETATM   19  C   UNL     1      -9.280  10.316  66.874  1.00  0.00    -0.171 A  
HETATM   20  C   UNL     1      -8.646   9.092  66.533  1.00  0.00    -0.136 A  
HETATM   21  C   UNL     1      -7.283   9.169  66.241  1.00  0.00    -0.091 A  
HETATM   22  H   UNL     1      -5.997   7.699  65.396  1.00  0.00     0.000 HD 
ENDBRANCH  12  13
ENDBRANCH  11  12
BRANCH  11  23
HETATM   23  C   UNL     1     -10.481   7.744  69.445  1.00  0.00    -0.220 C  
HETATM   24  N   UNL     1     -11.594   8.464  69.834  1.00  0.00    -0.416 N  
HETATM   25  H   UNL     1     -12.523   8.151  69.554  1.00  0.00     0.000 HD 
HETATM   26  O   UNL     1      -9.342   8.035  69.822  1.00  0.00    -0.158 OA 
BRANCH  24  27
HETATM   27  C   UNL     1     -11.448   9.657  70.636  1.00  0.00    -0.306 C  
BRANCH  27  28
HETATM   28  N   UNL     1     -10.768   9.311  71.858  1.00  0.00    -0.274 N  
HETATM   29  O   UNL     1     -12.277   7.683  72.502  1.00  0.00    -0.219 OA 
HETATM   30  C   UNL     1     -11.259   8.332  72.692  1.00  0.00    -0.340 C  
HETATM   31  H   UNL     1      -9.910   9.800  72.110  1.00  0.00     0.000 HD 
ENDBRANCH  27  28
BRANCH  27  32
HETATM   32  C   UNL     1     -10.937  10.941  69.948  1.00  0.00    -0.266 C  
BRANCH  32  33
HETATM   33  C   UNL     1     -11.558  12.328  69.937  1.00  0.00    -0.278 A  
HETATM   34  C   UNL     1     -12.613  14.368  70.122  1.00  0.00    -0.286 A  
HETATM   35  H   UNL     1     -11.715  15.152  68.372  1.00  0.00     0.000 HD 
HETATM   36  C   UNL     1     -13.420  15.411  70.603  1.00  0.00    -0.213 A  
HETATM   37  C   UNL     1     -11.188  13.172  68.893  1.00  0.00    -0.277 A  
HETATM   38  C   UNL     1     -14.176  15.168  71.744  1.00  0.00    -0.674 A  
HETATM   39  N   UNL     1     -11.820  14.368  69.016  1.00  0.00    -0.313 NA 
HETATM   40  C   UNL     1     -14.122  13.922  72.367  1.00  0.00    -0.586 A  
HETATM   41  C   UNL     1     -13.295  12.889  71.876  1.00  0.00    -0.530 A  
HETATM   42  C   UNL     1     -12.505  13.100  70.725  1.00  0.00    -0.389 A  
ENDBRANCH  32  33
ENDBRANCH  27  32
ENDBRANCH  24  27
ENDBRANCH  11  23
ENDBRANCH   7  11
TORSDOF 8
ENDMDL
MODEL      262
REMARK 921   NORMALIZED FREE ENERGY PREDICTED BY IDOCK:   -5.62 KCAL/MOL
REMARK 922        TOTAL FREE ENERGY PREDICTED BY IDOCK:  -10.39 KCAL/MOL
REMARK 923 INTER-LIGAND FREE ENERGY PREDICTED BY IDOCK:   -8.33 KCAL/MOL
REMARK 924 INTRA-LIGAND FREE ENERGY PREDICTED BY IDOCK:   -2.07 KCAL/MOL
REMARK 927      BINDING AFFINITY PREDICTED BY RF-SCORE:    0.00 PKD
ROOT
HETATM    1  C   UNL     1     -11.762  11.965  70.231  1.00  0.00    -0.293 C  
HETATM    2  C   UNL     1     -12.482  10.670  70.657  1.00  0.00    -0.371 C  
HETATM    3  C   UNL     1     -11.453   9.356  70.789  1.00  0.00    -0.300 C  
HETATM    4  N   UNL     1     -13.511  10.374  69.619  1.00  0.00     0.070 NA 
HETATM    5  C   UNL     1     -13.257  11.050  71.950  1.00  0.00    -0.503 C  
HETATM    6  H2  UNL     1     -13.123  10.323  68.676  1.00  0.00     0.000 HD 
HETATM    7  N   UNL     1     -11.229   8.594  69.636  1.00  0.00    -0.445 N  
HETATM    8  H1  UNL     1     -13.987   9.517  69.901  1.00  0.00     0.000 HD 
HETATM    9  O   UNL     1     -10.881   9.093  71.846  1.00  0.00    -0.359 OA 
HETATM   10  H   UNL     1     -11.867   8.832  68.878  1.00  0.00     0.000 HD 
ENDROOT
BRANCH   7  11
HETATM   11  C   UNL     1     -10.221   7.457  69.243  1.00  0.00    -0.199 C  
BRANCH  11  12
HETATM   12  C   UNL     1     -10.016   6.099  70.064  1.00  0.00    -0.217 C  
BRANCH  12  13
HETATM   13  C   UNL     1      -9.609   4.747  69.303  1.00  0.00    -0.243 A  
HETATM   14  C   UNL     1      -9.033   3.603  69.822  1.00  0.00    -0.106 A  
HETATM   15  C   UNL     1     -10.262   4.562  65.450  1.00  0.00    -0.224 A  
HETATM   16  C   UNL     1      -9.469   3.446  65.197  1.00  0.00    -0.152 A  
HETATM   17  C   UNL     1      -8.872   2.766  66.258  1.00  0.00    -0.146 A  
HETATM   18  N   UNL     1      -8.689   2.735  68.785  1.00  0.00    -0.076 NA 
HETATM   19  C   UNL     1     -10.410   5.065  66.759  1.00  0.00    -0.290 A  
HETATM   20  C   UNL     1      -9.763   4.441  67.859  1.00  0.00    -0.186 A  
HETATM   21  C   UNL     1      -9.068   3.265  67.574  1.00  0.00    -0.173 A  
HETATM   22  H   UNL     1      -8.223   1.837  68.907  1.00  0.00     0.000 HD 
ENDBRANCH  12  13
ENDBRANCH  11  12
BRANCH  11  23
HETATM   23  C   UNL     1      -8.900   8.151  68.816  1.00  0.00    -0.138 C  
HETATM   24  N   UNL     1      -8.961   9.025  67.748  1.00  0.00    -0.128 N  
HETATM   25  H   UNL     1      -9.867   9.295  67.365  1.00  0.00     0.000 HD 
HETATM   26  O   UNL     1      -7.836   7.854  69.365  1.00  0.00    -0.109 OA 
BRANCH  24  27
HETATM   27  C   UNL     1      -7.749   9.558  67.170  1.00  0.00    -0.091 C  
BRANCH  27  28
HETATM   28  N   UNL     1      -6.893   8.460  66.799  1.00  0.00    -0.068 N  
HETATM   29  O   UNL     1      -8.430   7.438  65.408  1.00  0.00    -0.142 OA 
HETATM   30  C   UNL     1      -7.326   7.484  65.931  1.00  0.00    -0.074 C  
HETATM   31  H   UNL     1      -5.951   8.406  67.186  1.00  0.00     0.000 HD 
ENDBRANCH  27  28
BRANCH  27  32
HETATM   32  C   UNL     1      -7.875  10.673  66.110  1.00  0.00    -0.152 C  
BRANCH  32  33
HETATM   33  C   UNL     1      -9.120  11.176  65.399  1.00  0.00    -0.193 A  
HETATM   34  C   UNL     1     -11.053  12.069  64.518  1.00  0.00    -0.331 A  
HETATM   35  H   UNL     1     -10.874  11.020  62.688  1.00  0.00     0.000 HD 
HETATM   36  C   UNL     1     -12.229  12.824  64.380  1.00  0.00    -0.499 A  
HETATM   37  C   UNL     1      -9.349  10.690  64.114  1.00  0.00    -0.258 A  
HETATM   38  C   UNL     1     -12.629  13.598  65.462  1.00  0.00    -0.541 A  
HETATM   39  N   UNL     1     -10.492  11.224  63.611  1.00  0.00    -0.383 NA 
HETATM   40  C   UNL     1     -11.875  13.605  66.635  1.00  0.00    -0.447 A  
HETATM   41  C   UNL     1     -10.688  12.850  66.752  1.00  0.00    -0.276 A  
HETATM   42  C   UNL     1     -10.244  12.058  65.671  1.00  0.00    -0.284 A  
ENDBRANCH  32  33
ENDBRANCH  27  32
ENDBRANCH  24  27
ENDBRANCH  11  23
ENDBRANCH   7  11
TORSDOF 8
ENDMDL
MODEL      263
REMARK 921   NORMALIZED FREE ENERGY PREDICTED BY IDOCK:   -5.62 KCAL/MOL
REMARK 922        TOTAL FREE ENERGY PREDICTED BY IDOCK:  -10.39 KCAL/MOL
REMARK 923 INTER-LIGAND FREE ENERGY PREDICTED BY IDOCK:   -9.35 KCAL/MOL
REMARK 924 INTRA-LIGAND FREE ENERGY PREDICTED BY IDOCK:   -1.04 KCAL/MOL
REMARK 927      BINDING AFFINITY PREDICTED BY RF-SCORE:    0.00 PKD
ROOT
HETATM    1  C   UNL     1      -7.335  10.154  64.103  1.00  0.00    -0.108 C  
HETATM    2  C   UNL     1      -8.873  10.057  64.130  1.00  0.00    -0.221 C  
HETATM    3  C   UNL     1      -9.604  11.384  64.844  1.00  0.00    -0.215 C  
HETATM    4  N   UNL     1      -9.226   8.836  64.910  1.00  0.00    -0.415 NA 
HETATM    5  C   UNL     1      -9.283   9.774  62.658  1.00  0.00    -0.268 C  
HETATM    6  H2  UNL     1      -8.809   8.822  65.841  1.00  0.00     0.000 HD 
HETATM    7  N   UNL     1      -9.795  11.348  66.230  1.00  0.00    -0.212 N  
HETATM    8  H1  UNL     1     -10.245   8.772  64.927  1.00  0.00     0.000 HD 
HETATM    9  O   UNL     1      -9.925  12.371  64.184  1.00  0.00    -0.291 OA 
HETATM   10  H   UNL     1      -9.618  10.425  66.627  1.00  0.00     0.000 HD 
ENDROOT
BRANCH   7  11
HETATM   11  C   UNL     1     -10.218  12.401  67.314  1.00  0.00    -0.215 C  
BRANCH  11  12
HETATM   12  C   UNL     1      -9.229  13.461  67.988  1.00  0.00    -0.209 C  
BRANCH  12  13
HETATM   13  C   UNL     1      -9.712  14.968  68.247  1.00  0.00    -0.215 A  
HETATM   14  C   UNL     1     -10.998  15.475  68.256  1.00  0.00    -0.305 A  
HETATM   15  C   UNL     1      -6.962  17.668  68.925  1.00  0.00    -0.251 A  
HETATM   16  C   UNL     1      -7.770  18.785  68.730  1.00  0.00    -0.351 A  
HETATM   17  C   UNL     1      -9.137  18.621  68.507  1.00  0.00    -0.358 A  
HETATM   18  N   UNL     1     -10.957  16.866  68.350  1.00  0.00    -0.342 NA 
HETATM   19  C   UNL     1      -7.491  16.364  68.822  1.00  0.00    -0.207 A  
HETATM   20  C   UNL     1      -8.865  16.153  68.529  1.00  0.00    -0.200 A  
HETATM   21  C   UNL     1      -9.657  17.300  68.449  1.00  0.00    -0.285 A  
HETATM   22  H   UNL     1     -11.775  17.474  68.345  1.00  0.00     0.000 HD 
ENDBRANCH  12  13
ENDBRANCH  11  12
BRANCH  11  23
HETATM   23  C   UNL     1     -11.148  11.667  68.317  1.00  0.00    -0.234 C  
HETATM   24  N   UNL     1     -10.622  11.350  69.554  1.00  0.00    -0.445 N  
HETATM   25  H   UNL     1      -9.710  11.717  69.825  1.00  0.00     0.000 HD 
HETATM   26  O   UNL     1     -12.280  11.314  67.973  1.00  0.00    -0.621 OA 
BRANCH  24  27
HETATM   27  C   UNL     1     -11.355  10.502  70.465  1.00  0.00    -0.314 C  
BRANCH  27  28
HETATM   28  N   UNL     1     -12.600  11.147  70.795  1.00  0.00    -0.357 N  
HETATM   29  O   UNL     1     -13.121   9.746  72.557  1.00  0.00    -0.322 OA 
HETATM   30  C   UNL     1     -13.380  10.697  71.836  1.00  0.00    -0.349 C  
HETATM   31  H   UNL     1     -12.909  11.950  70.248  1.00  0.00     0.000 HD 
ENDBRANCH  27  28
BRANCH  27  32
HETATM   32  C   UNL     1     -11.469   8.999  70.132  1.00  0.00    -0.078 C  
BRANCH  32  33
HETATM   33  C   UNL     1     -10.629   7.842  70.646  1.00  0.00    -0.222 A  
HETATM   34  C   UNL     1      -9.446   6.134  71.644  1.00  0.00    -0.148 A  
HETATM   35  H   UNL     1      -8.514   5.534  69.841  1.00  0.00     0.000 HD 
HETATM   36  C   UNL     1      -8.949   5.246  72.611  1.00  0.00    -0.135 A  
HETATM   37  C   UNL     1      -9.848   7.169  69.710  1.00  0.00    -0.173 A  
HETATM   38  C   UNL     1      -9.365   5.426  73.925  1.00  0.00    -0.133 A  
HETATM   39  N   UNL     1      -9.157   6.168  70.314  1.00  0.00    -0.152 NA 
HETATM   40  C   UNL     1     -10.241   6.462  74.247  1.00  0.00    -0.362 A  
HETATM   41  C   UNL     1     -10.741   7.338  73.259  1.00  0.00    -0.428 A  
HETATM   42  C   UNL     1     -10.349   7.182  71.911  1.00  0.00    -0.212 A  
ENDBRANCH  32  33
ENDBRANCH  27  32
ENDBRANCH  24  27
ENDBRANCH  11  23
ENDBRANCH   7  11
TORSDOF 8
ENDMDL
MODEL      264
REMARK 921   NORMALIZED FREE ENERGY PREDICTED BY IDOCK:   -5.61 KCAL/MOL
REMARK 922        TOTAL FREE ENERGY PREDICTED BY IDOCK:  -10.38 KCAL/MOL
REMARK 923 INTER-LIGAND FREE ENERGY PREDICTED BY IDOCK:   -8.58 KCAL/MOL
REMARK 924 INTRA-LIGAND FREE ENERGY PREDICTED BY IDOCK:   -1.80 KCAL/MOL
REMARK 927      BINDING AFFINITY PREDICTED BY RF-SCORE:    0.00 PKD
ROOT
HETATM    1  C   UNL     1     -12.921   7.589  71.332  1.00  0.00    -0.379 C  
HETATM    2  C   UNL     1     -11.539   7.316  70.707  1.00  0.00    -0.302 C  
HETATM    3  C   UNL     1     -10.792   8.698  70.129  1.00  0.00    -0.233 C  
HETATM    4  N   UNL     1     -11.746   6.370  69.572  1.00  0.00    -0.588 NA 
HETATM    5  C   UNL     1     -10.756   6.532  71.796  1.00  0.00    -0.262 C  
HETATM    6  H2  UNL     1     -12.432   6.705  68.894  1.00  0.00     0.000 HD 
HETATM    7  N   UNL     1     -11.071   9.080  68.811  1.00  0.00    -0.442 N  
HETATM    8  H1  UNL     1     -10.831   6.190  69.158  1.00  0.00     0.000 HD 
HETATM    9  O   UNL     1     -10.059   9.378  70.845  1.00  0.00    -0.277 OA 
HETATM   10  H   UNL     1     -11.572   8.360  68.292  1.00  0.00     0.000 HD 
ENDROOT
BRANCH   7  11
HETATM   11  C   UNL     1     -10.788  10.360  67.949  1.00  0.00    -0.279 C  
BRANCH  11  12
HETATM   12  C   UNL     1     -11.769  11.619  67.840  1.00  0.00    -0.329 C  
BRANCH  12  13
HETATM   13  C   UNL     1     -11.523  12.918  68.748  1.00  0.00    -0.345 A  
HETATM   14  C   UNL     1     -11.688  13.063  70.113  1.00  0.00    -0.170 A  
HETATM   15  C   UNL     1     -10.327  16.186  66.961  1.00  0.00    -0.290 A  
HETATM   16  C   UNL     1     -10.595  17.061  68.010  1.00  0.00    -0.373 A  
HETATM   17  C   UNL     1     -11.028  16.559  69.237  1.00  0.00    -0.302 A  
HETATM   18  N   UNL     1     -11.531  14.403  70.468  1.00  0.00    -0.479 NA 
HETATM   19  C   UNL     1     -10.562  14.802  67.093  1.00  0.00    -0.285 A  
HETATM   20  C   UNL     1     -11.068  14.258  68.304  1.00  0.00    -0.276 A  
HETATM   21  C   UNL     1     -11.219  15.156  69.362  1.00  0.00    -0.283 A  
HETATM   22  H   UNL     1     -11.634  14.770  71.413  1.00  0.00     0.000 HD 
ENDBRANCH  12  13
ENDBRANCH  11  12
BRANCH  11  23
HETATM   23  C   UNL     1     -10.220   9.874  66.589  1.00  0.00    -0.226 C  
HETATM   24  N   UNL     1      -9.411   8.754  66.605  1.00  0.00    -0.185 N  
HETATM   25  H   UNL     1      -9.322   8.205  67.460  1.00  0.00     0.000 HD 
HETATM   26  O   UNL     1     -10.423  10.526  65.561  1.00  0.00    -0.237 OA 
BRANCH  24  27
HETATM   27  C   UNL     1      -8.692   8.355  65.417  1.00  0.00    -0.141 C  
BRANCH  27  28
HETATM   28  N   UNL     1      -7.837   9.441  65.009  1.00  0.00    -0.111 N  
HETATM   29  O   UNL     1      -8.202   9.176  62.743  1.00  0.00    -0.153 OA 
HETATM   30  C   UNL     1      -7.673   9.755  63.680  1.00  0.00    -0.137 C  
HETATM   31  H   UNL     1      -7.346   9.985  65.718  1.00  0.00     0.000 HD 
ENDBRANCH  27  28
BRANCH  27  32
HETATM   32  C   UNL     1      -8.027   6.962  65.400  1.00  0.00    -0.125 C  
BRANCH  32  33
HETATM   33  C   UNL     1      -8.504   5.670  66.043  1.00  0.00    -0.132 A  
HETATM   34  C   UNL     1      -9.177   3.813  67.229  1.00  0.00    -0.183 A  
HETATM   35  H   UNL     1      -9.692   2.714  65.495  1.00  0.00     0.000 HD 
HETATM   36  C   UNL     1      -9.473   2.949  68.296  1.00  0.00    -0.217 A  
HETATM   37  C   UNL     1      -8.943   4.667  65.183  1.00  0.00    -0.150 A  
HETATM   38  C   UNL     1      -9.196   3.396  69.582  1.00  0.00    -0.225 A  
HETATM   39  N   UNL     1      -9.334   3.580  65.897  1.00  0.00    -0.163 NA 
HETATM   40  C   UNL     1      -8.638   4.658  69.781  1.00  0.00    -0.096 A  
HETATM   41  C   UNL     1      -8.359   5.518  68.697  1.00  0.00    -0.101 A  
HETATM   42  C   UNL     1      -8.635   5.105  67.376  1.00  0.00    -0.104 A  
ENDBRANCH  32  33
ENDBRANCH  27  32
ENDBRANCH  24  27
ENDBRANCH  11  23
ENDBRANCH   7  11
TORSDOF 8
ENDMDL
MODEL      265
REMARK 921   NORMALIZED FREE ENERGY PREDICTED BY IDOCK:   -5.60 KCAL/MOL
REMARK 922        TOTAL FREE ENERGY PREDICTED BY IDOCK:  -10.37 KCAL/MOL
REMARK 923 INTER-LIGAND FREE ENERGY PREDICTED BY IDOCK:   -8.31 KCAL/MOL
REMARK 924 INTRA-LIGAND FREE ENERGY PREDICTED BY IDOCK:   -2.06 KCAL/MOL
REMARK 927      BINDING AFFINITY PREDICTED BY RF-SCORE:    0.00 PKD
ROOT
HETATM    1  C   UNL     1     -10.659   7.673  70.340  1.00  0.00    -0.233 C  
HETATM    2  C   UNL     1     -10.599   9.149  70.780  1.00  0.00    -0.260 C  
HETATM    3  C   UNL     1     -10.367  10.208  69.504  1.00  0.00    -0.240 C  
HETATM    4  N   UNL     1      -9.455   9.282  71.729  1.00  0.00    -0.251 NA 
HETATM    5  C   UNL     1     -11.891   9.372  71.614  1.00  0.00    -0.464 C  
HETATM    6  H2  UNL     1      -8.574   8.945  71.341  1.00  0.00     0.000 HD 
HETATM    7  N   UNL     1      -9.048  10.492  69.131  1.00  0.00    -0.241 N  
HETATM    8  H1  UNL     1      -9.416  10.259  72.019  1.00  0.00     0.000 HD 
HETATM    9  O   UNL     1     -11.318  10.688  68.888  1.00  0.00    -0.249 OA 
HETATM   10  H   UNL     1      -8.367  10.146  69.806  1.00  0.00     0.000 HD 
ENDROOT
BRANCH   7  11
HETATM   11  C   UNL     1      -8.377  11.219  67.913  1.00  0.00    -0.131 C  
BRANCH  11  12
HETATM   12  C   UNL     1      -7.444  10.505  66.828  1.00  0.00    -0.115 C  
BRANCH  12  13
HETATM   13  C   UNL     1      -7.926   9.155  66.108  1.00  0.00    -0.103 A  
HETATM   14  C   UNL     1      -8.253   8.952  64.781  1.00  0.00    -0.163 A  
HETATM   15  C   UNL     1      -8.291   5.947  68.317  1.00  0.00    -0.112 A  
HETATM   16  C   UNL     1      -9.031   5.198  67.407  1.00  0.00    -0.109 A  
HETATM   17  C   UNL     1      -9.273   5.702  66.130  1.00  0.00    -0.169 A  
HETATM   18  N   UNL     1      -8.786   7.674  64.615  1.00  0.00    -0.351 NA 
HETATM   19  C   UNL     1      -7.847   7.247  67.995  1.00  0.00    -0.118 A  
HETATM   20  C   UNL     1      -8.131   7.824  66.729  1.00  0.00    -0.115 A  
HETATM   21  C   UNL     1      -8.781   6.997  65.811  1.00  0.00    -0.100 A  
HETATM   22  H   UNL     1      -9.130   7.297  63.733  1.00  0.00     0.000 HD 
ENDBRANCH  12  13
ENDBRANCH  11  12
BRANCH  11  23
HETATM   23  C   UNL     1      -7.824  12.569  68.442  1.00  0.00    -0.141 C  
HETATM   24  N   UNL     1      -8.735  13.583  68.668  1.00  0.00    -0.353 N  
HETATM   25  H   UNL     1      -9.734  13.385  68.619  1.00  0.00     0.000 HD 
HETATM   26  O   UNL     1      -6.607  12.737  68.566  1.00  0.00    -0.073 OA 
BRANCH  24  27
HETATM   27  C   UNL     1      -8.280  14.920  68.973  1.00  0.00    -0.168 C  
BRANCH  27  28
HETATM   28  N   UNL     1      -7.605  15.452  67.817  1.00  0.00    -0.137 N  
HETATM   29  O   UNL     1      -9.384  15.175  66.369  1.00  0.00    -0.261 OA 
HETATM   30  C   UNL     1      -8.238  15.532  66.598  1.00  0.00    -0.209 C  
HETATM   31  H   UNL     1      -6.641  15.774  67.904  1.00  0.00     0.000 HD 
ENDBRANCH  27  28
BRANCH  27  32
HETATM   32  C   UNL     1      -9.271  15.890  69.652  1.00  0.00    -0.078 C  
BRANCH  32  33
HETATM   33  C   UNL     1     -10.746  15.688  69.956  1.00  0.00    -0.345 A  
HETATM   34  C   UNL     1     -12.922  15.381  70.650  1.00  0.00    -0.398 A  
HETATM   35  H   UNL     1     -13.697  15.354  68.680  1.00  0.00     0.000 HD 
HETATM   36  C   UNL     1     -14.046  15.213  71.475  1.00  0.00    -0.636 A  
HETATM   37  C   UNL     1     -11.608  15.621  68.865  1.00  0.00    -0.383 A  
HETATM   38  C   UNL     1     -13.834  15.152  72.847  1.00  0.00    -0.405 A  
HETATM   39  N   UNL     1     -12.884  15.438  69.291  1.00  0.00     0.339 NA 
HETATM   40  C   UNL     1     -12.542  15.250  73.362  1.00  0.00    -0.648 A  
HETATM   41  C   UNL     1     -11.425  15.432  72.518  1.00  0.00    -0.441 A  
HETATM   42  C   UNL     1     -11.600  15.509  71.119  1.00  0.00    -0.446 A  
ENDBRANCH  32  33
ENDBRANCH  27  32
ENDBRANCH  24  27
ENDBRANCH  11  23
ENDBRANCH   7  11
TORSDOF 8
ENDMDL
MODEL      266
REMARK 921   NORMALIZED FREE ENERGY PREDICTED BY IDOCK:   -5.60 KCAL/MOL
REMARK 922        TOTAL FREE ENERGY PREDICTED BY IDOCK:  -10.37 KCAL/MOL
REMARK 923 INTER-LIGAND FREE ENERGY PREDICTED BY IDOCK:   -8.82 KCAL/MOL
REMARK 924 INTRA-LIGAND FREE ENERGY PREDICTED BY IDOCK:   -1.55 KCAL/MOL
REMARK 927      BINDING AFFINITY PREDICTED BY RF-SCORE:    0.00 PKD
ROOT
HETATM    1  C   UNL     1      -9.653   3.937  67.057  1.00  0.00    -0.227 C  
HETATM    2  C   UNL     1      -9.745   5.108  66.059  1.00  0.00    -0.165 C  
HETATM    3  C   UNL     1      -9.217   6.562  66.698  1.00  0.00    -0.153 C  
HETATM    4  N   UNL     1     -11.179   5.246  65.669  1.00  0.00    -0.691 NA 
HETATM    5  C   UNL     1      -8.990   4.615  64.793  1.00  0.00    -0.153 C  
HETATM    6  H2  UNL     1     -11.801   5.355  66.471  1.00  0.00     0.000 HD 
HETATM    7  N   UNL     1     -10.156   7.350  67.373  1.00  0.00    -0.189 N  
HETATM    8  H1  UNL     1     -11.239   6.021  65.009  1.00  0.00     0.000 HD 
HETATM    9  O   UNL     1      -8.039   6.909  66.615  1.00  0.00    -0.106 OA 
HETATM   10  H   UNL     1     -11.112   7.018  67.245  1.00  0.00     0.000 HD 
ENDROOT
BRANCH   7  11
HETATM   11  C   UNL     1     -10.077   8.626  68.283  1.00  0.00    -0.192 C  
BRANCH  11  12
HETATM   12  C   UNL     1     -11.145   9.009  69.410  1.00  0.00    -0.000 C  
BRANCH  12  13
HETATM   13  C   UNL     1     -11.220   8.168  70.774  1.00  0.00    -0.275 A  
HETATM   14  C   UNL     1     -11.573   8.600  72.038  1.00  0.00    -0.370 A  
HETATM   15  C   UNL     1     -10.262   4.377  70.628  1.00  0.00    -0.097 A  
HETATM   16  C   UNL     1     -10.126   4.184  71.999  1.00  0.00    -0.234 A  
HETATM   17  C   UNL     1     -10.445   5.218  72.879  1.00  0.00    -0.253 A  
HETATM   18  N   UNL     1     -11.337   7.587  72.967  1.00  0.00    -0.578 NA 
HETATM   19  C   UNL     1     -10.645   5.631  70.106  1.00  0.00    -0.380 A  
HETATM   20  C   UNL     1     -10.913   6.729  70.966  1.00  0.00    -0.297 A  
HETATM   21  C   UNL     1     -10.869   6.460  72.335  1.00  0.00    -0.236 A  
HETATM   22  H   UNL     1     -11.489   7.671  73.972  1.00  0.00     0.000 HD 
ENDBRANCH  12  13
ENDBRANCH  11  12
BRANCH  11  23
HETATM   23  C   UNL     1      -9.664   9.809  67.366  1.00  0.00    -0.163 C  
HETATM   24  N   UNL     1     -10.544  10.173  66.366  1.00  0.00    -0.136 N  
HETATM   25  H   UNL     1     -11.478   9.764  66.340  1.00  0.00     0.000 HD 
HETATM   26  O   UNL     1      -8.552  10.332  67.489  1.00  0.00    -0.119 OA 
BRANCH  24  27
HETATM   27  C   UNL     1     -10.149  11.129  65.357  1.00  0.00    -0.264 C  
BRANCH  27  28
HETATM   28  N   UNL     1     -10.023  10.443  64.097  1.00  0.00    -0.334 N  
HETATM   29  O   UNL     1      -7.885   9.654  64.483  1.00  0.00    -0.122 OA 
HETATM   30  C   UNL     1      -8.876   9.754  63.775  1.00  0.00    -0.235 C  
HETATM   31  H   UNL     1     -10.796  10.470  63.432  1.00  0.00     0.000 HD 
ENDBRANCH  27  28
BRANCH  27  32
HETATM   32  C   UNL     1     -10.902  12.475  65.293  1.00  0.00    -0.321 C  
BRANCH  32  33
HETATM   33  C   UNL     1     -10.434  13.852  65.735  1.00  0.00    -0.313 A  
HETATM   34  C   UNL     1      -9.627  15.831  66.596  1.00  0.00    -0.247 A  
HETATM   35  H   UNL     1     -10.382  16.999  65.000  1.00  0.00     0.000 HD 
HETATM   36  C   UNL     1      -8.986  16.754  67.438  1.00  0.00    -0.211 A  
HETATM   37  C   UNL     1     -10.753  14.920  64.901  1.00  0.00    -0.405 A  
HETATM   38  C   UNL     1      -8.418  16.270  68.610  1.00  0.00    -0.221 A  
HETATM   39  N   UNL     1     -10.273  16.078  65.424  1.00  0.00    -0.507 NA 
HETATM   40  C   UNL     1      -8.501  14.914  68.921  1.00  0.00    -0.174 A  
HETATM   41  C   UNL     1      -9.139  13.998  68.057  1.00  0.00    -0.190 A  
HETATM   42  C   UNL     1      -9.720  14.448  66.852  1.00  0.00    -0.266 A  
ENDBRANCH  32  33
ENDBRANCH  27  32
ENDBRANCH  24  27
ENDBRANCH  11  23
ENDBRANCH   7  11
TORSDOF 8
ENDMDL
MODEL      267
REMARK 921   NORMALIZED FREE ENERGY PREDICTED BY IDOCK:   -5.60 KCAL/MOL
REMARK 922        TOTAL FREE ENERGY PREDICTED BY IDOCK:  -10.37 KCAL/MOL
REMARK 923 INTER-LIGAND FREE ENERGY PREDICTED BY IDOCK:   -8.55 KCAL/MOL
REMARK 924 INTRA-LIGAND FREE ENERGY PREDICTED BY IDOCK:   -1.81 KCAL/MOL
REMARK 927      BINDING AFFINITY PREDICTED BY RF-SCORE:    0.00 PKD
ROOT
HETATM    1  C   UNL     1     -11.089   7.970  69.884  1.00  0.00    -0.108 C  
HETATM    2  C   UNL     1     -10.712   9.268  70.625  1.00  0.00    -0.269 C  
HETATM    3  C   UNL     1     -10.120  10.459  69.609  1.00  0.00    -0.190 C  
HETATM    4  N   UNL     1      -9.659   8.918  71.621  1.00  0.00    -0.295 NA 
HETATM    5  C   UNL     1     -11.980   9.647  71.439  1.00  0.00    -0.480 C  
HETATM    6  H2  UNL     1      -8.854   8.449  71.204  1.00  0.00     0.000 HD 
HETATM    7  N   UNL     1      -8.744  10.463  69.352  1.00  0.00    -0.284 N  
HETATM    8  H1  UNL     1      -9.409   9.777  72.112  1.00  0.00     0.000 HD 
HETATM    9  O   UNL     1     -10.868  11.275  69.073  1.00  0.00    -0.202 OA 
HETATM   10  H   UNL     1      -8.228   9.831  69.964  1.00  0.00     0.000 HD 
ENDROOT
BRANCH   7  11
HETATM   11  C   UNL     1      -7.812  11.217  68.339  1.00  0.00    -0.136 C  
BRANCH  11  12
HETATM   12  C   UNL     1      -6.608  10.540  67.533  1.00  0.00    -0.066 C  
BRANCH  12  13
HETATM   13  C   UNL     1      -6.729  10.293  65.953  1.00  0.00    -0.117 A  
HETATM   14  C   UNL     1      -5.736   9.961  65.050  1.00  0.00    -0.091 A  
HETATM   15  C   UNL     1     -10.261  10.688  64.316  1.00  0.00    -0.391 A  
HETATM   16  C   UNL     1      -9.829  10.744  62.994  1.00  0.00    -0.344 A  
HETATM   17  C   UNL     1      -8.482  10.548  62.697  1.00  0.00    -0.216 A  
HETATM   18  N   UNL     1      -6.242  10.012  63.752  1.00  0.00    -0.126 NA 
HETATM   19  C   UNL     1      -9.342  10.514  65.372  1.00  0.00    -0.255 A  
HETATM   20  C   UNL     1      -7.951  10.378  65.116  1.00  0.00    -0.134 A  
HETATM   21  C   UNL     1      -7.578  10.332  63.772  1.00  0.00    -0.092 A  
HETATM   22  H   UNL     1      -5.697   9.836  62.908  1.00  0.00     0.000 HD 
ENDBRANCH  12  13
ENDBRANCH  11  12
BRANCH  11  23
HETATM   23  C   UNL     1      -7.461  12.586  68.981  1.00  0.00     0.088 C  
HETATM   24  N   UNL     1      -8.432  13.568  68.951  1.00  0.00    -0.360 N  
HETATM   25  H   UNL     1      -9.377  13.336  68.646  1.00  0.00     0.000 HD 
HETATM   26  O   UNL     1      -6.325  12.796  69.416  1.00  0.00    -0.104 OA 
BRANCH  24  27
HETATM   27  C   UNL     1      -8.118  14.920  69.351  1.00  0.00    -0.103 C  
BRANCH  27  28
HETATM   28  N   UNL     1      -7.117  15.444  68.457  1.00  0.00    -0.111 N  
HETATM   29  O   UNL     1      -8.502  15.561  66.611  1.00  0.00    -0.254 OA 
HETATM   30  C   UNL     1      -7.413  15.723  67.143  1.00  0.00    -0.224 C  
HETATM   31  H   UNL     1      -6.173  15.610  68.805  1.00  0.00     0.000 HD 
ENDBRANCH  27  28
BRANCH  27  32
HETATM   32  C   UNL     1      -9.287  15.882  69.654  1.00  0.00    -0.114 C  
BRANCH  32  33
HETATM   33  C   UNL     1     -10.739  15.551  69.958  1.00  0.00    -0.331 A  
HETATM   34  C   UNL     1     -12.903  15.145  70.637  1.00  0.00    -0.388 A  
HETATM   35  H   UNL     1     -13.468  14.269  68.795  1.00  0.00     0.000 HD 
HETATM   36  C   UNL     1     -14.065  15.096  71.424  1.00  0.00    -0.598 A  
HETATM   37  C   UNL     1     -11.470  14.943  68.941  1.00  0.00    -0.299 A  
HETATM   38  C   UNL     1     -13.983  15.577  72.726  1.00  0.00    -0.545 A  
HETATM   39  N   UNL     1     -12.741  14.709  69.359  1.00  0.00     0.070 NA 
HETATM   40  C   UNL     1     -12.776  16.079  73.212  1.00  0.00    -0.644 A  
HETATM   41  C   UNL     1     -11.621  16.132  72.403  1.00  0.00    -0.400 A  
HETATM   42  C   UNL     1     -11.666  15.663  71.072  1.00  0.00    -0.444 A  
ENDBRANCH  32  33
ENDBRANCH  27  32
ENDBRANCH  24  27
ENDBRANCH  11  23
ENDBRANCH   7  11
TORSDOF 8
ENDMDL
MODEL      268
REMARK 921   NORMALIZED FREE ENERGY PREDICTED BY IDOCK:   -5.60 KCAL/MOL
REMARK 922        TOTAL FREE ENERGY PREDICTED BY IDOCK:  -10.36 KCAL/MOL
REMARK 923 INTER-LIGAND FREE ENERGY PREDICTED BY IDOCK:   -8.71 KCAL/MOL
REMARK 924 INTRA-LIGAND FREE ENERGY PREDICTED BY IDOCK:   -1.66 KCAL/MOL
REMARK 927      BINDING AFFINITY PREDICTED BY RF-SCORE:    0.00 PKD
ROOT
HETATM    1  C   UNL     1     -10.360   5.533  69.094  1.00  0.00    -0.318 C  
HETATM    2  C   UNL     1      -9.790   6.664  69.972  1.00  0.00    -0.165 C  
HETATM    3  C   UNL     1     -10.146   8.193  69.391  1.00  0.00    -0.194 C  
HETATM    4  N   UNL     1      -8.308   6.495  70.005  1.00  0.00    -0.132 NA 
HETATM    5  C   UNL     1     -10.301   6.353  71.406  1.00  0.00    -0.240 C  
HETATM    6  H2  UNL     1      -7.890   6.462  69.075  1.00  0.00     0.000 HD 
HETATM    7  N   UNL     1      -9.256   8.757  68.469  1.00  0.00    -0.141 N  
HETATM    8  H1  UNL     1      -7.931   7.243  70.586  1.00  0.00     0.000 HD 
HETATM    9  O   UNL     1     -11.171   8.785  69.728  1.00  0.00    -0.144 OA 
HETATM   10  H   UNL     1      -8.387   8.229  68.388  1.00  0.00     0.000 HD 
ENDROOT
BRANCH   7  11
HETATM   11  C   UNL     1      -9.288  10.014  67.530  1.00  0.00    -0.144 C  
BRANCH  11  12
HETATM   12  C   UNL     1      -8.930   9.996  65.972  1.00  0.00    -0.174 C  
BRANCH  12  13
HETATM   13  C   UNL     1      -9.894  10.716  64.911  1.00  0.00    -0.363 A  
HETATM   14  C   UNL     1      -9.988  10.507  63.548  1.00  0.00    -0.214 A  
HETATM   15  C   UNL     1     -12.330  13.472  66.244  1.00  0.00    -0.440 A  
HETATM   16  C   UNL     1     -12.659  14.019  65.007  1.00  0.00    -0.416 A  
HETATM   17  C   UNL     1     -12.184  13.426  63.839  1.00  0.00    -0.478 A  
HETATM   18  N   UNL     1     -10.829  11.464  62.980  1.00  0.00    -0.805 NA 
HETATM   19  C   UNL     1     -11.457  12.368  66.339  1.00  0.00    -0.427 A  
HETATM   20  C   UNL     1     -10.897  11.776  65.175  1.00  0.00    -0.351 A  
HETATM   21  C   UNL     1     -11.339  12.289  63.954  1.00  0.00    -0.429 A  
HETATM   22  H   UNL     1     -11.036  11.541  61.985  1.00  0.00     0.000 HD 
ENDBRANCH  12  13
ENDBRANCH  11  12
BRANCH  11  23
HETATM   23  C   UNL     1      -8.643  11.184  68.320  1.00  0.00    -0.146 C  
HETATM   24  N   UNL     1      -8.036  12.185  67.587  1.00  0.00    -0.146 N  
HETATM   25  H   UNL     1      -8.143  12.206  66.574  1.00  0.00     0.000 HD 
HETATM   26  O   UNL     1      -8.610  11.158  69.554  1.00  0.00     0.170 OA 
BRANCH  24  27
HETATM   27  C   UNL     1      -7.250  13.201  68.248  1.00  0.00    -0.107 C  
BRANCH  27  28
HETATM   28  N   UNL     1      -6.179  12.560  68.969  1.00  0.00    -0.080 N  
HETATM   29  O   UNL     1      -6.152  14.068  70.720  1.00  0.00    -0.190 OA 
HETATM   30  C   UNL     1      -5.725  13.066  70.165  1.00  0.00    -0.145 C  
HETATM   31  H   UNL     1      -5.752  11.717  68.586  1.00  0.00     0.000 HD 
ENDBRANCH  27  28
BRANCH  27  32
HETATM   32  C   UNL     1      -6.833  14.445  67.435  1.00  0.00    -0.052 C  
BRANCH  32  33
HETATM   33  C   UNL     1      -7.062  15.914  67.755  1.00  0.00    -0.168 A  
HETATM   34  C   UNL     1      -7.643  18.088  68.250  1.00  0.00    -0.275 A  
HETATM   35  H   UNL     1      -5.644  18.784  68.202  1.00  0.00     0.000 HD 
HETATM   36  C   UNL     1      -8.406  19.224  68.561  1.00  0.00    -0.401 A  
HETATM   37  C   UNL     1      -5.932  16.725  67.816  1.00  0.00    -0.136 A  
HETATM   38  C   UNL     1      -9.786  19.076  68.623  1.00  0.00    -0.474 A  
HETATM   39  N   UNL     1      -6.292  18.002  68.106  1.00  0.00    -0.183 NA 
HETATM   40  C   UNL     1     -10.369  17.834  68.376  1.00  0.00    -0.378 A  
HETATM   41  C   UNL     1      -9.585  16.699  68.078  1.00  0.00    -0.225 A  
HETATM   42  C   UNL     1      -8.179  16.806  68.015  1.00  0.00    -0.192 A  
ENDBRANCH  32  33
ENDBRANCH  27  32
ENDBRANCH  24  27
ENDBRANCH  11  23
ENDBRANCH   7  11
TORSDOF 8
ENDMDL
MODEL      269
REMARK 921   NORMALIZED FREE ENERGY PREDICTED BY IDOCK:   -5.59 KCAL/MOL
REMARK 922        TOTAL FREE ENERGY PREDICTED BY IDOCK:  -10.35 KCAL/MOL
REMARK 923 INTER-LIGAND FREE ENERGY PREDICTED BY IDOCK:   -9.09 KCAL/MOL
REMARK 924 INTRA-LIGAND FREE ENERGY PREDICTED BY IDOCK:   -1.26 KCAL/MOL
REMARK 927      BINDING AFFINITY PREDICTED BY RF-SCORE:    0.00 PKD
ROOT
HETATM    1  C   UNL     1      -9.850   4.148  71.342  1.00  0.00    -0.254 C  
HETATM    2  C   UNL     1     -10.364   5.518  71.825  1.00  0.00    -0.216 C  
HETATM    3  C   UNL     1     -10.803   6.537  70.571  1.00  0.00    -0.271 C  
HETATM    4  N   UNL     1      -9.261   6.157  72.599  1.00  0.00    -0.140 NA 
HETATM    5  C   UNL     1     -11.486   5.187  72.848  1.00  0.00    -0.329 C  
HETATM    6  H2  UNL     1      -8.389   6.220  72.073  1.00  0.00     0.000 HD 
HETATM    7  N   UNL     1      -9.806   7.349  70.020  1.00  0.00    -0.179 N  
HETATM    8  H1  UNL     1      -9.601   7.064  72.919  1.00  0.00     0.000 HD 
HETATM    9  O   UNL     1     -11.948   6.543  70.121  1.00  0.00    -0.383 OA 
HETATM   10  H   UNL     1      -8.949   7.350  70.573  1.00  0.00     0.000 HD 
ENDROOT
BRANCH   7  11
HETATM   11  C   UNL     1      -9.702   8.260  68.745  1.00  0.00    -0.157 C  
BRANCH  11  12
HETATM   12  C   UNL     1      -8.437   8.318  67.768  1.00  0.00    -0.131 C  
BRANCH  12  13
HETATM   13  C   UNL     1      -8.369   7.372  66.475  1.00  0.00    -0.124 A  
HETATM   14  C   UNL     1      -8.008   7.701  65.181  1.00  0.00    -0.130 A  
HETATM   15  C   UNL     1      -9.370   3.615  66.913  1.00  0.00    -0.217 A  
HETATM   16  C   UNL     1      -9.505   3.317  65.560  1.00  0.00    -0.107 A  
HETATM   17  C   UNL     1      -9.172   4.275  64.603  1.00  0.00    -0.156 A  
HETATM   18  N   UNL     1      -8.254   6.621  64.334  1.00  0.00    -0.299 NA 
HETATM   19  C   UNL     1      -8.974   4.902  67.336  1.00  0.00    -0.111 A  
HETATM   20  C   UNL     1      -8.692   5.926  66.394  1.00  0.00    -0.131 A  
HETATM   21  C   UNL     1      -8.736   5.552  65.050  1.00  0.00    -0.094 A  
HETATM   22  H   UNL     1      -8.099   6.624  63.326  1.00  0.00     0.000 HD 
ENDBRANCH  12  13
ENDBRANCH  11  12
BRANCH  11  23
HETATM   23  C   UNL     1     -10.272   9.650  69.136  1.00  0.00    -0.202 C  
HETATM   24  N   UNL     1     -11.587   9.911  68.805  1.00  0.00    -0.487 N  
HETATM   25  H   UNL     1     -12.179   9.160  68.450  1.00  0.00     0.000 HD 
HETATM   26  O   UNL     1      -9.538  10.503  69.642  1.00  0.00    -0.160 OA 
BRANCH  24  27
HETATM   27  C   UNL     1     -12.129  11.241  68.959  1.00  0.00    -0.257 C  
BRANCH  27  28
HETATM   28  N   UNL     1     -11.969  11.649  70.331  1.00  0.00    -0.420 N  
HETATM   29  O   UNL     1     -13.478  10.126  71.195  1.00  0.00    -0.342 OA 
HETATM   30  C   UNL     1     -12.674  11.035  71.342  1.00  0.00    -0.429 C  
HETATM   31  H   UNL     1     -11.323  12.404  70.558  1.00  0.00     0.000 HD 
ENDBRANCH  27  28
BRANCH  27  32
HETATM   32  C   UNL     1     -11.746  12.311  67.914  1.00  0.00    -0.410 C  
BRANCH  32  33
HETATM   33  C   UNL     1     -11.518  13.800  68.113  1.00  0.00    -0.348 A  
HETATM   34  C   UNL     1     -11.036  16.051  68.217  1.00  0.00    -0.335 A  
HETATM   35  H   UNL     1     -12.176  16.360  69.974  1.00  0.00     0.000 HD 
HETATM   36  C   UNL     1     -10.517  17.318  67.905  1.00  0.00    -0.382 A  
HETATM   37  C   UNL     1     -12.138  14.388  69.212  1.00  0.00    -0.299 A  
HETATM   38  C   UNL     1      -9.681  17.417  66.799  1.00  0.00    -0.293 A  
HETATM   39  N   UNL     1     -11.842  15.713  69.260  1.00  0.00    -0.371 NA 
HETATM   40  C   UNL     1      -9.378  16.284  66.046  1.00  0.00    -0.361 A  
HETATM   41  C   UNL     1      -9.919  15.020  66.368  1.00  0.00    -0.295 A  
HETATM   42  C   UNL     1     -10.780  14.880  67.478  1.00  0.00    -0.276 A  
ENDBRANCH  32  33
ENDBRANCH  27  32
ENDBRANCH  24  27
ENDBRANCH  11  23
ENDBRANCH   7  11
TORSDOF 8
ENDMDL
MODEL      270
REMARK 921   NORMALIZED FREE ENERGY PREDICTED BY IDOCK:   -5.58 KCAL/MOL
REMARK 922        TOTAL FREE ENERGY PREDICTED BY IDOCK:  -10.34 KCAL/MOL
REMARK 923 INTER-LIGAND FREE ENERGY PREDICTED BY IDOCK:   -8.90 KCAL/MOL
REMARK 924 INTRA-LIGAND FREE ENERGY PREDICTED BY IDOCK:   -1.45 KCAL/MOL
REMARK 927      BINDING AFFINITY PREDICTED BY RF-SCORE:    0.00 PKD
ROOT
HETATM    1  C   UNL     1      -9.744  10.610  63.400  1.00  0.00    -0.387 C  
HETATM    2  C   UNL     1      -8.615   9.948  64.214  1.00  0.00    -0.188 C  
HETATM    3  C   UNL     1      -9.106   9.444  65.733  1.00  0.00    -0.200 C  
HETATM    4  N   UNL     1      -7.530  10.959  64.370  1.00  0.00    -0.216 NA 
HETATM    5  C   UNL     1      -8.051   8.836  63.285  1.00  0.00    -0.170 C  
HETATM    6  H2  UNL     1      -7.857  11.835  64.780  1.00  0.00     0.000 HD 
HETATM    7  N   UNL     1      -9.021  10.370  66.779  1.00  0.00    -0.139 N  
HETATM    8  H1  UNL     1      -6.783  10.521  64.909  1.00  0.00     0.000 HD 
HETATM    9  O   UNL     1      -9.564   8.317  65.918  1.00  0.00    -0.137 OA 
HETATM   10  H   UNL     1      -8.497  11.206  66.522  1.00  0.00     0.000 HD 
ENDROOT
BRANCH   7  11
HETATM   11  C   UNL     1      -9.546  10.417  68.257  1.00  0.00    -0.144 C  
BRANCH  11  12
HETATM   12  C   UNL     1     -10.506   9.321  68.918  1.00  0.00    -0.235 C  
BRANCH  12  13
HETATM   13  C   UNL     1     -10.177   8.728  70.372  1.00  0.00    -0.228 A  
HETATM   14  C   UNL     1     -11.053   8.253  71.330  1.00  0.00    -0.251 A  
HETATM   15  C   UNL     1      -6.426   8.587  71.474  1.00  0.00    -0.064 A  
HETATM   16  C   UNL     1      -6.656   8.372  72.829  1.00  0.00    -0.103 A  
HETATM   17  C   UNL     1      -7.958   8.179  73.289  1.00  0.00    -0.234 A  
HETATM   18  N   UNL     1     -10.363   7.994  72.514  1.00  0.00    -0.280 NA 
HETATM   19  C   UNL     1      -7.499   8.692  70.564  1.00  0.00    -0.071 A  
HETATM   20  C   UNL     1      -8.844   8.570  71.003  1.00  0.00    -0.212 A  
HETATM   21  C   UNL     1      -9.022   8.247  72.350  1.00  0.00    -0.228 A  
HETATM   22  H   UNL     1     -10.792   7.664  73.378  1.00  0.00     0.000 HD 
ENDBRANCH  12  13
ENDBRANCH  11  12
BRANCH  11  23
HETATM   23  C   UNL     1      -9.962  11.885  68.543  1.00  0.00    -0.192 C  
HETATM   24  N   UNL     1     -11.282  12.116  68.876  1.00  0.00    -0.251 N  
HETATM   25  H   UNL     1     -11.903  11.329  69.061  1.00  0.00     0.000 HD 
HETATM   26  O   UNL     1      -9.151  12.803  68.387  1.00  0.00    -0.192 OA 
BRANCH  24  27
HETATM   27  C   UNL     1     -11.788  13.467  68.966  1.00  0.00    -0.335 C  
BRANCH  27  28
HETATM   28  N   UNL     1     -11.081  14.155  70.015  1.00  0.00    -0.471 N  
HETATM   29  O   UNL     1     -12.865  15.475  70.660  1.00  0.00    -0.458 OA 
HETATM   30  C   UNL     1     -11.704  15.114  70.781  1.00  0.00    -0.325 C  
HETATM   31  H   UNL     1     -10.103  13.928  70.194  1.00  0.00     0.000 HD 
ENDBRANCH  27  28
BRANCH  27  32
HETATM   32  C   UNL     1     -11.956  14.271  67.659  1.00  0.00    -0.400 C  
BRANCH  32  33
HETATM   33  C   UNL     1     -11.008  15.279  67.030  1.00  0.00    -0.324 A  
HETATM   34  C   UNL     1      -9.624  16.953  66.261  1.00  0.00    -0.276 A  
HETATM   35  H   UNL     1      -9.002  15.854  64.562  1.00  0.00     0.000 HD 
HETATM   36  C   UNL     1      -8.931  18.170  66.168  1.00  0.00    -0.113 A  
HETATM   37  C   UNL     1     -10.378  14.895  65.849  1.00  0.00    -0.314 A  
HETATM   38  C   UNL     1      -9.175  19.127  67.146  1.00  0.00    -0.340 A  
HETATM   39  N   UNL     1      -9.569  15.893  65.409  1.00  0.00    -0.371 NA 
HETATM   40  C   UNL     1     -10.083  18.865  68.170  1.00  0.00    -0.447 A  
HETATM   41  C   UNL     1     -10.761  17.630  68.256  1.00  0.00    -0.285 A  
HETATM   42  C   UNL     1     -10.534  16.629  67.286  1.00  0.00    -0.313 A  
ENDBRANCH  32  33
ENDBRANCH  27  32
ENDBRANCH  24  27
ENDBRANCH  11  23
ENDBRANCH   7  11
TORSDOF 8
ENDMDL
MODEL      271
REMARK 921   NORMALIZED FREE ENERGY PREDICTED BY IDOCK:   -5.56 KCAL/MOL
REMARK 922        TOTAL FREE ENERGY PREDICTED BY IDOCK:  -10.31 KCAL/MOL
REMARK 923 INTER-LIGAND FREE ENERGY PREDICTED BY IDOCK:   -8.39 KCAL/MOL
REMARK 924 INTRA-LIGAND FREE ENERGY PREDICTED BY IDOCK:   -1.92 KCAL/MOL
REMARK 927      BINDING AFFINITY PREDICTED BY RF-SCORE:    0.00 PKD
ROOT
HETATM    1  C   UNL     1      -7.429  14.611  69.435  1.00  0.00    -0.112 C  
HETATM    2  C   UNL     1      -6.835  13.225  69.117  1.00  0.00    -0.067 C  
HETATM    3  C   UNL     1      -7.880  12.242  68.254  1.00  0.00    -0.153 C  
HETATM    4  N   UNL     1      -6.523  12.568  70.419  1.00  0.00    -0.460 NA 
HETATM    5  C   UNL     1      -5.472  13.522  68.434  1.00  0.00    -0.095 C  
HETATM    6  H2  UNL     1      -7.326  12.524  71.047  1.00  0.00     0.000 HD 
HETATM    7  N   UNL     1      -8.774  11.451  68.985  1.00  0.00    -0.375 N  
HETATM    8  H1  UNL     1      -6.129  11.651  70.208  1.00  0.00     0.000 HD 
HETATM    9  O   UNL     1      -7.894  12.245  67.024  1.00  0.00    -0.164 OA 
HETATM   10  H   UNL     1      -8.561  11.437  69.982  1.00  0.00     0.000 HD 
ENDROOT
BRANCH   7  11
HETATM   11  C   UNL     1     -10.027  10.579  68.623  1.00  0.00    -0.181 C  
BRANCH  11  12
HETATM   12  C   UNL     1     -11.383  11.150  67.995  1.00  0.00    -0.380 C  
BRANCH  12  13
HETATM   13  C   UNL     1     -11.381  12.538  67.191  1.00  0.00    -0.381 A  
HETATM   14  C   UNL     1     -11.621  12.759  65.848  1.00  0.00    -0.382 A  
HETATM   15  C   UNL     1     -10.568  15.799  69.193  1.00  0.00    -0.242 A  
HETATM   16  C   UNL     1     -10.333  16.619  68.093  1.00  0.00    -0.303 A  
HETATM   17  C   UNL     1     -10.548  16.129  66.805  1.00  0.00    -0.277 A  
HETATM   18  N   UNL     1     -11.348  14.090  65.532  1.00  0.00    -0.308 NA 
HETATM   19  C   UNL     1     -10.946  14.450  69.025  1.00  0.00    -0.274 A  
HETATM   20  C   UNL     1     -11.109  13.894  67.728  1.00  0.00    -0.281 A  
HETATM   21  C   UNL     1     -10.969  14.780  66.659  1.00  0.00    -0.326 A  
HETATM   22  H   UNL     1     -11.420  14.494  64.599  1.00  0.00     0.000 HD 
ENDBRANCH  12  13
ENDBRANCH  11  12
BRANCH  11  23
HETATM   23  C   UNL     1     -10.237   9.580  69.793  1.00  0.00    -0.228 C  
HETATM   24  N   UNL     1     -11.425   8.877  69.821  1.00  0.00    -0.434 N  
HETATM   25  H   UNL     1     -12.059   8.921  69.023  1.00  0.00     0.000 HD 
HETATM   26  O   UNL     1      -9.400   9.497  70.697  1.00  0.00    -0.254 OA 
BRANCH  24  27
HETATM   27  C   UNL     1     -11.775   8.078  70.973  1.00  0.00    -0.277 C  
BRANCH  27  28
HETATM   28  N   UNL     1     -13.182   8.242  71.237  1.00  0.00    -0.517 N  
HETATM   29  O   UNL     1     -12.944  10.118  72.566  1.00  0.00    -0.195 OA 
HETATM   30  C   UNL     1     -13.641   9.273  72.025  1.00  0.00    -0.452 C  
HETATM   31  H   UNL     1     -13.848   7.584  70.834  1.00  0.00     0.000 HD 
ENDBRANCH  27  28
BRANCH  27  32
HETATM   32  C   UNL     1     -11.267   6.622  71.033  1.00  0.00    -0.349 C  
BRANCH  32  33
HETATM   33  C   UNL     1      -9.862   6.113  71.311  1.00  0.00    -0.204 A  
HETATM   34  C   UNL     1      -7.676   5.413  71.511  1.00  0.00    -0.105 A  
HETATM   35  H   UNL     1      -7.934   4.701  73.488  1.00  0.00     0.000 HD 
HETATM   36  C   UNL     1      -6.328   5.155  71.215  1.00  0.00    -0.030 A  
HETATM   37  C   UNL     1      -9.635   5.554  72.566  1.00  0.00    -0.148 A  
HETATM   38  C   UNL     1      -5.872   5.488  69.946  1.00  0.00    -0.017 A  
HETATM   39  N   UNL     1      -8.344   5.145  72.666  1.00  0.00    -0.113 NA 
HETATM   40  C   UNL     1      -6.743   6.051  69.014  1.00  0.00    -0.060 A  
HETATM   41  C   UNL     1      -8.092   6.314  69.332  1.00  0.00    -0.113 A  
HETATM   42  C   UNL     1      -8.591   6.000  70.615  1.00  0.00    -0.134 A  
ENDBRANCH  32  33
ENDBRANCH  27  32
ENDBRANCH  24  27
ENDBRANCH  11  23
ENDBRANCH   7  11
TORSDOF 8
ENDMDL
MODEL      272
REMARK 921   NORMALIZED FREE ENERGY PREDICTED BY IDOCK:   -5.56 KCAL/MOL
REMARK 922        TOTAL FREE ENERGY PREDICTED BY IDOCK:  -10.30 KCAL/MOL
REMARK 923 INTER-LIGAND FREE ENERGY PREDICTED BY IDOCK:   -8.22 KCAL/MOL
REMARK 924 INTRA-LIGAND FREE ENERGY PREDICTED BY IDOCK:   -2.09 KCAL/MOL
REMARK 927      BINDING AFFINITY PREDICTED BY RF-SCORE:    0.00 PKD
ROOT
HETATM    1  C   UNL     1     -10.520   6.860  73.878  1.00  0.00    -0.352 C  
HETATM    2  C   UNL     1     -10.842   6.255  72.498  1.00  0.00    -0.240 C  
HETATM    3  C   UNL     1      -9.901   6.886  71.265  1.00  0.00    -0.175 C  
HETATM    4  N   UNL     1     -12.275   6.550  72.208  1.00  0.00    -0.525 NA 
HETATM    5  C   UNL     1     -10.741   4.717  72.702  1.00  0.00    -0.263 C  
HETATM    6  H2  UNL     1     -12.498   7.544  72.270  1.00  0.00     0.000 HD 
HETATM    7  N   UNL     1     -10.366   8.041  70.625  1.00  0.00    -0.200 N  
HETATM    8  H1  UNL     1     -12.488   6.149  71.295  1.00  0.00     0.000 HD 
HETATM    9  O   UNL     1      -8.822   6.381  70.959  1.00  0.00    -0.138 OA 
HETATM   10  H   UNL     1     -11.328   8.268  70.874  1.00  0.00     0.000 HD 
ENDROOT
BRANCH   7  11
HETATM   11  C   UNL     1      -9.746   9.066  69.611  1.00  0.00    -0.172 C  
BRANCH  11  12
HETATM   12  C   UNL     1      -8.189   9.414  69.505  1.00  0.00    -0.124 C  
BRANCH  12  13
HETATM   13  C   UNL     1      -7.376   9.089  68.162  1.00  0.00    -0.083 A  
HETATM   14  C   UNL     1      -6.437   9.866  67.509  1.00  0.00    -0.068 A  
HETATM   15  C   UNL     1      -8.086   5.675  66.388  1.00  0.00    -0.106 A  
HETATM   16  C   UNL     1      -7.479   5.986  65.174  1.00  0.00    -0.084 A  
HETATM   17  C   UNL     1      -6.799   7.194  65.029  1.00  0.00    -0.047 A  
HETATM   18  N   UNL     1      -6.107   9.281  66.287  1.00  0.00    -0.059 NA 
HETATM   19  C   UNL     1      -8.091   6.600  67.453  1.00  0.00    -0.121 A  
HETATM   20  C   UNL     1      -7.468   7.869  67.322  1.00  0.00    -0.093 A  
HETATM   21  C   UNL     1      -6.781   8.094  66.128  1.00  0.00    -0.054 A  
HETATM   22  H   UNL     1      -5.458   9.678  65.608  1.00  0.00     0.000 HD 
ENDBRANCH  12  13
ENDBRANCH  11  12
BRANCH  11  23
HETATM   23  C   UNL     1     -10.681  10.306  69.594  1.00  0.00    -0.264 C  
HETATM   24  N   UNL     1     -10.707  11.064  68.440  1.00  0.00    -0.189 N  
HETATM   25  H   UNL     1     -10.237  10.725  67.601  1.00  0.00     0.000 HD 
HETATM   26  O   UNL     1     -11.299  10.632  70.612  1.00  0.00    -0.316 OA 
BRANCH  24  27
HETATM   27  C   UNL     1     -11.398  12.332  68.414  1.00  0.00    -0.292 C  
BRANCH  27  28
HETATM   28  N   UNL     1     -10.573  13.319  69.063  1.00  0.00    -0.417 N  
HETATM   29  O   UNL     1      -9.034  13.489  67.348  1.00  0.00    -0.197 OA 
HETATM   30  C   UNL     1      -9.445  13.816  68.451  1.00  0.00    -0.198 C  
HETATM   31  H   UNL     1     -10.829  13.655  69.991  1.00  0.00     0.000 HD 
ENDBRANCH  27  28
BRANCH  27  32
HETATM   32  C   UNL     1     -12.035  12.789  67.085  1.00  0.00    -0.351 C  
BRANCH  32  33
HETATM   33  C   UNL     1     -11.557  12.543  65.663  1.00  0.00    -0.435 A  
HETATM   34  C   UNL     1     -10.701  11.989  63.597  1.00  0.00    -0.449 A  
HETATM   35  H   UNL     1     -11.752  13.526  62.590  1.00  0.00     0.000 HD 
HETATM   36  C   UNL     1      -9.980  11.333  62.587  1.00  0.00    -0.067 A  
HETATM   37  C   UNL     1     -12.056  13.391  64.678  1.00  0.00    -0.410 A  
HETATM   38  C   UNL     1      -9.152  10.283  62.964  1.00  0.00    -0.284 A  
HETATM   39  N   UNL     1     -11.541  13.052  63.468  1.00  0.00    -0.457 NA 
HETATM   40  C   UNL     1      -9.053   9.916  64.305  1.00  0.00    -0.297 A  
HETATM   41  C   UNL     1      -9.796  10.578  65.307  1.00  0.00    -0.345 A  
HETATM   42  C   UNL     1     -10.655  11.644  64.962  1.00  0.00    -0.342 A  
ENDBRANCH  32  33
ENDBRANCH  27  32
ENDBRANCH  24  27
ENDBRANCH  11  23
ENDBRANCH   7  11
TORSDOF 8
ENDMDL
MODEL      273
REMARK 921   NORMALIZED FREE ENERGY PREDICTED BY IDOCK:   -5.54 KCAL/MOL
REMARK 922        TOTAL FREE ENERGY PREDICTED BY IDOCK:  -10.28 KCAL/MOL
REMARK 923 INTER-LIGAND FREE ENERGY PREDICTED BY IDOCK:   -8.07 KCAL/MOL
REMARK 924 INTRA-LIGAND FREE ENERGY PREDICTED BY IDOCK:   -2.21 KCAL/MOL
REMARK 927      BINDING AFFINITY PREDICTED BY RF-SCORE:    0.00 PKD
ROOT
HETATM    1  C   UNL     1      -7.295  10.364  63.723  1.00  0.00     0.000 C  
HETATM    2  C   UNL     1      -8.788   9.996  63.824  1.00  0.00    -0.231 C  
HETATM    3  C   UNL     1      -9.679  11.095  64.719  1.00  0.00    -0.257 C  
HETATM    4  N   UNL     1      -8.871   8.660  64.483  1.00  0.00    -0.415 NA 
HETATM    5  C   UNL     1      -9.250   9.792  62.355  1.00  0.00    -0.294 C  
HETATM    6  H2  UNL     1      -8.390   8.629  65.383  1.00  0.00     0.000 HD 
HETATM    7  N   UNL     1      -9.759  10.889  66.101  1.00  0.00    -0.202 N  
HETATM    8  H1  UNL     1      -9.859   8.417  64.549  1.00  0.00     0.000 HD 
HETATM    9  O   UNL     1     -10.210  12.071  64.190  1.00  0.00    -0.299 OA 
HETATM   10  H   UNL     1      -9.400   9.978  66.383  1.00  0.00     0.000 HD 
ENDROOT
BRANCH   7  11
HETATM   11  C   UNL     1     -10.274  11.739  67.316  1.00  0.00    -0.203 C  
BRANCH  11  12
HETATM   12  C   UNL     1      -9.500  12.988  67.946  1.00  0.00    -0.219 C  
BRANCH  12  13
HETATM   13  C   UNL     1     -10.276  14.364  68.226  1.00  0.00    -0.241 A  
HETATM   14  C   UNL     1     -11.600  14.555  68.576  1.00  0.00    -0.313 A  
HETATM   15  C   UNL     1      -8.256  17.696  67.870  1.00  0.00    -0.234 A  
HETATM   16  C   UNL     1      -9.351  18.555  67.841  1.00  0.00    -0.312 A  
HETATM   17  C   UNL     1     -10.635  18.048  68.041  1.00  0.00    -0.361 A  
HETATM   18  N   UNL     1     -11.903  15.916  68.552  1.00  0.00    -0.444 NA 
HETATM   19  C   UNL     1      -8.431  16.304  68.022  1.00  0.00    -0.174 A  
HETATM   20  C   UNL     1      -9.727  15.741  68.160  1.00  0.00    -0.211 A  
HETATM   21  C   UNL     1     -10.785  16.649  68.234  1.00  0.00    -0.351 A  
HETATM   22  H   UNL     1     -12.823  16.311  68.744  1.00  0.00     0.000 HD 
ENDBRANCH  12  13
ENDBRANCH  11  12
BRANCH  11  23
HETATM   23  C   UNL     1     -10.831  10.738  68.363  1.00  0.00    -0.232 C  
HETATM   24  N   UNL     1     -10.525  10.972  69.689  1.00  0.00    -0.447 N  
HETATM   25  H   UNL     1     -10.073  11.846  69.958  1.00  0.00     0.000 HD 
HETATM   26  O   UNL     1     -11.447   9.732  67.996  1.00  0.00    -0.010 OA 
BRANCH  24  27
HETATM   27  C   UNL     1     -10.840   9.986  70.698  1.00  0.00    -0.297 C  
BRANCH  27  28
HETATM   28  N   UNL     1     -12.201   9.554  70.510  1.00  0.00    -0.472 N  
HETATM   29  O   UNL     1     -13.163  11.390  71.531  1.00  0.00    -0.373 OA 
HETATM   30  C   UNL     1     -13.257  10.318  70.954  1.00  0.00    -0.277 C  
HETATM   31  H   UNL     1     -12.386   8.667  70.041  1.00  0.00     0.000 HD 
ENDBRANCH  27  28
BRANCH  27  32
HETATM   32  C   UNL     1      -9.825   8.850  70.950  1.00  0.00    -0.304 C  
BRANCH  32  33
HETATM   33  C   UNL     1      -9.020   8.049  69.940  1.00  0.00    -0.145 A  
HETATM   34  C   UNL     1      -7.706   7.042  68.338  1.00  0.00    -0.120 A  
HETATM   35  H   UNL     1      -8.395   5.093  68.792  1.00  0.00     0.000 HD 
HETATM   36  C   UNL     1      -6.778   6.857  67.300  1.00  0.00    -0.063 A  
HETATM   37  C   UNL     1      -9.211   6.669  69.940  1.00  0.00    -0.146 A  
HETATM   38  C   UNL     1      -6.179   7.989  66.761  1.00  0.00    -0.054 A  
HETATM   39  N   UNL     1      -8.431   6.093  68.989  1.00  0.00    -0.118 NA 
HETATM   40  C   UNL     1      -6.508   9.254  67.247  1.00  0.00    -0.060 A  
HETATM   41  C   UNL     1      -7.434   9.421  68.300  1.00  0.00    -0.078 A  
HETATM   42  C   UNL     1      -8.057   8.294  68.880  1.00  0.00    -0.115 A  
ENDBRANCH  32  33
ENDBRANCH  27  32
ENDBRANCH  24  27
ENDBRANCH  11  23
ENDBRANCH   7  11
TORSDOF 8
ENDMDL
MODEL      274
REMARK 921   NORMALIZED FREE ENERGY PREDICTED BY IDOCK:   -5.53 KCAL/MOL
REMARK 922        TOTAL FREE ENERGY PREDICTED BY IDOCK:  -10.26 KCAL/MOL
REMARK 923 INTER-LIGAND FREE ENERGY PREDICTED BY IDOCK:  -10.99 KCAL/MOL
REMARK 924 INTRA-LIGAND FREE ENERGY PREDICTED BY IDOCK:    0.72 KCAL/MOL
REMARK 927      BINDING AFFINITY PREDICTED BY RF-SCORE:    0.00 PKD
ROOT
HETATM    1  C   UNL     1     -11.921  15.872  72.256  1.00  0.00    -0.617 C  
HETATM    2  C   UNL     1     -13.079  15.178  71.512  1.00  0.00    -0.403 C  
HETATM    3  C   UNL     1     -12.850  13.531  71.325  1.00  0.00    -0.338 C  
HETATM    4  N   UNL     1     -13.177  15.806  70.162  1.00  0.00    -0.622 NA 
HETATM    5  C   UNL     1     -14.360  15.596  72.286  1.00  0.00    -0.480 C  
HETATM    6  H2  UNL     1     -12.297  15.779  69.645  1.00  0.00     0.000 HD 
HETATM    7  N   UNL     1     -12.152  13.100  70.191  1.00  0.00    -0.361 N  
HETATM    8  H1  UNL     1     -13.943  15.347  69.670  1.00  0.00     0.000 HD 
HETATM    9  O   UNL     1     -13.242  12.729  72.172  1.00  0.00    -0.475 OA 
HETATM   10  H   UNL     1     -12.012  13.845  69.509  1.00  0.00     0.000 HD 
ENDROOT
BRANCH   7  11
HETATM   11  C   UNL     1     -11.535  11.733  69.726  1.00  0.00    -0.245 C  
BRANCH  11  12
HETATM   12  C   UNL     1     -11.126  11.384  68.220  1.00  0.00    -0.300 C  
BRANCH  12  13
HETATM   13  C   UNL     1     -11.284  12.483  67.063  1.00  0.00    -0.353 A  
HETATM   14  C   UNL     1     -12.013  12.407  65.891  1.00  0.00    -0.367 A  
HETATM   15  C   UNL     1      -9.364  15.866  67.493  1.00  0.00    -0.217 A  
HETATM   16  C   UNL     1      -9.495  16.302  66.178  1.00  0.00    -0.373 A  
HETATM   17  C   UNL     1     -10.262  15.566  65.276  1.00  0.00    -0.380 A  
HETATM   18  N   UNL     1     -11.736  13.514  65.089  1.00  0.00    -0.311 NA 
HETATM   19  C   UNL     1      -9.932  14.644  67.911  1.00  0.00    -0.221 A  
HETATM   20  C   UNL     1     -10.664  13.830  67.005  1.00  0.00    -0.283 A  
HETATM   21  C   UNL     1     -10.861  14.359  65.728  1.00  0.00    -0.307 A  
HETATM   22  H   UNL     1     -12.127  13.674  64.162  1.00  0.00     0.000 HD 
ENDBRANCH  12  13
ENDBRANCH  11  12
BRANCH  11  23
HETATM   23  C   UNL     1     -12.327  10.611  70.450  1.00  0.00    -0.343 C  
HETATM   24  N   UNL     1     -11.631   9.819  71.342  1.00  0.00    -0.382 N  
HETATM   25  H   UNL     1     -10.678  10.068  71.604  1.00  0.00     0.000 HD 
HETATM   26  O   UNL     1     -13.508  10.398  70.161  1.00  0.00     0.086 OA 
BRANCH  24  27
HETATM   27  C   UNL     1     -12.246   8.639  71.905  1.00  0.00    -0.355 C  
BRANCH  27  28
HETATM   28  N   UNL     1     -13.584   8.524  71.386  1.00  0.00    -0.526 N  
HETATM   29  O   UNL     1     -13.917   6.351  72.098  1.00  0.00    -0.005 OA 
HETATM   30  C   UNL     1     -14.309   7.364  71.539  1.00  0.00    -0.440 C  
HETATM   31  H   UNL     1     -14.002   9.316  70.898  1.00  0.00     0.000 HD 
ENDBRANCH  27  28
BRANCH  27  32
HETATM   32  C   UNL     1     -11.435   7.325  71.910  1.00  0.00    -0.302 C  
BRANCH  32  33
HETATM   33  C   UNL     1     -10.851   6.561  70.733  1.00  0.00    -0.311 A  
HETATM   34  C   UNL     1      -9.931   5.219  69.101  1.00  0.00    -0.205 A  
HETATM   35  H   UNL     1     -10.136   6.680  67.583  1.00  0.00     0.000 HD 
HETATM   36  C   UNL     1      -9.351   4.116  68.454  1.00  0.00    -0.213 A  
HETATM   37  C   UNL     1     -10.819   7.223  69.509  1.00  0.00    -0.209 A  
HETATM   38  C   UNL     1      -9.058   2.998  69.226  1.00  0.00    -0.198 A  
HETATM   39  N   UNL     1     -10.272   6.421  68.560  1.00  0.00    -0.160 NA 
HETATM   40  C   UNL     1      -9.334   2.998  70.592  1.00  0.00    -0.221 A  
HETATM   41  C   UNL     1      -9.929   4.111  71.223  1.00  0.00    -0.216 A  
HETATM   42  C   UNL     1     -10.251   5.263  70.472  1.00  0.00    -0.334 A  
ENDBRANCH  32  33
ENDBRANCH  27  32
ENDBRANCH  24  27
ENDBRANCH  11  23
ENDBRANCH   7  11
TORSDOF 8
ENDMDL
MODEL      275
REMARK 921   NORMALIZED FREE ENERGY PREDICTED BY IDOCK:   -5.52 KCAL/MOL
REMARK 922        TOTAL FREE ENERGY PREDICTED BY IDOCK:  -10.25 KCAL/MOL
REMARK 923 INTER-LIGAND FREE ENERGY PREDICTED BY IDOCK:   -8.45 KCAL/MOL
REMARK 924 INTRA-LIGAND FREE ENERGY PREDICTED BY IDOCK:   -1.80 KCAL/MOL
REMARK 927      BINDING AFFINITY PREDICTED BY RF-SCORE:    0.00 PKD
ROOT
HETATM    1  C   UNL     1      -8.766   5.876  65.626  1.00  0.00    -0.149 C  
HETATM    2  C   UNL     1      -8.631   5.237  67.022  1.00  0.00    -0.105 C  
HETATM    3  C   UNL     1      -9.345   6.143  68.234  1.00  0.00    -0.116 C  
HETATM    4  N   UNL     1      -7.173   5.110  67.311  1.00  0.00    -0.079 NA 
HETATM    5  C   UNL     1      -9.174   3.790  66.853  1.00  0.00    -0.198 C  
HETATM    6  H2  UNL     1      -6.671   5.995  67.227  1.00  0.00     0.000 HD 
HETATM    7  N   UNL     1      -8.564   7.128  68.850  1.00  0.00    -0.129 N  
HETATM    8  H1  UNL     1      -7.084   4.686  68.235  1.00  0.00     0.000 HD 
HETATM    9  O   UNL     1     -10.524   5.981  68.546  1.00  0.00    -0.184 OA 
HETATM   10  H   UNL     1      -7.577   7.060  68.600  1.00  0.00     0.000 HD 
ENDROOT
BRANCH   7  11
HETATM   11  C   UNL     1      -8.856   8.313  69.836  1.00  0.00    -0.138 C  
BRANCH  11  12
HETATM   12  C   UNL     1      -9.164   8.144  71.397  1.00  0.00    -0.195 C  
BRANCH  12  13
HETATM   13  C   UNL     1     -10.190   7.019  71.902  1.00  0.00    -0.205 A  
HETATM   14  C   UNL     1     -11.550   7.126  72.125  1.00  0.00    -0.279 A  
HETATM   15  C   UNL     1      -8.755   3.461  72.669  1.00  0.00    -0.094 A  
HETATM   16  C   UNL     1      -9.856   2.983  73.375  1.00  0.00    -0.160 A  
HETATM   17  C   UNL     1     -11.008   3.762  73.471  1.00  0.00    -0.339 A  
HETATM   18  N   UNL     1     -12.024   5.960  72.725  1.00  0.00    -0.539 NA 
HETATM   19  C   UNL     1      -8.758   4.758  72.113  1.00  0.00    -0.131 A  
HETATM   20  C   UNL     1      -9.887   5.608  72.248  1.00  0.00    -0.185 A  
HETATM   21  C   UNL     1     -11.005   5.049  72.868  1.00  0.00    -0.277 A  
HETATM   22  H   UNL     1     -12.989   5.805  73.016  1.00  0.00     0.000 HD 
ENDBRANCH  12  13
ENDBRANCH  11  12
BRANCH  11  23
HETATM   23  C   UNL     1      -9.812   9.289  69.099  1.00  0.00    -0.167 C  
HETATM   24  N   UNL     1     -10.786   9.914  69.854  1.00  0.00    -0.259 N  
HETATM   25  H   UNL     1     -10.768   9.833  70.870  1.00  0.00     0.000 HD 
HETATM   26  O   UNL     1      -9.742   9.420  67.874  1.00  0.00    -0.146 OA 
BRANCH  24  27
HETATM   27  C   UNL     1     -11.828  10.681  69.212  1.00  0.00    -0.237 C  
BRANCH  27  28
HETATM   28  N   UNL     1     -13.101  10.255  69.733  1.00  0.00    -0.150 N  
HETATM   29  O   UNL     1     -12.614  10.737  71.940  1.00  0.00    -0.331 OA 
HETATM   30  C   UNL     1     -13.379  10.328  71.079  1.00  0.00    -0.225 C  
HETATM   31  H   UNL     1     -13.809   9.893  69.094  1.00  0.00     0.000 HD 
ENDBRANCH  27  28
BRANCH  27  32
HETATM   32  C   UNL     1     -11.648  12.210  69.104  1.00  0.00    -0.374 C  
BRANCH  32  33
HETATM   33  C   UNL     1     -11.435  13.060  67.863  1.00  0.00    -0.352 A  
HETATM   34  C   UNL     1     -11.055  14.529  66.128  1.00  0.00    -0.334 A  
HETATM   35  H   UNL     1     -11.529  13.108  64.632  1.00  0.00     0.000 HD 
HETATM   36  C   UNL     1     -10.723  15.693  65.418  1.00  0.00    -0.424 A  
HETATM   37  C   UNL     1     -11.657  12.443  66.634  1.00  0.00    -0.385 A  
HETATM   38  C   UNL     1     -10.399  16.827  66.154  1.00  0.00    -0.338 A  
HETATM   39  N   UNL     1     -11.431  13.321  65.624  1.00  0.00    -0.312 NA 
HETATM   40  C   UNL     1     -10.416  16.786  67.547  1.00  0.00    -0.319 A  
HETATM   41  C   UNL     1     -10.740  15.602  68.245  1.00  0.00    -0.283 A  
HETATM   42  C   UNL     1     -11.065  14.427  67.533  1.00  0.00    -0.312 A  
ENDBRANCH  32  33
ENDBRANCH  27  32
ENDBRANCH  24  27
ENDBRANCH  11  23
ENDBRANCH   7  11
TORSDOF 8
ENDMDL
MODEL      276
REMARK 921   NORMALIZED FREE ENERGY PREDICTED BY IDOCK:   -5.49 KCAL/MOL
REMARK 922        TOTAL FREE ENERGY PREDICTED BY IDOCK:  -10.21 KCAL/MOL
REMARK 923 INTER-LIGAND FREE ENERGY PREDICTED BY IDOCK:   -7.25 KCAL/MOL
REMARK 924 INTRA-LIGAND FREE ENERGY PREDICTED BY IDOCK:   -2.96 KCAL/MOL
REMARK 927      BINDING AFFINITY PREDICTED BY RF-SCORE:    0.00 PKD
ROOT
HETATM    1  C   UNL     1      -6.518   2.798  65.941  1.00  0.00    -0.028 C  
HETATM    2  C   UNL     1      -7.775   3.100  66.780  1.00  0.00    -0.076 C  
HETATM    3  C   UNL     1      -8.461   4.586  66.428  1.00  0.00    -0.112 C  
HETATM    4  N   UNL     1      -7.363   3.088  68.214  1.00  0.00    -0.049 NA 
HETATM    5  C   UNL     1      -8.699   1.867  66.576  1.00  0.00    -0.120 C  
HETATM    6  H2  UNL     1      -6.589   3.722  68.412  1.00  0.00     0.000 HD 
HETATM    7  N   UNL     1      -7.988   5.699  67.134  1.00  0.00    -0.102 N  
HETATM    8  H1  UNL     1      -8.196   3.288  68.769  1.00  0.00     0.000 HD 
HETATM    9  O   UNL     1      -9.318   4.706  65.554  1.00  0.00    -0.145 OA 
HETATM   10  H   UNL     1      -7.390   5.441  67.918  1.00  0.00     0.000 HD 
ENDROOT
BRANCH   7  11
HETATM   11  C   UNL     1      -8.168   7.252  66.996  1.00  0.00    -0.117 C  
BRANCH  11  12
HETATM   12  C   UNL     1      -7.091   8.238  66.344  1.00  0.00    -0.071 C  
BRANCH  12  13
HETATM   13  C   UNL     1      -7.371   8.913  64.916  1.00  0.00    -0.093 A  
HETATM   14  C   UNL     1      -6.578   8.902  63.784  1.00  0.00    -0.088 A  
HETATM   15  C   UNL     1     -10.704  10.913  64.471  1.00  0.00    -0.258 A  
HETATM   16  C   UNL     1     -10.352  11.570  63.296  1.00  0.00    -0.435 A  
HETATM   17  C   UNL     1      -9.145  11.264  62.667  1.00  0.00    -0.327 A  
HETATM   18  N   UNL     1      -7.117   9.755  62.821  1.00  0.00    -0.111 NA 
HETATM   19  C   UNL     1      -9.822   9.996  65.082  1.00  0.00    -0.388 A  
HETATM   20  C   UNL     1      -8.555   9.708  64.509  1.00  0.00    -0.205 A  
HETATM   21  C   UNL     1      -8.290  10.307  63.276  1.00  0.00    -0.168 A  
HETATM   22  H   UNL     1      -6.700   9.942  61.910  1.00  0.00     0.000 HD 
ENDBRANCH  12  13
ENDBRANCH  11  12
BRANCH  11  23
HETATM   23  C   UNL     1      -8.770   7.758  68.335  1.00  0.00    -0.127 C  
HETATM   24  N   UNL     1     -10.083   8.184  68.318  1.00  0.00    -0.191 N  
HETATM   25  H   UNL     1     -10.655   8.030  67.487  1.00  0.00     0.000 HD 
HETATM   26  O   UNL     1      -8.060   7.849  69.341  1.00  0.00    -0.120 OA 
BRANCH  24  27
HETATM   27  C   UNL     1     -10.652   8.846  69.469  1.00  0.00    -0.228 C  
BRANCH  27  28
HETATM   28  N   UNL     1     -10.458   8.009  70.625  1.00  0.00    -0.207 N  
HETATM   29  O   UNL     1     -11.716   6.238  69.835  1.00  0.00    -0.408 OA 
HETATM   30  C   UNL     1     -11.020   6.754  70.697  1.00  0.00    -0.267 C  
HETATM   31  H   UNL     1      -9.894   8.351  71.402  1.00  0.00     0.000 HD 
ENDBRANCH  27  28
BRANCH  27  32
HETATM   32  C   UNL     1     -10.329  10.340  69.685  1.00  0.00    -0.281 C  
BRANCH  32  33
HETATM   33  C   UNL     1      -9.918  11.385  68.661  1.00  0.00    -0.209 A  
HETATM   34  C   UNL     1      -9.526  13.026  67.092  1.00  0.00    -0.230 A  
HETATM   35  H   UNL     1      -7.435  12.697  67.060  1.00  0.00     0.000 HD 
HETATM   36  C   UNL     1      -9.734  14.071  66.177  1.00  0.00    -0.300 A  
HETATM   37  C   UNL     1      -8.560  11.473  68.367  1.00  0.00    -0.159 A  
HETATM   38  C   UNL     1     -11.042  14.483  65.957  1.00  0.00    -0.329 A  
HETATM   39  N   UNL     1      -8.347  12.443  67.441  1.00  0.00    -0.171 NA 
HETATM   40  C   UNL     1     -12.095  13.863  66.628  1.00  0.00    -0.485 A  
HETATM   41  C   UNL     1     -11.866  12.822  67.554  1.00  0.00    -0.402 A  
HETATM   42  C   UNL     1     -10.551  12.381  67.813  1.00  0.00    -0.236 A  
ENDBRANCH  32  33
ENDBRANCH  27  32
ENDBRANCH  24  27
ENDBRANCH  11  23
ENDBRANCH   7  11
TORSDOF 8
ENDMDL
MODEL      277
REMARK 921   NORMALIZED FREE ENERGY PREDICTED BY IDOCK:   -5.48 KCAL/MOL
REMARK 922        TOTAL FREE ENERGY PREDICTED BY IDOCK:  -10.18 KCAL/MOL
REMARK 923 INTER-LIGAND FREE ENERGY PREDICTED BY IDOCK:   -8.92 KCAL/MOL
REMARK 924 INTRA-LIGAND FREE ENERGY PREDICTED BY IDOCK:   -1.26 KCAL/MOL
REMARK 927      BINDING AFFINITY PREDICTED BY RF-SCORE:    0.00 PKD
ROOT
HETATM    1  C   UNL     1     -14.370  15.098  71.367  1.00  0.00    -0.601 C  
HETATM    2  C   UNL     1     -13.011  14.644  71.935  1.00  0.00    -0.331 C  
HETATM    3  C   UNL     1     -11.706  15.210  71.053  1.00  0.00    -0.340 C  
HETATM    4  N   UNL     1     -12.997  13.153  71.911  1.00  0.00    -0.338 NA 
HETATM    5  C   UNL     1     -13.044  15.061  73.432  1.00  0.00    -0.548 C  
HETATM    6  H2  UNL     1     -13.192  12.766  70.987  1.00  0.00     0.000 HD 
HETATM    7  N   UNL     1     -11.268  14.432  69.975  1.00  0.00    -0.435 N  
HETATM    8  H1  UNL     1     -12.097  12.853  72.288  1.00  0.00     0.000 HD 
HETATM    9  O   UNL     1     -11.175  16.289  71.314  1.00  0.00    -0.290 OA 
HETATM   10  H   UNL     1     -11.697  13.507  69.959  1.00  0.00     0.000 HD 
ENDROOT
BRANCH   7  11
HETATM   11  C   UNL     1     -10.270  14.656  68.785  1.00  0.00    -0.242 C  
BRANCH  11  12
HETATM   12  C   UNL     1     -10.550  15.604  67.528  1.00  0.00    -0.297 C  
BRANCH  12  13
HETATM   13  C   UNL     1     -10.085  17.138  67.550  1.00  0.00    -0.301 A  
HETATM   14  C   UNL     1     -10.715  18.224  68.129  1.00  0.00    -0.199 A  
HETATM   15  C   UNL     1      -6.746  18.054  65.728  1.00  0.00    -0.292 A  
HETATM   16  C   UNL     1      -6.942  19.432  65.699  1.00  0.00    -0.308 A  
HETATM   17  C   UNL     1      -8.046  19.988  66.342  1.00  0.00    -0.338 A  
HETATM   18  N   UNL     1     -10.059  19.400  67.764  1.00  0.00    -0.375 NA 
HETATM   19  C   UNL     1      -7.692  17.200  66.333  1.00  0.00    -0.345 A  
HETATM   20  C   UNL     1      -8.865  17.722  66.940  1.00  0.00    -0.260 A  
HETATM   21  C   UNL     1      -8.966  19.114  66.982  1.00  0.00    -0.298 A  
HETATM   22  H   UNL     1     -10.349  20.338  68.039  1.00  0.00     0.000 HD 
ENDBRANCH  12  13
ENDBRANCH  11  12
BRANCH  11  23
HETATM   23  C   UNL     1      -9.684  13.266  68.419  1.00  0.00    -0.198 C  
HETATM   24  N   UNL     1     -10.561  12.199  68.379  1.00  0.00    -0.219 N  
HETATM   25  H   UNL     1     -11.564  12.366  68.449  1.00  0.00     0.000 HD 
HETATM   26  O   UNL     1      -8.468  13.126  68.260  1.00  0.00    -0.164 OA 
BRANCH  24  27
HETATM   27  C   UNL     1     -10.064  10.850  68.239  1.00  0.00    -0.174 C  
BRANCH  27  28
HETATM   28  N   UNL     1      -9.521  10.694  66.914  1.00  0.00    -0.163 N  
HETATM   29  O   UNL     1     -10.646   8.732  66.438  1.00  0.00    -0.132 OA 
HETATM   30  C   UNL     1      -9.874   9.626  66.122  1.00  0.00    -0.265 C  
HETATM   31  H   UNL     1      -8.863  11.387  66.558  1.00  0.00     0.000 HD 
ENDBRANCH  27  28
BRANCH  27  32
HETATM   32  C   UNL     1      -9.191  10.272  69.373  1.00  0.00    -0.206 C  
BRANCH  32  33
HETATM   33  C   UNL     1      -8.621   8.870  69.517  1.00  0.00    -0.134 A  
HETATM   34  C   UNL     1      -7.959   6.689  69.852  1.00  0.00    -0.117 A  
HETATM   35  H   UNL     1      -6.100   6.952  68.874  1.00  0.00     0.000 HD 
HETATM   36  C   UNL     1      -7.963   5.342  70.249  1.00  0.00    -0.084 A  
HETATM   37  C   UNL     1      -7.360   8.647  68.970  1.00  0.00    -0.077 A  
HETATM   38  C   UNL     1      -9.064   4.883  70.962  1.00  0.00    -0.181 A  
HETATM   39  N   UNL     1      -6.985   7.358  69.178  1.00  0.00    -0.074 NA 
HETATM   40  C   UNL     1     -10.112   5.750  71.266  1.00  0.00    -0.253 A  
HETATM   41  C   UNL     1     -10.098   7.098  70.847  1.00  0.00    -0.200 A  
HETATM   42  C   UNL     1      -9.002   7.600  70.112  1.00  0.00    -0.146 A  
ENDBRANCH  32  33
ENDBRANCH  27  32
ENDBRANCH  24  27
ENDBRANCH  11  23
ENDBRANCH   7  11
TORSDOF 8
ENDMDL
MODEL      278
REMARK 921   NORMALIZED FREE ENERGY PREDICTED BY IDOCK:   -5.47 KCAL/MOL
REMARK 922        TOTAL FREE ENERGY PREDICTED BY IDOCK:  -10.17 KCAL/MOL
REMARK 923 INTER-LIGAND FREE ENERGY PREDICTED BY IDOCK:   -8.24 KCAL/MOL
REMARK 924 INTRA-LIGAND FREE ENERGY PREDICTED BY IDOCK:   -1.94 KCAL/MOL
REMARK 927      BINDING AFFINITY PREDICTED BY RF-SCORE:    0.00 PKD
ROOT
HETATM    1  C   UNL     1     -10.325  17.058  67.473  1.00  0.00    -0.329 C  
HETATM    2  C   UNL     1      -9.999  16.169  66.256  1.00  0.00    -0.317 C  
HETATM    3  C   UNL     1      -9.888  14.543  66.639  1.00  0.00    -0.273 C  
HETATM    4  N   UNL     1      -8.686  16.626  65.714  1.00  0.00    -0.444 NA 
HETATM    5  C   UNL     1     -11.069  16.539  65.192  1.00  0.00    -0.134 C  
HETATM    6  H2  UNL     1      -7.945  16.632  66.415  1.00  0.00     0.000 HD 
HETATM    7  N   UNL     1      -8.640  14.060  67.051  1.00  0.00    -0.329 N  
HETATM    8  H1  UNL     1      -8.471  16.038  64.909  1.00  0.00     0.000 HD 
HETATM    9  O   UNL     1     -10.873  13.807  66.600  1.00  0.00    -0.285 OA 
HETATM   10  H   UNL     1      -7.890  14.734  66.902  1.00  0.00     0.000 HD 
ENDROOT
BRANCH   7  11
HETATM   11  C   UNL     1      -8.131  12.720  67.690  1.00  0.00    -0.175 C  
BRANCH  11  12
HETATM   12  C   UNL     1      -6.727  12.543  68.436  1.00  0.00    -0.081 C  
BRANCH  12  13
HETATM   13  C   UNL     1      -6.186  13.684  69.425  1.00  0.00    -0.109 A  
HETATM   14  C   UNL     1      -5.890  13.591  70.772  1.00  0.00    -0.161 A  
HETATM   15  C   UNL     1      -5.621  17.260  67.942  1.00  0.00    -0.122 A  
HETATM   16  C   UNL     1      -5.522  17.933  69.156  1.00  0.00    -0.192 A  
HETATM   17  C   UNL     1      -5.530  17.213  70.350  1.00  0.00    -0.230 A  
HETATM   18  N   UNL     1      -5.615  14.859  71.284  1.00  0.00    -0.072 NA 
HETATM   19  C   UNL     1      -5.810  15.862  67.901  1.00  0.00    -0.155 A  
HETATM   20  C   UNL     1      -5.893  15.101  69.097  1.00  0.00    -0.098 A  
HETATM   21  C   UNL     1      -5.680  15.801  70.285  1.00  0.00    -0.149 A  
HETATM   22  H   UNL     1      -5.398  15.059  72.260  1.00  0.00     0.000 HD 
ENDBRANCH  12  13
ENDBRANCH  11  12
BRANCH  11  23
HETATM   23  C   UNL     1      -8.470  11.584  66.688  1.00  0.00    -0.172 C  
HETATM   24  N   UNL     1      -9.792  11.193  66.598  1.00  0.00    -0.194 N  
HETATM   25  H   UNL     1     -10.514  11.736  67.070  1.00  0.00     0.000 HD 
HETATM   26  O   UNL     1      -7.569  11.009  66.072  1.00  0.00    -0.129 OA 
BRANCH  24  27
HETATM   27  C   UNL     1     -10.156  10.020  65.837  1.00  0.00    -0.249 C  
BRANCH  27  28
HETATM   28  N   UNL     1      -9.733  10.205  64.473  1.00  0.00    -0.312 N  
HETATM   29  O   UNL     1     -11.345  11.775  63.947  1.00  0.00    -0.378 OA 
HETATM   30  C   UNL     1     -10.382  11.088  63.641  1.00  0.00    -0.352 C  
HETATM   31  H   UNL     1      -8.939   9.673  64.118  1.00  0.00     0.000 HD 
ENDBRANCH  27  28
BRANCH  27  32
HETATM   32  C   UNL     1      -9.836   8.634  66.436  1.00  0.00    -0.341 C  
BRANCH  32  33
HETATM   33  C   UNL     1     -10.252   8.056  67.779  1.00  0.00    -0.282 A  
HETATM   34  C   UNL     1     -10.925   7.406  69.884  1.00  0.00    -0.223 A  
HETATM   35  H   UNL     1     -10.611   5.347  69.505  1.00  0.00     0.000 HD 
HETATM   36  C   UNL     1     -11.397   7.454  71.206  1.00  0.00    -0.289 A  
HETATM   37  C   UNL     1     -10.180   6.672  67.915  1.00  0.00    -0.171 A  
HETATM   38  C   UNL     1     -11.658   8.705  71.751  1.00  0.00    -0.403 A  
HETATM   39  N   UNL     1     -10.578   6.306  69.161  1.00  0.00    -0.237 NA 
HETATM   40  C   UNL     1     -11.445   9.857  70.996  1.00  0.00    -0.466 A  
HETATM   41  C   UNL     1     -10.983   9.789  69.664  1.00  0.00    -0.269 A  
HETATM   42  C   UNL     1     -10.716   8.536  69.070  1.00  0.00    -0.113 A  
ENDBRANCH  32  33
ENDBRANCH  27  32
ENDBRANCH  24  27
ENDBRANCH  11  23
ENDBRANCH   7  11
TORSDOF 8
ENDMDL
MODEL      279
REMARK 921   NORMALIZED FREE ENERGY PREDICTED BY IDOCK:   -5.46 KCAL/MOL
REMARK 922        TOTAL FREE ENERGY PREDICTED BY IDOCK:  -10.16 KCAL/MOL
REMARK 923 INTER-LIGAND FREE ENERGY PREDICTED BY IDOCK:   -8.11 KCAL/MOL
REMARK 924 INTRA-LIGAND FREE ENERGY PREDICTED BY IDOCK:   -2.05 KCAL/MOL
REMARK 927      BINDING AFFINITY PREDICTED BY RF-SCORE:    0.00 PKD
ROOT
HETATM    1  C   UNL     1     -11.604   9.867  71.701  1.00  0.00    -0.268 C  
HETATM    2  C   UNL     1     -12.676  10.752  71.036  1.00  0.00    -0.415 C  
HETATM    3  C   UNL     1     -12.136  11.511  69.646  1.00  0.00    -0.296 C  
HETATM    4  N   UNL     1     -13.070  11.793  72.030  1.00  0.00    -0.432 NA 
HETATM    5  C   UNL     1     -13.909   9.823  70.860  1.00  0.00     0.126 C  
HETATM    6  H2  UNL     1     -12.275  12.327  72.384  1.00  0.00     0.000 HD 
HETATM    7  N   UNL     1     -11.510  12.755  69.790  1.00  0.00    -0.492 N  
HETATM    8  H1  UNL     1     -13.780  12.379  71.590  1.00  0.00     0.000 HD 
HETATM    9  O   UNL     1     -12.244  10.979  68.541  1.00  0.00    -0.582 OA 
HETATM   10  H   UNL     1     -11.614  13.140  70.728  1.00  0.00     0.000 HD 
ENDROOT
BRANCH   7  11
HETATM   11  C   UNL     1     -10.687  13.694  68.839  1.00  0.00    -0.212 C  
BRANCH  11  12
HETATM   12  C   UNL     1     -11.273  14.989  68.107  1.00  0.00    -0.316 C  
BRANCH  12  13
HETATM   13  C   UNL     1     -10.461  16.372  68.135  1.00  0.00    -0.302 A  
HETATM   14  C   UNL     1     -10.872  17.625  67.720  1.00  0.00    -0.234 A  
HETATM   15  C   UNL     1      -6.799  16.303  69.511  1.00  0.00    -0.188 A  
HETATM   16  C   UNL     1      -6.412  17.549  69.024  1.00  0.00    -0.227 A  
HETATM   17  C   UNL     1      -7.349  18.368  68.395  1.00  0.00    -0.289 A  
HETATM   18  N   UNL     1      -9.797  18.512  67.759  1.00  0.00    -0.300 NA 
HETATM   19  C   UNL     1      -8.109  15.821  69.308  1.00  0.00    -0.241 A  
HETATM   20  C   UNL     1      -9.074  16.596  68.612  1.00  0.00    -0.245 A  
HETATM   21  C   UNL     1      -8.674  17.880  68.238  1.00  0.00    -0.275 A  
HETATM   22  H   UNL     1      -9.838  19.489  67.473  1.00  0.00     0.000 HD 
ENDBRANCH  12  13
ENDBRANCH  11  12
BRANCH  11  23
HETATM   23  C   UNL     1      -9.834  12.774  67.925  1.00  0.00    -0.223 C  
HETATM   24  N   UNL     1      -8.938  11.922  68.541  1.00  0.00    -0.312 N  
HETATM   25  H   UNL     1      -8.955  11.817  69.555  1.00  0.00     0.000 HD 
HETATM   26  O   UNL     1      -9.906  12.878  66.697  1.00  0.00    -0.237 OA 
BRANCH  24  27
HETATM   27  C   UNL     1      -7.977  11.181  67.758  1.00  0.00    -0.116 C  
BRANCH  27  28
HETATM   28  N   UNL     1      -6.655  11.475  68.250  1.00  0.00    -0.060 N  
HETATM   29  O   UNL     1      -6.496  13.548  67.243  1.00  0.00    -0.276 OA 
HETATM   30  C   UNL     1      -6.029  12.660  67.939  1.00  0.00    -0.108 C  
HETATM   31  H   UNL     1      -6.176  10.793  68.838  1.00  0.00     0.000 HD 
ENDBRANCH  27  28
BRANCH  27  32
HETATM   32  C   UNL     1      -8.253   9.686  67.488  1.00  0.00    -0.114 C  
BRANCH  32  33
HETATM   33  C   UNL     1      -8.821   8.636  68.430  1.00  0.00    -0.142 A  
HETATM   34  C   UNL     1      -9.566   7.159  70.034  1.00  0.00    -0.164 A  
HETATM   35  H   UNL     1     -10.668   5.993  68.653  1.00  0.00     0.000 HD 
HETATM   36  C   UNL     1      -9.780   6.536  71.273  1.00  0.00    -0.186 A  
HETATM   37  C   UNL     1      -9.635   7.659  67.862  1.00  0.00    -0.144 A  
HETATM   38  C   UNL     1      -9.136   7.070  72.383  1.00  0.00    -0.147 A  
HETATM   39  N   UNL     1     -10.062   6.797  68.819  1.00  0.00    -0.154 NA 
HETATM   40  C   UNL     1      -8.307   8.182  72.243  1.00  0.00    -0.214 A  
HETATM   41  C   UNL     1      -8.113   8.804  70.991  1.00  0.00    -0.186 A  
HETATM   42  C   UNL     1      -8.757   8.297  69.842  1.00  0.00    -0.134 A  
ENDBRANCH  32  33
ENDBRANCH  27  32
ENDBRANCH  24  27
ENDBRANCH  11  23
ENDBRANCH   7  11
TORSDOF 8
ENDMDL
MODEL      280
REMARK 921   NORMALIZED FREE ENERGY PREDICTED BY IDOCK:   -5.43 KCAL/MOL
REMARK 922        TOTAL FREE ENERGY PREDICTED BY IDOCK:  -10.11 KCAL/MOL
REMARK 923 INTER-LIGAND FREE ENERGY PREDICTED BY IDOCK:   -9.04 KCAL/MOL
REMARK 924 INTRA-LIGAND FREE ENERGY PREDICTED BY IDOCK:   -1.07 KCAL/MOL
REMARK 927      BINDING AFFINITY PREDICTED BY RF-SCORE:    0.00 PKD
ROOT
HETATM    1  C   UNL     1     -14.410  14.906  71.284  1.00  0.00    -0.460 C  
HETATM    2  C   UNL     1     -13.050  14.387  71.791  1.00  0.00    -0.354 C  
HETATM    3  C   UNL     1     -11.754  14.953  70.895  1.00  0.00    -0.323 C  
HETATM    4  N   UNL     1     -13.083  12.899  71.701  1.00  0.00    -0.380 NA 
HETATM    5  C   UNL     1     -13.027  14.737  73.305  1.00  0.00    -0.608 C  
HETATM    6  H2  UNL     1     -13.317  12.560  70.767  1.00  0.00     0.000 HD 
HETATM    7  N   UNL     1     -11.373  14.211  69.771  1.00  0.00    -0.383 N  
HETATM    8  H1  UNL     1     -12.183  12.556  72.037  1.00  0.00     0.000 HD 
HETATM    9  O   UNL     1     -11.183  16.003  71.187  1.00  0.00    -0.354 OA 
HETATM   10  H   UNL     1     -11.830  13.301  69.728  1.00  0.00     0.000 HD 
ENDROOT
BRANCH   7  11
HETATM   11  C   UNL     1     -10.403  14.458  68.562  1.00  0.00    -0.248 C  
BRANCH  11  12
HETATM   12  C   UNL     1     -10.727  15.404  67.314  1.00  0.00    -0.307 C  
BRANCH  12  13
HETATM   13  C   UNL     1      -9.627  16.440  66.776  1.00  0.00    -0.263 A  
HETATM   14  C   UNL     1      -8.427  16.177  66.142  1.00  0.00    -0.253 A  
HETATM   15  C   UNL     1     -10.312  20.256  67.305  1.00  0.00    -0.420 A  
HETATM   16  C   UNL     1      -9.020  20.698  67.039  1.00  0.00    -0.317 A  
HETATM   17  C   UNL     1      -8.051  19.791  66.611  1.00  0.00    -0.341 A  
HETATM   18  N   UNL     1      -7.698  17.358  66.001  1.00  0.00    -0.494 NA 
HETATM   19  C   UNL     1     -10.641  18.886  67.223  1.00  0.00    -0.529 A  
HETATM   20  C   UNL     1      -9.666  17.921  66.855  1.00  0.00    -0.309 A  
HETATM   21  C   UNL     1      -8.414  18.422  66.494  1.00  0.00    -0.270 A  
HETATM   22  H   UNL     1      -6.767  17.422  65.591  1.00  0.00     0.000 HD 
ENDBRANCH  12  13
ENDBRANCH  11  12
BRANCH  11  23
HETATM   23  C   UNL     1      -9.797  13.081  68.180  1.00  0.00    -0.228 C  
HETATM   24  N   UNL     1     -10.535  11.956  68.493  1.00  0.00    -0.219 N  
HETATM   25  H   UNL     1     -11.493  12.055  68.829  1.00  0.00     0.000 HD 
HETATM   26  O   UNL     1      -8.663  13.012  67.697  1.00  0.00    -0.166 OA 
BRANCH  24  27
HETATM   27  C   UNL     1      -9.958  10.639  68.347  1.00  0.00    -0.163 C  
BRANCH  27  28
HETATM   28  N   UNL     1      -9.399  10.525  67.025  1.00  0.00    -0.154 N  
HETATM   29  O   UNL     1     -11.351  11.058  65.909  1.00  0.00     0.004 OA 
HETATM   30  C   UNL     1     -10.168  10.753  65.906  1.00  0.00    -0.259 C  
HETATM   31  H   UNL     1      -8.417  10.270  66.915  1.00  0.00     0.000 HD 
ENDBRANCH  27  28
BRANCH  27  32
HETATM   32  C   UNL     1      -9.057  10.108  69.483  1.00  0.00    -0.213 C  
BRANCH  32  33
HETATM   33  C   UNL     1      -9.010   8.716  70.091  1.00  0.00    -0.157 A  
HETATM   34  C   UNL     1      -8.725   6.580  70.909  1.00  0.00    -0.136 A  
HETATM   35  H   UNL     1     -10.589   6.561  71.912  1.00  0.00     0.000 HD 
HETATM   36  C   UNL     1      -8.160   5.325  71.187  1.00  0.00    -0.109 A  
HETATM   37  C   UNL     1     -10.107   8.329  70.856  1.00  0.00    -0.190 A  
HETATM   38  C   UNL     1      -6.927   5.032  70.617  1.00  0.00    -0.045 A  
HETATM   39  N   UNL     1      -9.924   7.069  71.328  1.00  0.00    -0.190 NA 
HETATM   40  C   UNL     1      -6.296   5.966  69.796  1.00  0.00    -0.037 A  
HETATM   41  C   UNL     1      -6.872   7.228  69.537  1.00  0.00    -0.050 A  
HETATM   42  C   UNL     1      -8.119   7.567  70.106  1.00  0.00    -0.119 A  
ENDBRANCH  32  33
ENDBRANCH  27  32
ENDBRANCH  24  27
ENDBRANCH  11  23
ENDBRANCH   7  11
TORSDOF 8
ENDMDL
MODEL      281
REMARK 921   NORMALIZED FREE ENERGY PREDICTED BY IDOCK:   -5.42 KCAL/MOL
REMARK 922        TOTAL FREE ENERGY PREDICTED BY IDOCK:  -10.10 KCAL/MOL
REMARK 923 INTER-LIGAND FREE ENERGY PREDICTED BY IDOCK:   -8.10 KCAL/MOL
REMARK 924 INTRA-LIGAND FREE ENERGY PREDICTED BY IDOCK:   -2.00 KCAL/MOL
REMARK 927      BINDING AFFINITY PREDICTED BY RF-SCORE:    0.00 PKD
ROOT
HETATM    1  C   UNL     1     -11.015  15.142  64.510  1.00  0.00    -0.208 C  
HETATM    2  C   UNL     1     -11.386  13.646  64.480  1.00  0.00    -0.375 C  
HETATM    3  C   UNL     1     -12.179  13.136  65.863  1.00  0.00    -0.436 C  
HETATM    4  N   UNL     1     -10.114  12.878  64.344  1.00  0.00    -0.594 NA 
HETATM    5  C   UNL     1     -12.162  13.453  63.149  1.00  0.00    -0.139 C  
HETATM    6  H2  UNL     1      -9.431  13.106  65.067  1.00  0.00     0.000 HD 
HETATM    7  N   UNL     1     -11.392  12.696  66.934  1.00  0.00    -0.301 N  
HETATM    8  H1  UNL     1     -10.360  11.888  64.324  1.00  0.00     0.000 HD 
HETATM    9  O   UNL     1     -13.405  13.183  65.954  1.00  0.00     0.072 OA 
HETATM   10  H   UNL     1     -10.413  12.573  66.678  1.00  0.00     0.000 HD 
ENDROOT
BRANCH   7  11
HETATM   11  C   UNL     1     -11.671  12.348  68.439  1.00  0.00    -0.336 C  
BRANCH  11  12
HETATM   12  C   UNL     1     -11.462  13.358  69.661  1.00  0.00    -0.274 C  
BRANCH  12  13
HETATM   13  C   UNL     1     -10.963  14.859  69.394  1.00  0.00    -0.284 A  
HETATM   14  C   UNL     1     -11.421  16.036  69.957  1.00  0.00    -0.331 A  
HETATM   15  C   UNL     1      -8.085  15.383  66.796  1.00  0.00    -0.212 A  
HETATM   16  C   UNL     1      -8.246  16.757  66.641  1.00  0.00    -0.296 A  
HETATM   17  C   UNL     1      -9.166  17.441  67.434  1.00  0.00    -0.236 A  
HETATM   18  N   UNL     1     -10.830  17.126  69.318  1.00  0.00    -0.336 NA 
HETATM   19  C   UNL     1      -8.897  14.655  67.691  1.00  0.00    -0.184 A  
HETATM   20  C   UNL     1      -9.893  15.304  68.468  1.00  0.00    -0.210 A  
HETATM   21  C   UNL     1      -9.945  16.695  68.359  1.00  0.00    -0.255 A  
HETATM   22  H   UNL     1     -11.028  18.103  69.531  1.00  0.00     0.000 HD 
ENDBRANCH  12  13
ENDBRANCH  11  12
BRANCH  11  23
HETATM   23  C   UNL     1     -11.106  10.923  68.685  1.00  0.00    -0.252 C  
HETATM   24  N   UNL     1     -10.187  10.773  69.705  1.00  0.00    -0.448 N  
HETATM   25  H   UNL     1     -10.011  11.547  70.346  1.00  0.00     0.000 HD 
HETATM   26  O   UNL     1     -11.413   9.994  67.933  1.00  0.00    -0.210 OA 
BRANCH  24  27
HETATM   27  C   UNL     1      -9.474   9.527  69.870  1.00  0.00    -0.222 C  
BRANCH  27  28
HETATM   28  N   UNL     1     -10.433   8.457  69.970  1.00  0.00    -0.219 N  
HETATM   29  O   UNL     1     -11.151   8.995  72.099  1.00  0.00    -0.350 OA 
HETATM   30  C   UNL     1     -11.200   8.292  71.101  1.00  0.00    -0.258 C  
HETATM   31  H   UNL     1     -10.547   7.811  69.189  1.00  0.00     0.000 HD 
ENDBRANCH  27  28
BRANCH  27  32
HETATM   32  C   UNL     1      -8.276   9.243  68.939  1.00  0.00    -0.111 C  
BRANCH  32  33
HETATM   33  C   UNL     1      -8.273   8.624  67.551  1.00  0.00    -0.110 A  
HETATM   34  C   UNL     1      -8.167   7.889  65.370  1.00  0.00    -0.138 A  
HETATM   35  H   UNL     1      -9.056   6.018  65.806  1.00  0.00     0.000 HD 
HETATM   36  C   UNL     1      -7.910   7.845  63.990  1.00  0.00    -0.138 A  
HETATM   37  C   UNL     1      -8.800   7.340  67.436  1.00  0.00    -0.119 A  
HETATM   38  C   UNL     1      -7.351   8.974  63.403  1.00  0.00    -0.097 A  
HETATM   39  N   UNL     1      -8.731   6.923  66.145  1.00  0.00    -0.142 NA 
HETATM   40  C   UNL     1      -7.071  10.099  64.176  1.00  0.00    -0.100 A  
HETATM   41  C   UNL     1      -7.324  10.121  65.564  1.00  0.00    -0.143 A  
HETATM   42  C   UNL     1      -7.882   8.991  66.200  1.00  0.00    -0.102 A  
ENDBRANCH  32  33
ENDBRANCH  27  32
ENDBRANCH  24  27
ENDBRANCH  11  23
ENDBRANCH   7  11
TORSDOF 8
ENDMDL
MODEL      282
REMARK 921   NORMALIZED FREE ENERGY PREDICTED BY IDOCK:   -5.41 KCAL/MOL
REMARK 922        TOTAL FREE ENERGY PREDICTED BY IDOCK:  -10.09 KCAL/MOL
REMARK 923 INTER-LIGAND FREE ENERGY PREDICTED BY IDOCK:   -7.39 KCAL/MOL
REMARK 924 INTRA-LIGAND FREE ENERGY PREDICTED BY IDOCK:   -2.70 KCAL/MOL
REMARK 927      BINDING AFFINITY PREDICTED BY RF-SCORE:    0.00 PKD
ROOT
HETATM    1  C   UNL     1     -12.062  12.662  66.476  1.00  0.00    -0.296 C  
HETATM    2  C   UNL     1     -11.176  13.473  67.442  1.00  0.00    -0.295 C  
HETATM    3  C   UNL     1      -9.626  12.856  67.589  1.00  0.00    -0.196 C  
HETATM    4  N   UNL     1     -11.835  13.441  68.779  1.00  0.00    -0.338 NA 
HETATM    5  C   UNL     1     -11.272  14.939  66.937  1.00  0.00    -0.343 C  
HETATM    6  H2  UNL     1     -12.023  12.494  69.110  1.00  0.00     0.000 HD 
HETATM    7  N   UNL     1      -9.412  11.874  68.563  1.00  0.00    -0.312 N  
HETATM    8  H1  UNL     1     -11.248  13.978  69.418  1.00  0.00     0.000 HD 
HETATM    9  O   UNL     1      -8.718  13.220  66.843  1.00  0.00    -0.207 OA 
HETATM   10  H   UNL     1     -10.203  11.772  69.198  1.00  0.00     0.000 HD 
ENDROOT
BRANCH   7  11
HETATM   11  C   UNL     1      -8.233  10.895  68.904  1.00  0.00    -0.141 C  
BRANCH  11  12
HETATM   12  C   UNL     1      -7.111  10.426  67.865  1.00  0.00    -0.083 C  
BRANCH  12  13
HETATM   13  C   UNL     1      -7.505   9.517  66.604  1.00  0.00    -0.093 A  
HETATM   14  C   UNL     1      -8.591   9.638  65.756  1.00  0.00    -0.136 A  
HETATM   15  C   UNL     1      -5.167   6.504  65.731  1.00  0.00    -0.017 A  
HETATM   16  C   UNL     1      -6.047   5.850  64.873  1.00  0.00    -0.026 A  
HETATM   17  C   UNL     1      -7.264   6.446  64.543  1.00  0.00    -0.061 A  
HETATM   18  N   UNL     1      -8.646   8.539  64.899  1.00  0.00    -0.328 NA 
HETATM   19  C   UNL     1      -5.520   7.729  66.336  1.00  0.00    -0.025 A  
HETATM   20  C   UNL     1      -6.779   8.335  66.079  1.00  0.00    -0.057 A  
HETATM   21  C   UNL     1      -7.583   7.699  65.131  1.00  0.00    -0.095 A  
HETATM   22  H   UNL     1      -9.372   8.380  64.201  1.00  0.00     0.000 HD 
ENDBRANCH  12  13
ENDBRANCH  11  12
BRANCH  11  23
HETATM   23  C   UNL     1      -8.833   9.747  69.759  1.00  0.00    -0.224 C  
HETATM   24  N   UNL     1     -10.195   9.770  69.985  1.00  0.00    -0.247 N  
HETATM   25  H   UNL     1     -10.780  10.439  69.485  1.00  0.00     0.000 HD 
HETATM   26  O   UNL     1      -8.092   8.907  70.279  1.00  0.00    -0.098 OA 
BRANCH  24  27
HETATM   27  C   UNL     1     -10.796   8.852  70.926  1.00  0.00    -0.248 C  
BRANCH  27  28
HETATM   28  N   UNL     1     -11.608   9.603  71.848  1.00  0.00    -0.244 N  
HETATM   29  O   UNL     1     -12.816  10.721  70.225  1.00  0.00    -0.299 OA 
HETATM   30  C   UNL     1     -12.565  10.484  71.397  1.00  0.00    -0.434 C  
HETATM   31  H   UNL     1     -11.473   9.480  72.851  1.00  0.00     0.000 HD 
ENDBRANCH  27  28
BRANCH  27  32
HETATM   32  C   UNL     1     -11.453   7.569  70.375  1.00  0.00    -0.219 C  
BRANCH  32  33
HETATM   33  C   UNL     1     -10.790   6.337  69.781  1.00  0.00    -0.399 A  
HETATM   34  C   UNL     1      -9.840   4.559  68.665  1.00  0.00    -0.098 A  
HETATM   35  H   UNL     1      -9.248   3.575  70.443  1.00  0.00     0.000 HD 
HETATM   36  C   UNL     1      -9.397   3.719  67.631  1.00  0.00    -0.240 A  
HETATM   37  C   UNL     1     -10.255   5.419  70.680  1.00  0.00    -0.253 A  
HETATM   38  C   UNL     1      -9.685   4.097  66.325  1.00  0.00    -0.219 A  
HETATM   39  N   UNL     1      -9.702   4.377  70.007  1.00  0.00    -0.204 NA 
HETATM   40  C   UNL     1     -10.395   5.271  66.076  1.00  0.00    -0.176 A  
HETATM   41  C   UNL     1     -10.821   6.110  67.128  1.00  0.00    -0.442 A  
HETATM   42  C   UNL     1     -10.541   5.765  68.468  1.00  0.00    -0.299 A  
ENDBRANCH  32  33
ENDBRANCH  27  32
ENDBRANCH  24  27
ENDBRANCH  11  23
ENDBRANCH   7  11
TORSDOF 8
ENDMDL
MODEL      283
REMARK 921   NORMALIZED FREE ENERGY PREDICTED BY IDOCK:   -5.41 KCAL/MOL
REMARK 922        TOTAL FREE ENERGY PREDICTED BY IDOCK:  -10.08 KCAL/MOL
REMARK 923 INTER-LIGAND FREE ENERGY PREDICTED BY IDOCK:   -8.14 KCAL/MOL
REMARK 924 INTRA-LIGAND FREE ENERGY PREDICTED BY IDOCK:   -1.94 KCAL/MOL
REMARK 927      BINDING AFFINITY PREDICTED BY RF-SCORE:    0.00 PKD
ROOT
HETATM    1  C   UNL     1     -11.343   6.456  67.365  1.00  0.00    -0.092 C  
HETATM    2  C   UNL     1      -9.839   6.345  67.045  1.00  0.00    -0.154 C  
HETATM    3  C   UNL     1      -8.858   6.727  68.346  1.00  0.00    -0.122 C  
HETATM    4  N   UNL     1      -9.552   7.295  65.931  1.00  0.00    -0.388 NA 
HETATM    5  C   UNL     1      -9.659   4.916  66.462  1.00  0.00    -0.176 C  
HETATM    6  H2  UNL     1      -9.848   8.251  66.136  1.00  0.00     0.000 HD 
HETATM    7  N   UNL     1      -8.501   8.070  68.514  1.00  0.00    -0.127 N  
HETATM    8  H1  UNL     1      -8.557   7.221  65.720  1.00  0.00     0.000 HD 
HETATM    9  O   UNL     1      -8.498   5.869  69.151  1.00  0.00    -0.111 OA 
HETATM   10  H   UNL     1      -8.745   8.644  67.707  1.00  0.00     0.000 HD 
ENDROOT
BRANCH   7  11
HETATM   11  C   UNL     1      -7.811   8.895  69.657  1.00  0.00    -0.090 C  
BRANCH  11  12
HETATM   12  C   UNL     1      -8.224   8.832  71.201  1.00  0.00    -0.204 C  
BRANCH  12  13
HETATM   13  C   UNL     1      -9.615   8.166  71.641  1.00  0.00    -0.237 A  
HETATM   14  C   UNL     1      -9.839   6.927  72.210  1.00  0.00    -0.150 A  
HETATM   15  C   UNL     1     -12.887  10.225  71.039  1.00  0.00    -0.490 A  
HETATM   16  C   UNL     1     -13.783   9.174  71.214  1.00  0.00    -0.250 A  
HETATM   17  C   UNL     1     -13.314   7.923  71.612  1.00  0.00    -0.374 A  
HETATM   18  N   UNL     1     -11.210   6.676  72.272  1.00  0.00    -0.256 NA 
HETATM   19  C   UNL     1     -11.498  10.025  71.182  1.00  0.00    -0.432 A  
HETATM   20  C   UNL     1     -10.974   8.749  71.520  1.00  0.00    -0.377 A  
HETATM   21  C   UNL     1     -11.914   7.753  71.791  1.00  0.00    -0.296 A  
HETATM   22  H   UNL     1     -11.629   5.816  72.624  1.00  0.00     0.000 HD 
ENDBRANCH  12  13
ENDBRANCH  11  12
BRANCH  11  23
HETATM   23  C   UNL     1      -7.598  10.332  69.111  1.00  0.00    -0.111 C  
HETATM   24  N   UNL     1      -8.403  10.739  68.065  1.00  0.00    -0.117 N  
HETATM   25  H   UNL     1      -9.190  10.158  67.777  1.00  0.00     0.000 HD 
HETATM   26  O   UNL     1      -6.683  11.035  69.550  1.00  0.00    -0.098 OA 
BRANCH  24  27
HETATM   27  C   UNL     1      -8.138  11.982  67.379  1.00  0.00    -0.168 C  
BRANCH  27  28
HETATM   28  N   UNL     1      -7.833  11.692  66.001  1.00  0.00    -0.355 N  
HETATM   29  O   UNL     1      -9.572  10.200  65.695  1.00  0.00    -0.205 OA 
HETATM   30  C   UNL     1      -8.600  10.810  65.274  1.00  0.00    -0.148 C  
HETATM   31  H   UNL     1      -7.036  12.148  65.557  1.00  0.00     0.000 HD 
ENDBRANCH  27  28
BRANCH  27  32
HETATM   32  C   UNL     1      -9.114  13.159  67.595  1.00  0.00    -0.201 C  
BRANCH  32  33
HETATM   33  C   UNL     1      -9.042  14.572  67.040  1.00  0.00    -0.254 A  
HETATM   34  C   UNL     1      -8.786  16.765  66.381  1.00  0.00    -0.302 A  
HETATM   35  H   UNL     1     -10.059  16.559  64.703  1.00  0.00     0.000 HD 
HETATM   36  C   UNL     1      -8.360  18.102  66.340  1.00  0.00    -0.272 A  
HETATM   37  C   UNL     1      -9.779  14.831  65.888  1.00  0.00    -0.323 A  
HETATM   38  C   UNL     1      -7.528  18.545  67.361  1.00  0.00    -0.223 A  
HETATM   39  N   UNL     1      -9.619  16.126  65.515  1.00  0.00    -0.444 NA 
HETATM   40  C   UNL     1      -7.147  17.674  68.382  1.00  0.00    -0.236 A  
HETATM   41  C   UNL     1      -7.574  16.329  68.399  1.00  0.00    -0.166 A  
HETATM   42  C   UNL     1      -8.413  15.839  67.375  1.00  0.00    -0.191 A  
ENDBRANCH  32  33
ENDBRANCH  27  32
ENDBRANCH  24  27
ENDBRANCH  11  23
ENDBRANCH   7  11
TORSDOF 8
ENDMDL
MODEL      284
REMARK 921   NORMALIZED FREE ENERGY PREDICTED BY IDOCK:   -5.40 KCAL/MOL
REMARK 922        TOTAL FREE ENERGY PREDICTED BY IDOCK:  -10.07 KCAL/MOL
REMARK 923 INTER-LIGAND FREE ENERGY PREDICTED BY IDOCK:   -7.94 KCAL/MOL
REMARK 924 INTRA-LIGAND FREE ENERGY PREDICTED BY IDOCK:   -2.13 KCAL/MOL
REMARK 927      BINDING AFFINITY PREDICTED BY RF-SCORE:    0.00 PKD
ROOT
HETATM    1  C   UNL     1      -7.638  13.948  68.408  1.00  0.00    -0.130 C  
HETATM    2  C   UNL     1      -6.470  13.099  68.946  1.00  0.00    -0.097 C  
HETATM    3  C   UNL     1      -6.759  11.452  68.861  1.00  0.00    -0.080 C  
HETATM    4  N   UNL     1      -6.267  13.479  70.374  1.00  0.00    -0.370 NA 
HETATM    5  C   UNL     1      -5.220  13.604  68.173  1.00  0.00    -0.108 C  
HETATM    6  H2  UNL     1      -7.116  13.391  70.934  1.00  0.00     0.000 HD 
HETATM    7  N   UNL     1      -7.408  10.853  69.947  1.00  0.00    -0.355 N  
HETATM    8  H1  UNL     1      -5.494  12.916  70.729  1.00  0.00     0.000 HD 
HETATM    9  O   UNL     1      -6.451  10.797  67.866  1.00  0.00    -0.061 OA 
HETATM   10  H   UNL     1      -7.476  11.473  70.754  1.00  0.00     0.000 HD 
ENDROOT
BRANCH   7  11
HETATM   11  C   UNL     1      -8.055   9.448  70.209  1.00  0.00    -0.164 C  
BRANCH  11  12
HETATM   12  C   UNL     1      -7.328   8.048  69.946  1.00  0.00    -0.066 C  
BRANCH  12  13
HETATM   13  C   UNL     1      -7.300   6.922  71.088  1.00  0.00    -0.078 A  
HETATM   14  C   UNL     1      -6.213   6.415  71.776  1.00  0.00    -0.042 A  
HETATM   15  C   UNL     1     -10.706   5.302  72.128  1.00  0.00    -0.271 A  
HETATM   16  C   UNL     1     -10.173   4.215  72.815  1.00  0.00    -0.228 A  
HETATM   17  C   UNL     1      -8.794   4.119  72.998  1.00  0.00    -0.103 A  
HETATM   18  N   UNL     1      -6.613   5.331  72.557  1.00  0.00    -0.061 NA 
HETATM   19  C   UNL     1      -9.865   6.273  71.544  1.00  0.00    -0.193 A  
HETATM   20  C   UNL     1      -8.452   6.175  71.649  1.00  0.00    -0.130 A  
HETATM   21  C   UNL     1      -7.967   5.130  72.437  1.00  0.00    -0.102 A  
HETATM   22  H   UNL     1      -5.990   4.768  73.134  1.00  0.00     0.000 HD 
ENDBRANCH  12  13
ENDBRANCH  11  12
BRANCH  11  23
HETATM   23  C   UNL     1      -9.514   9.517  69.686  1.00  0.00    -0.199 C  
HETATM   24  N   UNL     1     -10.327  10.506  70.206  1.00  0.00    -0.399 N  
HETATM   25  H   UNL     1      -9.926  11.233  70.797  1.00  0.00     0.000 HD 
HETATM   26  O   UNL     1      -9.936   8.662  68.902  1.00  0.00    -0.179 OA 
BRANCH  24  27
HETATM   27  C   UNL     1     -11.743  10.515  69.917  1.00  0.00    -0.294 C  
BRANCH  27  28
HETATM   28  N   UNL     1     -12.452  10.939  71.097  1.00  0.00    -0.390 N  
HETATM   29  O   UNL     1     -12.732   8.815  71.965  1.00  0.00    -0.338 OA 
HETATM   30  C   UNL     1     -12.886  10.025  72.031  1.00  0.00    -0.389 C  
HETATM   31  H   UNL     1     -12.635  11.931  71.243  1.00  0.00     0.000 HD 
ENDBRANCH  27  28
BRANCH  27  32
HETATM   32  C   UNL     1     -12.215  11.174  68.603  1.00  0.00    -0.012 C  
BRANCH  32  33
HETATM   33  C   UNL     1     -11.731  12.461  67.954  1.00  0.00    -0.421 A  
HETATM   34  C   UNL     1     -11.019  14.514  67.187  1.00  0.00    -0.304 A  
HETATM   35  H   UNL     1     -10.755  13.839  65.198  1.00  0.00     0.000 HD 
HETATM   36  C   UNL     1     -10.647  15.867  67.154  1.00  0.00    -0.316 A  
HETATM   37  C   UNL     1     -11.439  12.406  66.594  1.00  0.00    -0.370 A  
HETATM   38  C   UNL     1     -10.756  16.595  68.333  1.00  0.00    -0.353 A  
HETATM   39  N   UNL     1     -11.024  13.623  66.158  1.00  0.00    -0.283 NA 
HETATM   40  C   UNL     1     -11.228  15.982  69.493  1.00  0.00    -0.348 A  
HETATM   41  C   UNL     1     -11.585  14.616  69.511  1.00  0.00    -0.350 A  
HETATM   42  C   UNL     1     -11.479  13.841  68.336  1.00  0.00    -0.351 A  
ENDBRANCH  32  33
ENDBRANCH  27  32
ENDBRANCH  24  27
ENDBRANCH  11  23
ENDBRANCH   7  11
TORSDOF 8
ENDMDL
MODEL      285
REMARK 921   NORMALIZED FREE ENERGY PREDICTED BY IDOCK:   -5.40 KCAL/MOL
REMARK 922        TOTAL FREE ENERGY PREDICTED BY IDOCK:  -10.07 KCAL/MOL
REMARK 923 INTER-LIGAND FREE ENERGY PREDICTED BY IDOCK:   -7.95 KCAL/MOL
REMARK 924 INTRA-LIGAND FREE ENERGY PREDICTED BY IDOCK:   -2.12 KCAL/MOL
REMARK 927      BINDING AFFINITY PREDICTED BY RF-SCORE:    0.00 PKD
ROOT
HETATM    1  C   UNL     1      -9.033   4.674  74.069  1.00  0.00    -0.109 C  
HETATM    2  C   UNL     1     -10.229   4.203  73.219  1.00  0.00    -0.154 C  
HETATM    3  C   UNL     1      -9.846   3.993  71.603  1.00  0.00    -0.183 C  
HETATM    4  N   UNL     1     -11.289   5.246  73.329  1.00  0.00    -0.471 NA 
HETATM    5  C   UNL     1     -10.770   2.945  73.952  1.00  0.00    -0.281 C  
HETATM    6  H2  UNL     1     -10.960   6.178  73.075  1.00  0.00     0.000 HD 
HETATM    7  N   UNL     1      -9.964   5.104  70.761  1.00  0.00    -0.200 N  
HETATM    8  H1  UNL     1     -12.081   4.934  72.766  1.00  0.00     0.000 HD 
HETATM    9  O   UNL     1      -9.435   2.914  71.176  1.00  0.00    -0.134 OA 
HETATM   10  H   UNL     1     -10.446   5.885  71.206  1.00  0.00     0.000 HD 
ENDROOT
BRANCH   7  11
HETATM   11  C   UNL     1      -9.528   5.426  69.288  1.00  0.00    -0.133 C  
BRANCH  11  12
HETATM   12  C   UNL     1      -8.014   5.454  68.773  1.00  0.00    -0.087 C  
BRANCH  12  13
HETATM   13  C   UNL     1      -7.694   5.508  67.202  1.00  0.00    -0.100 A  
HETATM   14  C   UNL     1      -7.531   4.460  66.316  1.00  0.00    -0.085 A  
HETATM   15  C   UNL     1      -7.263   9.031  65.554  1.00  0.00    -0.085 A  
HETATM   16  C   UNL     1      -6.674   8.593  64.371  1.00  0.00    -0.070 A  
HETATM   17  C   UNL     1      -6.550   7.226  64.123  1.00  0.00    -0.044 A  
HETATM   18  N   UNL     1      -7.093   4.946  65.084  1.00  0.00    -0.062 NA 
HETATM   19  C   UNL     1      -7.667   8.112  66.546  1.00  0.00    -0.093 A  
HETATM   20  C   UNL     1      -7.495   6.714  66.361  1.00  0.00    -0.085 A  
HETATM   21  C   UNL     1      -7.002   6.317  65.117  1.00  0.00    -0.056 A  
HETATM   22  H   UNL     1      -6.872   4.367  64.275  1.00  0.00     0.000 HD 
ENDBRANCH  12  13
ENDBRANCH  11  12
BRANCH  11  23
HETATM   23  C   UNL     1     -10.386   6.629  68.814  1.00  0.00    -0.194 C  
HETATM   24  N   UNL     1     -10.039   7.880  69.287  1.00  0.00    -0.192 N  
HETATM   25  H   UNL     1      -9.170   8.002  69.807  1.00  0.00     0.000 HD 
HETATM   26  O   UNL     1     -11.385   6.444  68.114  1.00  0.00    -0.266 OA 
BRANCH  24  27
HETATM   27  C   UNL     1     -10.899   9.016  69.050  1.00  0.00    -0.067 C  
BRANCH  27  28
HETATM   28  N   UNL     1     -11.714   9.230  70.219  1.00  0.00    -0.461 N  
HETATM   29  O   UNL     1      -9.944   9.432  71.692  1.00  0.00    -0.233 OA 
HETATM   30  C   UNL     1     -11.143   9.424  71.456  1.00  0.00    -0.376 C  
HETATM   31  H   UNL     1     -12.729   9.237  70.128  1.00  0.00     0.000 HD 
ENDBRANCH  27  28
BRANCH  27  32
HETATM   32  C   UNL     1     -10.273  10.293  68.451  1.00  0.00    -0.189 C  
BRANCH  32  33
HETATM   33  C   UNL     1     -10.873  11.273  67.455  1.00  0.00    -0.292 A  
HETATM   34  C   UNL     1     -11.675  12.630  65.774  1.00  0.00    -0.419 A  
HETATM   35  H   UNL     1     -12.709  13.910  67.106  1.00  0.00     0.000 HD 
HETATM   36  C   UNL     1     -11.937  13.158  64.500  1.00  0.00    -0.442 A  
HETATM   37  C   UNL     1     -11.655  12.299  67.979  1.00  0.00    -0.349 A  
HETATM   38  C   UNL     1     -11.345  12.533  63.409  1.00  0.00    -0.489 A  
HETATM   39  N   UNL     1     -12.117  13.090  66.977  1.00  0.00    -0.361 NA 
HETATM   40  C   UNL     1     -10.519  11.426  63.600  1.00  0.00    -0.472 A  
HETATM   41  C   UNL     1     -10.276  10.901  64.887  1.00  0.00    -0.381 A  
HETATM   42  C   UNL     1     -10.867  11.502  66.020  1.00  0.00    -0.330 A  
ENDBRANCH  32  33
ENDBRANCH  27  32
ENDBRANCH  24  27
ENDBRANCH  11  23
ENDBRANCH   7  11
TORSDOF 8
ENDMDL
MODEL      286
REMARK 921   NORMALIZED FREE ENERGY PREDICTED BY IDOCK:   -5.39 KCAL/MOL
REMARK 922        TOTAL FREE ENERGY PREDICTED BY IDOCK:  -10.05 KCAL/MOL
REMARK 923 INTER-LIGAND FREE ENERGY PREDICTED BY IDOCK:   -7.51 KCAL/MOL
REMARK 924 INTRA-LIGAND FREE ENERGY PREDICTED BY IDOCK:   -2.54 KCAL/MOL
REMARK 927      BINDING AFFINITY PREDICTED BY RF-SCORE:    0.00 PKD
ROOT
HETATM    1  C   UNL     1      -6.257   9.067  71.581  1.00  0.00    -0.076 C  
HETATM    2  C   UNL     1      -7.523   8.216  71.364  1.00  0.00    -0.078 C  
HETATM    3  C   UNL     1      -7.590   7.511  69.847  1.00  0.00    -0.093 C  
HETATM    4  N   UNL     1      -8.698   9.120  71.526  1.00  0.00    -0.336 NA 
HETATM    5  C   UNL     1      -7.555   7.231  72.566  1.00  0.00    -0.088 C  
HETATM    6  H2  UNL     1      -8.658   9.939  70.919  1.00  0.00     0.000 HD 
HETATM    7  N   UNL     1      -8.176   8.253  68.815  1.00  0.00    -0.116 N  
HETATM    8  H1  UNL     1      -9.536   8.556  71.382  1.00  0.00     0.000 HD 
HETATM    9  O   UNL     1      -7.106   6.400  69.634  1.00  0.00    -0.068 OA 
HETATM   10  H   UNL     1      -8.658   9.085  69.155  1.00  0.00     0.000 HD 
ENDROOT
BRANCH   7  11
HETATM   11  C   UNL     1      -8.262   8.100  67.256  1.00  0.00    -0.121 C  
BRANCH  11  12
HETATM   12  C   UNL     1      -8.589   9.292  66.240  1.00  0.00    -0.139 C  
BRANCH  12  13
HETATM   13  C   UNL     1      -9.734  10.360  66.588  1.00  0.00    -0.236 A  
HETATM   14  C   UNL     1     -10.366  10.589  67.796  1.00  0.00    -0.212 A  
HETATM   15  C   UNL     1     -11.010  12.664  63.694  1.00  0.00    -0.464 A  
HETATM   16  C   UNL     1     -12.160  13.117  64.334  1.00  0.00    -0.471 A  
HETATM   17  C   UNL     1     -12.403  12.758  65.659  1.00  0.00    -0.444 A  
HETATM   18  N   UNL     1     -11.418  11.487  67.616  1.00  0.00    -0.437 NA 
HETATM   19  C   UNL     1     -10.121  11.780  64.342  1.00  0.00    -0.319 A  
HETATM   20  C   UNL     1     -10.368  11.337  65.668  1.00  0.00    -0.310 A  
HETATM   21  C   UNL     1     -11.474  11.901  66.307  1.00  0.00    -0.301 A  
HETATM   22  H   UNL     1     -12.054  11.792  68.351  1.00  0.00     0.000 HD 
ENDBRANCH  12  13
ENDBRANCH  11  12
BRANCH  11  23
HETATM   23  C   UNL     1      -9.042   6.788  66.973  1.00  0.00    -0.131 C  
HETATM   24  N   UNL     1      -8.334   5.604  67.036  1.00  0.00    -0.108 N  
HETATM   25  H   UNL     1      -7.379   5.603  67.393  1.00  0.00     0.000 HD 
HETATM   26  O   UNL     1     -10.225   6.831  66.623  1.00  0.00    -0.197 OA 
BRANCH  24  27
HETATM   27  C   UNL     1      -8.938   4.366  66.598  1.00  0.00    -0.117 C  
BRANCH  27  28
HETATM   28  N   UNL     1      -8.043   3.717  65.675  1.00  0.00    -0.093 N  
HETATM   29  O   UNL     1      -8.393   5.203  63.940  1.00  0.00    -0.126 OA 
HETATM   30  C   UNL     1      -7.850   4.212  64.405  1.00  0.00    -0.085 C  
HETATM   31  H   UNL     1      -7.544   2.877  65.967  1.00  0.00     0.000 HD 
ENDBRANCH  27  28
BRANCH  27  32
HETATM   32  C   UNL     1      -9.557   3.439  67.666  1.00  0.00    -0.160 C  
BRANCH  32  33
HETATM   33  C   UNL     1      -9.642   3.641  69.170  1.00  0.00    -0.172 A  
HETATM   34  C   UNL     1      -9.890   4.151  71.404  1.00  0.00    -0.184 A  
HETATM   35  H   UNL     1      -8.877   2.412  72.060  1.00  0.00     0.000 HD 
HETATM   36  C   UNL     1     -10.257   4.814  72.586  1.00  0.00    -0.242 A  
HETATM   37  C   UNL     1      -9.064   2.657  69.969  1.00  0.00    -0.118 A  
HETATM   38  C   UNL     1     -10.916   6.031  72.463  1.00  0.00    -0.300 A  
HETATM   39  N   UNL     1      -9.217   2.974  71.280  1.00  0.00    -0.111 NA 
HETATM   40  C   UNL     1     -11.188   6.557  71.201  1.00  0.00    -0.353 A  
HETATM   41  C   UNL     1     -10.823   5.870  70.023  1.00  0.00    -0.421 A  
HETATM   42  C   UNL     1     -10.160   4.626  70.105  1.00  0.00    -0.283 A  
ENDBRANCH  32  33
ENDBRANCH  27  32
ENDBRANCH  24  27
ENDBRANCH  11  23
ENDBRANCH   7  11
TORSDOF 8
ENDMDL
MODEL      287
REMARK 921   NORMALIZED FREE ENERGY PREDICTED BY IDOCK:   -5.39 KCAL/MOL
REMARK 922        TOTAL FREE ENERGY PREDICTED BY IDOCK:  -10.05 KCAL/MOL
REMARK 923 INTER-LIGAND FREE ENERGY PREDICTED BY IDOCK:   -8.23 KCAL/MOL
REMARK 924 INTRA-LIGAND FREE ENERGY PREDICTED BY IDOCK:   -1.82 KCAL/MOL
REMARK 927      BINDING AFFINITY PREDICTED BY RF-SCORE:    0.00 PKD
ROOT
HETATM    1  C   UNL     1     -10.160   5.803  74.002  1.00  0.00    -0.246 C  
HETATM    2  C   UNL     1     -10.894   5.101  72.842  1.00  0.00    -0.268 C  
HETATM    3  C   UNL     1     -10.110   5.265  71.372  1.00  0.00    -0.203 C  
HETATM    4  N   UNL     1     -12.247   5.719  72.736  1.00  0.00    -0.517 NA 
HETATM    5  C   UNL     1     -11.112   3.642  73.330  1.00  0.00    -0.297 C  
HETATM    6  H2  UNL     1     -12.216   6.734  72.633  1.00  0.00     0.000 HD 
HETATM    7  N   UNL     1     -10.417   6.389  70.597  1.00  0.00    -0.211 N  
HETATM    8  H1  UNL     1     -12.733   5.254  71.968  1.00  0.00     0.000 HD 
HETATM    9  O   UNL     1      -9.264   4.451  71.002  1.00  0.00    -0.122 OA 
HETATM   10  H   UNL     1     -11.227   6.899  70.949  1.00  0.00     0.000 HD 
ENDROOT
BRANCH   7  11
HETATM   11  C   UNL     1      -9.801   7.047  69.312  1.00  0.00    -0.159 C  
BRANCH  11  12
HETATM   12  C   UNL     1      -8.235   7.223  69.040  1.00  0.00    -0.125 C  
BRANCH  12  13
HETATM   13  C   UNL     1      -7.660   8.616  68.491  1.00  0.00    -0.095 A  
HETATM   14  C   UNL     1      -7.696   9.119  67.204  1.00  0.00    -0.098 A  
HETATM   15  C   UNL     1      -5.868  10.977  71.046  1.00  0.00     0.072 A  
HETATM   16  C   UNL     1      -5.263  11.810  70.109  1.00  0.00    -0.089 A  
HETATM   17  C   UNL     1      -5.540  11.645  68.753  1.00  0.00    -0.046 A  
HETATM   18  N   UNL     1      -6.930  10.282  67.131  1.00  0.00    -0.086 NA 
HETATM   19  C   UNL     1      -6.701   9.913  70.638  1.00  0.00    -0.097 A  
HETATM   20  C   UNL     1      -6.954   9.669  69.262  1.00  0.00    -0.055 A  
HETATM   21  C   UNL     1      -6.414  10.593  68.366  1.00  0.00    -0.054 A  
HETATM   22  H   UNL     1      -6.774  10.824  66.282  1.00  0.00     0.000 HD 
ENDBRANCH  12  13
ENDBRANCH  11  12
BRANCH  11  23
HETATM   23  C   UNL     1     -10.650   8.308  68.999  1.00  0.00    -0.150 C  
HETATM   24  N   UNL     1     -11.201   8.983  70.071  1.00  0.00    -0.392 N  
HETATM   25  H   UNL     1     -10.932   8.729  71.021  1.00  0.00     0.000 HD 
HETATM   26  O   UNL     1     -10.882   8.628  67.829  1.00  0.00    -0.158 OA 
BRANCH  24  27
HETATM   27  C   UNL     1     -12.156  10.045  69.853  1.00  0.00     0.046 C  
BRANCH  27  28
HETATM   28  N   UNL     1     -13.386   9.703  70.521  1.00  0.00    -0.493 N  
HETATM   29  O   UNL     1     -12.382   8.887  72.437  1.00  0.00    -0.367 OA 
HETATM   30  C   UNL     1     -13.380   9.146  71.780  1.00  0.00    -0.406 C  
HETATM   31  H   UNL     1     -14.275   9.876  70.054  1.00  0.00     0.000 HD 
ENDBRANCH  27  28
BRANCH  27  32
HETATM   32  C   UNL     1     -11.687  11.501  70.058  1.00  0.00    -0.414 C  
BRANCH  32  33
HETATM   33  C   UNL     1     -11.687  12.651  69.064  1.00  0.00    -0.367 A  
HETATM   34  C   UNL     1     -11.669  14.229  67.385  1.00  0.00    -0.394 A  
HETATM   35  H   UNL     1     -11.813  15.863  68.723  1.00  0.00     0.000 HD 
HETATM   36  C   UNL     1     -11.636  14.817  66.111  1.00  0.00    -0.292 A  
HETATM   37  C   UNL     1     -11.776  13.936  69.593  1.00  0.00    -0.311 A  
HETATM   38  C   UNL     1     -11.502  13.973  65.015  1.00  0.00    -0.344 A  
HETATM   39  N   UNL     1     -11.762  14.853  68.591  1.00  0.00    -0.331 NA 
HETATM   40  C   UNL     1     -11.401  12.595  65.200  1.00  0.00    -0.343 A  
HETATM   41  C   UNL     1     -11.449  12.020  66.488  1.00  0.00    -0.413 A  
HETATM   42  C   UNL     1     -11.594  12.843  67.626  1.00  0.00    -0.406 A  
ENDBRANCH  32  33
ENDBRANCH  27  32
ENDBRANCH  24  27
ENDBRANCH  11  23
ENDBRANCH   7  11
TORSDOF 8
ENDMDL
MODEL      288
REMARK 921   NORMALIZED FREE ENERGY PREDICTED BY IDOCK:   -5.38 KCAL/MOL
REMARK 922        TOTAL FREE ENERGY PREDICTED BY IDOCK:  -10.04 KCAL/MOL
REMARK 923 INTER-LIGAND FREE ENERGY PREDICTED BY IDOCK:   -7.97 KCAL/MOL
REMARK 924 INTRA-LIGAND FREE ENERGY PREDICTED BY IDOCK:   -2.07 KCAL/MOL
REMARK 927      BINDING AFFINITY PREDICTED BY RF-SCORE:    0.00 PKD
ROOT
HETATM    1  C   UNL     1      -7.157   7.212  71.579  1.00  0.00    -0.069 C  
HETATM    2  C   UNL     1      -8.584   7.554  72.051  1.00  0.00    -0.107 C  
HETATM    3  C   UNL     1      -9.550   8.174  70.833  1.00  0.00    -0.162 C  
HETATM    4  N   UNL     1      -8.460   8.574  73.132  1.00  0.00    -0.389 NA 
HETATM    5  C   UNL     1      -9.103   6.255  72.728  1.00  0.00    -0.131 C  
HETATM    6  H2  UNL     1      -7.926   9.396  72.847  1.00  0.00     0.000 HD 
HETATM    7  N   UNL     1      -9.521   9.558  70.626  1.00  0.00    -0.273 N  
HETATM    8  H1  UNL     1      -9.405   8.800  73.444  1.00  0.00     0.000 HD 
HETATM    9  O   UNL     1     -10.229   7.439  70.116  1.00  0.00    -0.199 OA 
HETATM   10  H   UNL     1      -9.035  10.056  71.372  1.00  0.00     0.000 HD 
ENDROOT
BRANCH   7  11
HETATM   11  C   UNL     1     -10.065  10.520  69.512  1.00  0.00    -0.178 C  
BRANCH  11  12
HETATM   12  C   UNL     1     -11.578  11.024  69.404  1.00  0.00    -0.383 C  
BRANCH  12  13
HETATM   13  C   UNL     1     -11.918  12.590  69.478  1.00  0.00    -0.329 A  
HETATM   14  C   UNL     1     -11.709  13.567  68.522  1.00  0.00    -0.357 A  
HETATM   15  C   UNL     1     -13.527  13.948  72.776  1.00  0.00    -0.547 A  
HETATM   16  C   UNL     1     -13.305  15.299  72.528  1.00  0.00    -0.553 A  
HETATM   17  C   UNL     1     -12.767  15.701  71.306  1.00  0.00    -0.537 A  
HETATM   18  N   UNL     1     -11.988  14.822  69.061  1.00  0.00    -0.460 NA 
HETATM   19  C   UNL     1     -13.142  12.966  71.838  1.00  0.00    -0.474 A  
HETATM   20  C   UNL     1     -12.529  13.330  70.610  1.00  0.00    -0.373 A  
HETATM   21  C   UNL     1     -12.426  14.699  70.358  1.00  0.00    -0.352 A  
HETATM   22  H   UNL     1     -11.882  15.706  68.564  1.00  0.00     0.000 HD 
ENDBRANCH  12  13
ENDBRANCH  11  12
BRANCH  11  23
HETATM   23  C   UNL     1      -9.452  10.045  68.167  1.00  0.00    -0.138 C  
HETATM   24  N   UNL     1     -10.276   9.345  67.308  1.00  0.00    -0.228 N  
HETATM   25  H   UNL     1     -11.274   9.278  67.505  1.00  0.00     0.000 HD 
HETATM   26  O   UNL     1      -8.253  10.221  67.933  1.00  0.00    -0.109 OA 
BRANCH  24  27
HETATM   27  C   UNL     1      -9.731   8.705  66.132  1.00  0.00    -0.222 C  
BRANCH  27  28
HETATM   28  N   UNL     1      -8.860   9.636  65.463  1.00  0.00    -0.160 N  
HETATM   29  O   UNL     1     -10.540  10.729  64.311  1.00  0.00    -0.350 OA 
HETATM   30  C   UNL     1      -9.361  10.583  64.598  1.00  0.00    -0.248 C  
HETATM   31  H   UNL     1      -7.855   9.594  65.632  1.00  0.00     0.000 HD 
ENDBRANCH  27  28
BRANCH  27  32
HETATM   32  C   UNL     1      -9.169   7.274  66.273  1.00  0.00    -0.175 C  
BRANCH  32  33
HETATM   33  C   UNL     1      -7.928   6.807  67.014  1.00  0.00    -0.109 A  
HETATM   34  C   UNL     1      -6.185   5.935  68.245  1.00  0.00    -0.029 A  
HETATM   35  H   UNL     1      -4.756   7.268  67.432  1.00  0.00     0.000 HD 
HETATM   36  C   UNL     1      -5.455   5.135  69.138  1.00  0.00    -0.008 A  
HETATM   37  C   UNL     1      -6.738   7.472  66.727  1.00  0.00    -0.062 A  
HETATM   38  C   UNL     1      -6.153   4.175  69.862  1.00  0.00    -0.023 A  
HETATM   39  N   UNL     1      -5.724   6.948  67.462  1.00  0.00    -0.019 NA 
HETATM   40  C   UNL     1      -7.530   4.035  69.693  1.00  0.00    -0.053 A  
HETATM   41  C   UNL     1      -8.246   4.840  68.781  1.00  0.00    -0.083 A  
HETATM   42  C   UNL     1      -7.572   5.820  68.021  1.00  0.00    -0.085 A  
ENDBRANCH  32  33
ENDBRANCH  27  32
ENDBRANCH  24  27
ENDBRANCH  11  23
ENDBRANCH   7  11
TORSDOF 8
ENDMDL
MODEL      289
REMARK 921   NORMALIZED FREE ENERGY PREDICTED BY IDOCK:   -5.38 KCAL/MOL
REMARK 922        TOTAL FREE ENERGY PREDICTED BY IDOCK:  -10.04 KCAL/MOL
REMARK 923 INTER-LIGAND FREE ENERGY PREDICTED BY IDOCK:   -7.57 KCAL/MOL
REMARK 924 INTRA-LIGAND FREE ENERGY PREDICTED BY IDOCK:   -2.46 KCAL/MOL
REMARK 927      BINDING AFFINITY PREDICTED BY RF-SCORE:    0.00 PKD
ROOT
HETATM    1  C   UNL     1     -10.245   4.869  67.918  1.00  0.00    -0.106 C  
HETATM    2  C   UNL     1      -9.829   4.705  66.443  1.00  0.00    -0.225 C  
HETATM    3  C   UNL     1      -8.726   5.859  65.938  1.00  0.00    -0.150 C  
HETATM    4  N   UNL     1     -11.066   4.828  65.619  1.00  0.00    -0.926 NA 
HETATM    5  C   UNL     1      -9.362   3.228  66.321  1.00  0.00    -0.135 C  
HETATM    6  H2  UNL     1     -11.579   5.692  65.795  1.00  0.00     0.000 HD 
HETATM    7  N   UNL     1      -9.235   7.062  65.434  1.00  0.00    -0.270 N  
HETATM    8  H1  UNL     1     -10.790   4.719  64.642  1.00  0.00     0.000 HD 
HETATM    9  O   UNL     1      -7.514   5.676  66.042  1.00  0.00    -0.079 OA 
HETATM   10  H   UNL     1     -10.241   7.025  65.271  1.00  0.00     0.000 HD 
ENDROOT
BRANCH   7  11
HETATM   11  C   UNL     1      -8.613   8.454  65.062  1.00  0.00    -0.106 C  
BRANCH  11  12
HETATM   12  C   UNL     1      -7.070   8.836  65.231  1.00  0.00    -0.083 C  
BRANCH  12  13
HETATM   13  C   UNL     1      -6.489   9.240  66.671  1.00  0.00    -0.067 A  
HETATM   14  C   UNL     1      -5.871   8.436  67.610  1.00  0.00    -0.043 A  
HETATM   15  C   UNL     1      -6.842  12.971  67.793  1.00  0.00    -0.144 A  
HETATM   16  C   UNL     1      -6.561  12.770  69.141  1.00  0.00    -0.101 A  
HETATM   17  C   UNL     1      -6.176  11.506  69.587  1.00  0.00    -0.124 A  
HETATM   18  N   UNL     1      -5.678   9.153  68.791  1.00  0.00    -0.040 NA 
HETATM   19  C   UNL     1      -6.821  11.896  66.880  1.00  0.00    -0.075 A  
HETATM   20  C   UNL     1      -6.501  10.580  67.307  1.00  0.00    -0.071 A  
HETATM   21  C   UNL     1      -6.120  10.446  68.643  1.00  0.00    -0.043 A  
HETATM   22  H   UNL     1      -5.268   8.772  69.643  1.00  0.00     0.000 HD 
ENDBRANCH  12  13
ENDBRANCH  11  12
BRANCH  11  23
HETATM   23  C   UNL     1      -9.600   9.539  65.570  1.00  0.00    -0.279 C  
HETATM   24  N   UNL     1      -9.788   9.635  66.935  1.00  0.00    -0.188 N  
HETATM   25  H   UNL     1      -9.189   9.105  67.567  1.00  0.00     0.000 HD 
HETATM   26  O   UNL     1     -10.245  10.219  64.767  1.00  0.00    -0.329 OA 
BRANCH  24  27
HETATM   27  C   UNL     1     -10.827  10.483  67.472  1.00  0.00    -0.301 C  
BRANCH  27  28
HETATM   28  N   UNL     1     -11.511   9.766  68.518  1.00  0.00    -0.496 N  
HETATM   29  O   UNL     1      -9.626   9.383  69.798  1.00  0.00    -0.176 OA 
HETATM   30  C   UNL     1     -10.828   9.276  69.608  1.00  0.00    -0.212 C  
HETATM   31  H   UNL     1     -12.518   9.620  68.450  1.00  0.00     0.000 HD 
ENDBRANCH  27  28
BRANCH  27  32
HETATM   32  C   UNL     1     -10.474  11.947  67.810  1.00  0.00    -0.224 C  
BRANCH  32  33
HETATM   33  C   UNL     1     -10.713  13.200  66.984  1.00  0.00    -0.270 A  
HETATM   34  C   UNL     1     -10.923  15.212  65.880  1.00  0.00    -0.339 A  
HETATM   35  H   UNL     1     -12.302  14.454  64.464  1.00  0.00     0.000 HD 
HETATM   36  C   UNL     1     -10.751  16.558  65.521  1.00  0.00    -0.267 A  
HETATM   37  C   UNL     1     -11.597  13.087  65.914  1.00  0.00    -0.363 A  
HETATM   38  C   UNL     1      -9.913  17.334  66.313  1.00  0.00    -0.311 A  
HETATM   39  N   UNL     1     -11.711  14.280  65.277  1.00  0.00    -0.345 NA 
HETATM   40  C   UNL     1      -9.281  16.774  67.422  1.00  0.00    -0.220 A  
HETATM   41  C   UNL     1      -9.456  15.415  67.761  1.00  0.00    -0.204 A  
HETATM   42  C   UNL     1     -10.292  14.591  66.976  1.00  0.00    -0.263 A  
ENDBRANCH  32  33
ENDBRANCH  27  32
ENDBRANCH  24  27
ENDBRANCH  11  23
ENDBRANCH   7  11
TORSDOF 8
ENDMDL
MODEL      290
REMARK 921   NORMALIZED FREE ENERGY PREDICTED BY IDOCK:   -5.37 KCAL/MOL
REMARK 922        TOTAL FREE ENERGY PREDICTED BY IDOCK:  -10.03 KCAL/MOL
REMARK 923 INTER-LIGAND FREE ENERGY PREDICTED BY IDOCK:   -8.80 KCAL/MOL
REMARK 924 INTRA-LIGAND FREE ENERGY PREDICTED BY IDOCK:   -1.22 KCAL/MOL
REMARK 927      BINDING AFFINITY PREDICTED BY RF-SCORE:    0.00 PKD
ROOT
HETATM    1  C   UNL     1     -13.508   9.522  70.580  1.00  0.00     0.155 C  
HETATM    2  C   UNL     1     -12.332  10.516  70.628  1.00  0.00    -0.356 C  
HETATM    3  C   UNL     1     -11.781  10.958  69.110  1.00  0.00    -0.326 C  
HETATM    4  N   UNL     1     -11.220   9.852  71.368  1.00  0.00    -0.302 NA 
HETATM    5  C   UNL     1     -12.828  11.681  71.529  1.00  0.00    -0.469 C  
HETATM    6  H2  UNL     1     -10.963   8.946  70.973  1.00  0.00     0.000 HD 
HETATM    7  N   UNL     1     -10.796  10.156  68.521  1.00  0.00    -0.229 N  
HETATM    8  H1  UNL     1     -10.442  10.510  71.399  1.00  0.00     0.000 HD 
HETATM    9  O   UNL     1     -12.252  11.925  68.513  1.00  0.00    -0.391 OA 
HETATM   10  H   UNL     1     -10.398   9.481  69.174  1.00  0.00     0.000 HD 
ENDROOT
BRANCH   7  11
HETATM   11  C   UNL     1     -10.163  10.057  67.089  1.00  0.00    -0.228 C  
BRANCH  11  12
HETATM   12  C   UNL     1     -10.905  10.476  65.735  1.00  0.00     0.049 C  
BRANCH  12  13
HETATM   13  C   UNL     1     -11.355  11.996  65.496  1.00  0.00    -0.381 A  
HETATM   14  C   UNL     1     -12.531  12.474  64.949  1.00  0.00    -0.450 A  
HETATM   15  C   UNL     1      -8.851  14.819  66.532  1.00  0.00    -0.223 A  
HETATM   16  C   UNL     1      -9.472  15.857  65.843  1.00  0.00    -0.372 A  
HETATM   17  C   UNL     1     -10.684  15.629  65.192  1.00  0.00    -0.463 A  
HETATM   18  N   UNL     1     -12.441  13.854  64.766  1.00  0.00    -0.600 NA 
HETATM   19  C   UNL     1      -9.390  13.515  66.517  1.00  0.00    -0.227 A  
HETATM   20  C   UNL     1     -10.587  13.227  65.809  1.00  0.00    -0.291 A  
HETATM   21  C   UNL     1     -11.231  14.318  65.225  1.00  0.00    -0.337 A  
HETATM   22  H   UNL     1     -13.168  14.435  64.351  1.00  0.00     0.000 HD 
ENDBRANCH  12  13
ENDBRANCH  11  12
BRANCH  11  23
HETATM   23  C   UNL     1      -9.421   8.695  67.016  1.00  0.00    -0.171 C  
HETATM   24  N   UNL     1     -10.196   7.553  66.974  1.00  0.00    -0.269 N  
HETATM   25  H   UNL     1     -11.206   7.630  66.853  1.00  0.00     0.000 HD 
HETATM   26  O   UNL     1      -8.189   8.654  67.082  1.00  0.00    -0.106 OA 
BRANCH  24  27
HETATM   27  C   UNL     1      -9.585   6.250  67.100  1.00  0.00    -0.132 C  
BRANCH  27  28
HETATM   28  N   UNL     1      -9.041   5.870  65.822  1.00  0.00    -0.282 N  
HETATM   29  O   UNL     1      -9.675   3.651  65.958  1.00  0.00    -0.166 OA 
HETATM   30  C   UNL     1      -9.144   4.576  65.362  1.00  0.00    -0.146 C  
HETATM   31  H   UNL     1      -8.573   6.570  65.248  1.00  0.00     0.000 HD 
ENDBRANCH  27  28
BRANCH  27  32
HETATM   32  C   UNL     1      -8.655   5.994  68.305  1.00  0.00    -0.115 C  
BRANCH  32  33
HETATM   33  C   UNL     1      -8.931   5.199  69.571  1.00  0.00    -0.128 A  
HETATM   34  C   UNL     1      -9.521   4.154  71.538  1.00  0.00    -0.154 A  
HETATM   35  H   UNL     1      -8.072   2.625  71.328  1.00  0.00     0.000 HD 
HETATM   36  C   UNL     1     -10.179   3.854  72.741  1.00  0.00    -0.233 A  
HETATM   37  C   UNL     1      -8.144   4.070  69.786  1.00  0.00    -0.054 A  
HETATM   38  C   UNL     1     -11.176   4.726  73.165  1.00  0.00    -0.390 A  
HETATM   39  N   UNL     1      -8.503   3.468  70.949  1.00  0.00    -0.069 NA 
HETATM   40  C   UNL     1     -11.488   5.854  72.408  1.00  0.00    -0.358 A  
HETATM   41  C   UNL     1     -10.824   6.133  71.194  1.00  0.00    -0.328 A  
HETATM   42  C   UNL     1      -9.813   5.267  70.725  1.00  0.00    -0.261 A  
ENDBRANCH  32  33
ENDBRANCH  27  32
ENDBRANCH  24  27
ENDBRANCH  11  23
ENDBRANCH   7  11
TORSDOF 8
ENDMDL
MODEL      291
REMARK 921   NORMALIZED FREE ENERGY PREDICTED BY IDOCK:   -5.37 KCAL/MOL
REMARK 922        TOTAL FREE ENERGY PREDICTED BY IDOCK:  -10.02 KCAL/MOL
REMARK 923 INTER-LIGAND FREE ENERGY PREDICTED BY IDOCK:   -8.38 KCAL/MOL
REMARK 924 INTRA-LIGAND FREE ENERGY PREDICTED BY IDOCK:   -1.64 KCAL/MOL
REMARK 927      BINDING AFFINITY PREDICTED BY RF-SCORE:    0.00 PKD
ROOT
HETATM    1  C   UNL     1      -6.920   7.348  71.428  1.00  0.00    -0.055 C  
HETATM    2  C   UNL     1      -8.372   7.622  71.866  1.00  0.00    -0.109 C  
HETATM    3  C   UNL     1      -9.332   8.217  70.630  1.00  0.00    -0.156 C  
HETATM    4  N   UNL     1      -8.321   8.631  72.963  1.00  0.00    -0.407 NA 
HETATM    5  C   UNL     1      -8.854   6.293  72.511  1.00  0.00    -0.123 C  
HETATM    6  H2  UNL     1      -7.816   9.479  72.702  1.00  0.00     0.000 HD 
HETATM    7  N   UNL     1      -9.356   9.604  70.442  1.00  0.00    -0.309 N  
HETATM    8  H1  UNL     1      -9.282   8.813  73.252  1.00  0.00     0.000 HD 
HETATM    9  O   UNL     1      -9.959   7.464  69.886  1.00  0.00    -0.185 OA 
HETATM   10  H   UNL     1      -8.912  10.112  71.206  1.00  0.00     0.000 HD 
ENDROOT
BRANCH   7  11
HETATM   11  C   UNL     1      -9.911  10.557  69.325  1.00  0.00    -0.213 C  
BRANCH  11  12
HETATM   12  C   UNL     1     -11.449  10.963  69.156  1.00  0.00    -0.373 C  
BRANCH  12  13
HETATM   13  C   UNL     1     -11.896  12.501  69.247  1.00  0.00    -0.360 A  
HETATM   14  C   UNL     1     -11.784  13.491  68.289  1.00  0.00    -0.359 A  
HETATM   15  C   UNL     1     -13.503  13.734  72.594  1.00  0.00    -0.638 A  
HETATM   16  C   UNL     1     -13.384  15.098  72.346  1.00  0.00    -0.522 A  
HETATM   17  C   UNL     1     -12.911  15.539  71.111  1.00  0.00    -0.560 A  
HETATM   18  N   UNL     1     -12.136  14.723  68.841  1.00  0.00    -0.539 NA 
HETATM   19  C   UNL     1     -13.077  12.784  71.641  1.00  0.00    -0.428 A  
HETATM   20  C   UNL     1     -12.526  13.193  70.398  1.00  0.00    -0.280 A  
HETATM   21  C   UNL     1     -12.527  14.566  70.149  1.00  0.00    -0.321 A  
HETATM   22  H   UNL     1     -12.107  15.613  68.345  1.00  0.00     0.000 HD 
ENDBRANCH  12  13
ENDBRANCH  11  12
BRANCH  11  23
HETATM   23  C   UNL     1      -9.205  10.161  68.001  1.00  0.00    -0.138 C  
HETATM   24  N   UNL     1      -9.904   9.349  67.129  1.00  0.00    -0.175 N  
HETATM   25  H   UNL     1     -10.889   9.150  67.302  1.00  0.00     0.000 HD 
HETATM   26  O   UNL     1      -8.035  10.496  67.795  1.00  0.00    -0.104 OA 
BRANCH  24  27
HETATM   27  C   UNL     1      -9.248   8.782  65.974  1.00  0.00    -0.222 C  
BRANCH  27  28
HETATM   28  N   UNL     1      -8.642   9.847  65.217  1.00  0.00    -0.147 N  
HETATM   29  O   UNL     1     -10.617  10.624  64.300  1.00  0.00    -0.298 OA 
HETATM   30  C   UNL     1      -9.404  10.687  64.437  1.00  0.00    -0.251 C  
HETATM   31  H   UNL     1      -7.633   9.982  65.261  1.00  0.00     0.000 HD 
ENDBRANCH  27  28
BRANCH  27  32
HETATM   32  C   UNL     1      -8.355   7.540  66.179  1.00  0.00    -0.138 C  
BRANCH  32  33
HETATM   33  C   UNL     1      -8.631   6.094  65.800  1.00  0.00    -0.153 A  
HETATM   34  C   UNL     1      -8.833   3.901  65.120  1.00  0.00    -0.126 A  
HETATM   35  H   UNL     1     -10.755   3.664  65.975  1.00  0.00     0.000 HD 
HETATM   36  C   UNL     1      -8.546   2.653  64.545  1.00  0.00    -0.093 A  
HETATM   37  C   UNL     1      -9.850   5.560  66.210  1.00  0.00    -0.145 A  
HETATM   38  C   UNL     1      -7.341   2.520  63.865  1.00  0.00    -0.057 A  
HETATM   39  N   UNL     1      -9.954   4.269  65.800  1.00  0.00    -0.221 NA 
HETATM   40  C   UNL     1      -6.468   3.603  63.766  1.00  0.00    -0.034 A  
HETATM   41  C   UNL     1      -6.769   4.847  64.362  1.00  0.00    -0.044 A  
HETATM   42  C   UNL     1      -7.978   5.020  65.069  1.00  0.00    -0.101 A  
ENDBRANCH  32  33
ENDBRANCH  27  32
ENDBRANCH  24  27
ENDBRANCH  11  23
ENDBRANCH   7  11
TORSDOF 8
ENDMDL
MODEL      292
REMARK 921   NORMALIZED FREE ENERGY PREDICTED BY IDOCK:   -5.31 KCAL/MOL
REMARK 922        TOTAL FREE ENERGY PREDICTED BY IDOCK:   -9.94 KCAL/MOL
REMARK 923 INTER-LIGAND FREE ENERGY PREDICTED BY IDOCK:   -7.99 KCAL/MOL
REMARK 924 INTRA-LIGAND FREE ENERGY PREDICTED BY IDOCK:   -1.95 KCAL/MOL
REMARK 927      BINDING AFFINITY PREDICTED BY RF-SCORE:    0.00 PKD
ROOT
HETATM    1  C   UNL     1      -8.821   6.332  71.640  1.00  0.00    -0.138 C  
HETATM    2  C   UNL     1     -10.019   7.202  72.069  1.00  0.00    -0.162 C  
HETATM    3  C   UNL     1     -10.640   8.128  70.820  1.00  0.00    -0.214 C  
HETATM    4  N   UNL     1      -9.541   8.111  73.150  1.00  0.00    -0.264 NA 
HETATM    5  C   UNL     1     -11.016   6.212  72.733  1.00  0.00    -0.294 C  
HETATM    6  H2  UNL     1      -8.726   8.661  72.878  1.00  0.00     0.000 HD 
HETATM    7  N   UNL     1     -10.076   9.392  70.611  1.00  0.00    -0.271 N  
HETATM    8  H1  UNL     1     -10.335   8.687  73.434  1.00  0.00     0.000 HD 
HETATM    9  O   UNL     1     -11.531   7.701  70.086  1.00  0.00    -0.199 OA 
HETATM   10  H   UNL     1      -9.456   9.676  71.369  1.00  0.00     0.000 HD 
ENDROOT
BRANCH   7  11
HETATM   11  C   UNL     1     -10.179  10.474  69.479  1.00  0.00    -0.200 C  
BRANCH  11  12
HETATM   12  C   UNL     1     -11.478  10.732  68.582  1.00  0.00    -0.365 C  
BRANCH  12  13
HETATM   13  C   UNL     1     -11.722  12.166  67.905  1.00  0.00    -0.403 A  
HETATM   14  C   UNL     1     -12.064  13.361  68.509  1.00  0.00    -0.248 A  
HETATM   15  C   UNL     1     -11.358  12.426  64.018  1.00  0.00    -0.465 A  
HETATM   16  C   UNL     1     -11.980  13.663  63.872  1.00  0.00    -0.455 A  
HETATM   17  C   UNL     1     -12.373  14.378  65.003  1.00  0.00    -0.401 A  
HETATM   18  N   UNL     1     -12.347  14.319  67.535  1.00  0.00    -0.587 NA 
HETATM   19  C   UNL     1     -11.189  11.846  65.293  1.00  0.00    -0.351 A  
HETATM   20  C   UNL     1     -11.637  12.511  66.464  1.00  0.00    -0.447 A  
HETATM   21  C   UNL     1     -12.156  13.794  66.280  1.00  0.00    -0.446 A  
HETATM   22  H   UNL     1     -12.652  15.272  67.728  1.00  0.00     0.000 HD 
ENDBRANCH  12  13
ENDBRANCH  11  12
BRANCH  11  23
HETATM   23  C   UNL     1      -8.851  10.416  68.677  1.00  0.00    -0.142 C  
HETATM   24  N   UNL     1      -7.976   9.389  68.973  1.00  0.00    -0.089 N  
HETATM   25  H   UNL     1      -8.273   8.634  69.591  1.00  0.00     0.000 HD 
HETATM   26  O   UNL     1      -8.570  11.311  67.874  1.00  0.00    -0.126 OA 
BRANCH  24  27
HETATM   27  C   UNL     1      -6.645   9.378  68.413  1.00  0.00    -0.054 C  
BRANCH  27  28
HETATM   28  N   UNL     1      -5.712   9.008  69.447  1.00  0.00    -0.035 N  
HETATM   29  O   UNL     1      -6.207  10.783  70.842  1.00  0.00    -0.342 OA 
HETATM   30  C   UNL     1      -5.583   9.764  70.590  1.00  0.00    -0.057 C  
HETATM   31  H   UNL     1      -5.139   8.173  69.329  1.00  0.00     0.000 HD 
ENDBRANCH  27  28
BRANCH  27  32
HETATM   32  C   UNL     1      -6.429   8.671  67.058  1.00  0.00    -0.057 C  
BRANCH  32  33
HETATM   33  C   UNL     1      -7.242   7.553  66.426  1.00  0.00    -0.075 A  
HETATM   34  C   UNL     1      -8.514   5.778  65.689  1.00  0.00    -0.149 A  
HETATM   35  H   UNL     1      -8.318   6.300  63.647  1.00  0.00     0.000 HD 
HETATM   36  C   UNL     1      -9.312   4.624  65.685  1.00  0.00    -0.160 A  
HETATM   37  C   UNL     1      -7.349   7.564  65.037  1.00  0.00    -0.078 A  
HETATM   38  C   UNL     1      -9.582   4.022  66.908  1.00  0.00    -0.232 A  
HETATM   39  N   UNL     1      -8.098   6.511  64.620  1.00  0.00    -0.116 NA 
HETATM   40  C   UNL     1      -9.062   4.561  68.084  1.00  0.00    -0.155 A  
HETATM   41  C   UNL     1      -8.271   5.730  68.071  1.00  0.00    -0.104 A  
HETATM   42  C   UNL     1      -7.982   6.376  66.849  1.00  0.00    -0.109 A  
ENDBRANCH  32  33
ENDBRANCH  27  32
ENDBRANCH  24  27
ENDBRANCH  11  23
ENDBRANCH   7  11
TORSDOF 8
ENDMDL
MODEL      293
REMARK 921   NORMALIZED FREE ENERGY PREDICTED BY IDOCK:   -5.31 KCAL/MOL
REMARK 922        TOTAL FREE ENERGY PREDICTED BY IDOCK:   -9.94 KCAL/MOL
REMARK 923 INTER-LIGAND FREE ENERGY PREDICTED BY IDOCK:   -8.15 KCAL/MOL
REMARK 924 INTRA-LIGAND FREE ENERGY PREDICTED BY IDOCK:   -1.79 KCAL/MOL
REMARK 927      BINDING AFFINITY PREDICTED BY RF-SCORE:    0.00 PKD
ROOT
HETATM    1  C   UNL     1      -8.954   8.135  72.298  1.00  0.00    -0.252 C  
HETATM    2  C   UNL     1      -8.335   8.020  70.891  1.00  0.00    -0.119 C  
HETATM    3  C   UNL     1      -8.512   9.411  69.977  1.00  0.00    -0.190 C  
HETATM    4  N   UNL     1      -9.025   6.896  70.194  1.00  0.00    -0.148 NA 
HETATM    5  C   UNL     1      -6.872   7.556  71.134  1.00  0.00    -0.050 C  
HETATM    6  H2  UNL     1     -10.040   7.001  70.177  1.00  0.00     0.000 HD 
HETATM    7  N   UNL     1      -9.680   9.539  69.216  1.00  0.00    -0.168 N  
HETATM    8  H1  UNL     1      -8.615   6.820  69.263  1.00  0.00     0.000 HD 
HETATM    9  O   UNL     1      -7.670  10.308  70.005  1.00  0.00    -0.164 OA 
HETATM   10  H   UNL     1     -10.217   8.674  69.172  1.00  0.00     0.000 HD 
ENDROOT
BRANCH   7  11
HETATM   11  C   UNL     1     -10.352  10.709  68.413  1.00  0.00    -0.175 C  
BRANCH  11  12
HETATM   12  C   UNL     1     -11.851  11.221  68.634  1.00  0.00    -0.369 C  
BRANCH  12  13
HETATM   13  C   UNL     1     -12.360  11.628  70.099  1.00  0.00    -0.297 A  
HETATM   14  C   UNL     1     -12.703  10.804  71.155  1.00  0.00    -0.431 A  
HETATM   15  C   UNL     1     -12.752  15.438  70.895  1.00  0.00    -0.520 A  
HETATM   16  C   UNL     1     -13.512  15.292  72.052  1.00  0.00    -0.547 A  
HETATM   17  C   UNL     1     -13.758  14.018  72.563  1.00  0.00    -0.651 A  
HETATM   18  N   UNL     1     -13.256  11.564  72.186  1.00  0.00    -0.559 NA 
HETATM   19  C   UNL     1     -12.291  14.311  70.183  1.00  0.00    -0.413 A  
HETATM   20  C   UNL     1     -12.579  12.995  70.633  1.00  0.00    -0.270 A  
HETATM   21  C   UNL     1     -13.250  12.897  71.853  1.00  0.00    -0.423 A  
HETATM   22  H   UNL     1     -13.615  11.184  73.061  1.00  0.00     0.000 HD 
ENDBRANCH  12  13
ENDBRANCH  11  12
BRANCH  11  23
HETATM   23  C   UNL     1      -9.953  10.522  66.924  1.00  0.00    -0.200 C  
HETATM   24  N   UNL     1      -9.093   9.485  66.624  1.00  0.00    -0.145 N  
HETATM   25  H   UNL     1      -8.857   8.799  67.341  1.00  0.00     0.000 HD 
HETATM   26  O   UNL     1     -10.331  11.332  66.073  1.00  0.00    -0.238 OA 
BRANCH  24  27
HETATM   27  C   UNL     1      -8.525   9.365  65.301  1.00  0.00    -0.149 C  
BRANCH  27  28
HETATM   28  N   UNL     1      -7.533  10.395  65.130  1.00  0.00    -0.241 N  
HETATM   29  O   UNL     1      -6.331   9.867  67.032  1.00  0.00    -0.063 OA 
HETATM   30  C   UNL     1      -6.505  10.548  66.033  1.00  0.00    -0.127 C  
HETATM   31  H   UNL     1      -7.593  11.021  64.328  1.00  0.00     0.000 HD 
ENDBRANCH  27  28
BRANCH  27  32
HETATM   32  C   UNL     1      -8.099   7.964  64.813  1.00  0.00    -0.141 C  
BRANCH  32  33
HETATM   33  C   UNL     1      -8.150   6.639  65.557  1.00  0.00    -0.124 A  
HETATM   34  C   UNL     1      -8.310   4.535  66.481  1.00  0.00    -0.106 A  
HETATM   35  H   UNL     1      -7.595   5.155  68.374  1.00  0.00     0.000 HD 
HETATM   36  C   UNL     1      -8.548   3.159  66.627  1.00  0.00    -0.120 A  
HETATM   37  C   UNL     1      -7.734   6.650  66.886  1.00  0.00    -0.106 A  
HETATM   38  C   UNL     1      -9.070   2.476  65.534  1.00  0.00    -0.116 A  
HETATM   39  N   UNL     1      -7.837   5.404  67.415  1.00  0.00    -0.100 NA 
HETATM   40  C   UNL     1      -9.343   3.156  64.348  1.00  0.00    -0.141 A  
HETATM   41  C   UNL     1      -9.085   4.538  64.216  1.00  0.00    -0.138 A  
HETATM   42  C   UNL     1      -8.547   5.265  65.300  1.00  0.00    -0.150 A  
ENDBRANCH  32  33
ENDBRANCH  27  32
ENDBRANCH  24  27
ENDBRANCH  11  23
ENDBRANCH   7  11
TORSDOF 8
ENDMDL
MODEL      294
REMARK 921   NORMALIZED FREE ENERGY PREDICTED BY IDOCK:   -5.29 KCAL/MOL
REMARK 922        TOTAL FREE ENERGY PREDICTED BY IDOCK:   -9.91 KCAL/MOL
REMARK 923 INTER-LIGAND FREE ENERGY PREDICTED BY IDOCK:   -9.13 KCAL/MOL
REMARK 924 INTRA-LIGAND FREE ENERGY PREDICTED BY IDOCK:   -0.79 KCAL/MOL
REMARK 927      BINDING AFFINITY PREDICTED BY RF-SCORE:    0.00 PKD
ROOT
HETATM    1  C   UNL     1     -10.605   7.430  70.242  1.00  0.00    -0.241 C  
HETATM    2  C   UNL     1     -10.671   8.740  71.050  1.00  0.00    -0.229 C  
HETATM    3  C   UNL     1     -11.436   9.983  70.229  1.00  0.00    -0.300 C  
HETATM    4  N   UNL     1      -9.268   9.150  71.345  1.00  0.00    -0.292 NA 
HETATM    5  C   UNL     1     -11.309   8.340  72.410  1.00  0.00    -0.457 C  
HETATM    6  H2  UNL     1      -8.690   9.227  70.507  1.00  0.00     0.000 HD 
HETATM    7  N   UNL     1     -10.647  10.790  69.400  1.00  0.00    -0.260 N  
HETATM    8  H1  UNL     1      -9.312  10.018  71.880  1.00  0.00     0.000 HD 
HETATM    9  O   UNL     1     -12.650  10.158  70.316  1.00  0.00    -0.198 OA 
HETATM   10  H   UNL     1      -9.649  10.629  69.530  1.00  0.00     0.000 HD 
ENDROOT
BRANCH   7  11
HETATM   11  C   UNL     1     -10.947  11.885  68.317  1.00  0.00    -0.230 C  
BRANCH  11  12
HETATM   12  C   UNL     1     -11.520  11.585  66.854  1.00  0.00    -0.261 C  
BRANCH  12  13
HETATM   13  C   UNL     1     -10.518  11.339  65.626  1.00  0.00    -0.317 A  
HETATM   14  C   UNL     1     -10.416  12.039  64.439  1.00  0.00    -0.312 A  
HETATM   15  C   UNL     1      -7.995   8.362  65.908  1.00  0.00    -0.099 A  
HETATM   16  C   UNL     1      -7.632   8.320  64.565  1.00  0.00    -0.108 A  
HETATM   17  C   UNL     1      -8.115   9.289  63.686  1.00  0.00    -0.155 A  
HETATM   18  N   UNL     1      -9.533  11.385  63.579  1.00  0.00    -0.419 NA 
HETATM   19  C   UNL     1      -8.910   9.325  66.382  1.00  0.00    -0.169 A  
HETATM   20  C   UNL     1      -9.478  10.287  65.505  1.00  0.00    -0.277 A  
HETATM   21  C   UNL     1      -9.004  10.275  64.192  1.00  0.00    -0.237 A  
HETATM   22  H   UNL     1      -9.312  11.688  62.631  1.00  0.00     0.000 HD 
ENDBRANCH  12  13
ENDBRANCH  11  12
BRANCH  11  23
HETATM   23  C   UNL     1      -9.761  12.885  68.345  1.00  0.00    -0.186 C  
HETATM   24  N   UNL     1     -10.036  14.184  68.726  1.00  0.00    -0.297 N  
HETATM   25  H   UNL     1     -10.954  14.417  69.103  1.00  0.00     0.000 HD 
HETATM   26  O   UNL     1      -8.643  12.536  67.956  1.00  0.00    -0.168 OA 
BRANCH  24  27
HETATM   27  C   UNL     1      -9.032  15.214  68.592  1.00  0.00    -0.191 C  
BRANCH  27  28
HETATM   28  N   UNL     1      -8.125  14.840  67.537  1.00  0.00    -0.167 N  
HETATM   29  O   UNL     1      -6.235  15.702  68.547  1.00  0.00    -0.097 OA 
HETATM   30  C   UNL     1      -6.781  15.125  67.620  1.00  0.00    -0.176 C  
HETATM   31  H   UNL     1      -8.486  14.355  66.715  1.00  0.00     0.000 HD 
ENDBRANCH  27  28
BRANCH  27  32
HETATM   32  C   UNL     1      -9.496  16.686  68.559  1.00  0.00    -0.239 C  
BRANCH  32  33
HETATM   33  C   UNL     1      -8.861  17.870  67.849  1.00  0.00    -0.260 A  
HETATM   34  C   UNL     1      -7.755  19.688  66.964  1.00  0.00    -0.262 A  
HETATM   35  H   UNL     1      -8.897  19.695  65.181  1.00  0.00     0.000 HD 
HETATM   36  C   UNL     1      -6.856  20.756  66.812  1.00  0.00    -0.352 A  
HETATM   37  C   UNL     1      -9.367  18.193  66.593  1.00  0.00    -0.297 A  
HETATM   38  C   UNL     1      -5.989  21.022  67.865  1.00  0.00    -0.396 A  
HETATM   39  N   UNL     1      -8.707  19.266  66.087  1.00  0.00    -0.432 NA 
HETATM   40  C   UNL     1      -6.033  20.246  69.022  1.00  0.00    -0.356 A  
HETATM   41  C   UNL     1      -6.935  19.167  69.152  1.00  0.00    -0.361 A  
HETATM   42  C   UNL     1      -7.825  18.859  68.101  1.00  0.00    -0.327 A  
ENDBRANCH  32  33
ENDBRANCH  27  32
ENDBRANCH  24  27
ENDBRANCH  11  23
ENDBRANCH   7  11
TORSDOF 8
ENDMDL
MODEL      295
REMARK 921   NORMALIZED FREE ENERGY PREDICTED BY IDOCK:   -5.29 KCAL/MOL
REMARK 922        TOTAL FREE ENERGY PREDICTED BY IDOCK:   -9.91 KCAL/MOL
REMARK 923 INTER-LIGAND FREE ENERGY PREDICTED BY IDOCK:   -8.28 KCAL/MOL
REMARK 924 INTRA-LIGAND FREE ENERGY PREDICTED BY IDOCK:   -1.63 KCAL/MOL
REMARK 927      BINDING AFFINITY PREDICTED BY RF-SCORE:    0.00 PKD
ROOT
HETATM    1  C   UNL     1     -12.778  12.652  64.999  1.00  0.00    -0.403 C  
HETATM    2  C   UNL     1     -11.718  13.286  64.078  1.00  0.00    -0.430 C  
HETATM    3  C   UNL     1     -10.476  14.031  64.918  1.00  0.00    -0.431 C  
HETATM    4  N   UNL     1     -12.411  14.307  63.240  1.00  0.00    -1.068 NA 
HETATM    5  C   UNL     1     -11.289  12.144  63.116  1.00  0.00    -0.263 C  
HETATM    6  H2  UNL     1     -12.923  14.995  63.793  1.00  0.00     0.000 HD 
HETATM    7  N   UNL     1     -10.652  15.373  65.276  1.00  0.00    -0.399 N  
HETATM    8  H1  UNL     1     -11.709  14.726  62.631  1.00  0.00     0.000 HD 
HETATM    9  O   UNL     1      -9.464  13.414  65.247  1.00  0.00     0.095 OA 
HETATM   10  H   UNL     1     -11.461  15.797  64.823  1.00  0.00     0.000 HD 
ENDROOT
BRANCH   7  11
HETATM   11  C   UNL     1      -9.891  16.375  66.214  1.00  0.00    -0.314 C  
BRANCH  11  12
HETATM   12  C   UNL     1      -8.451  16.997  65.905  1.00  0.00    -0.023 C  
BRANCH  12  13
HETATM   13  C   UNL     1      -8.114  18.508  66.324  1.00  0.00    -0.259 A  
HETATM   14  C   UNL     1      -8.655  19.682  65.836  1.00  0.00    -0.125 A  
HETATM   15  C   UNL     1      -5.385  19.067  69.072  1.00  0.00    -0.205 A  
HETATM   16  C   UNL     1      -5.190  20.426  68.842  1.00  0.00    -0.271 A  
HETATM   17  C   UNL     1      -5.997  21.096  67.924  1.00  0.00    -0.406 A  
HETATM   18  N   UNL     1      -7.956  20.774  66.350  1.00  0.00    -0.487 NA 
HETATM   19  C   UNL     1      -6.336  18.335  68.330  1.00  0.00    -0.198 A  
HETATM   20  C   UNL     1      -7.131  18.967  67.336  1.00  0.00    -0.216 A  
HETATM   21  C   UNL     1      -6.978  20.349  67.216  1.00  0.00    -0.283 A  
HETATM   22  H   UNL     1      -8.145  21.748  66.117  1.00  0.00     0.000 HD 
ENDBRANCH  12  13
ENDBRANCH  11  12
BRANCH  11  23
HETATM   23  C   UNL     1     -10.063  15.853  67.666  1.00  0.00    -0.242 C  
HETATM   24  N   UNL     1     -10.918  14.786  67.859  1.00  0.00    -0.269 N  
HETATM   25  H   UNL     1     -11.297  14.288  67.054  1.00  0.00     0.000 HD 
HETATM   26  O   UNL     1      -9.517  16.439  68.606  1.00  0.00    -0.221 OA 
BRANCH  24  27
HETATM   27  C   UNL     1     -11.279  14.370  69.195  1.00  0.00    -0.272 C  
BRANCH  27  28
HETATM   28  N   UNL     1     -12.093  15.397  69.793  1.00  0.00    -0.417 N  
HETATM   29  O   UNL     1     -11.158  15.227  71.900  1.00  0.00    -0.371 OA 
HETATM   30  C   UNL     1     -11.948  15.736  71.119  1.00  0.00    -0.423 C  
HETATM   31  H   UNL     1     -12.788  15.881  69.225  1.00  0.00     0.000 HD 
ENDBRANCH  27  28
BRANCH  27  32
HETATM   32  C   UNL     1     -11.797  12.930  69.396  1.00  0.00    -0.371 C  
BRANCH  32  33
HETATM   33  C   UNL     1     -11.269  11.635  68.801  1.00  0.00    -0.304 A  
HETATM   34  C   UNL     1     -10.260   9.720  68.010  1.00  0.00    -0.190 A  
HETATM   35  H   UNL     1     -11.978   9.082  66.950  1.00  0.00     0.000 HD 
HETATM   36  C   UNL     1      -9.305   8.719  67.771  1.00  0.00    -0.157 A  
HETATM   37  C   UNL     1     -12.151  10.902  68.012  1.00  0.00     0.461 A  
HETATM   38  C   UNL     1      -8.040   8.892  68.320  1.00  0.00    -0.109 A  
HETATM   39  N   UNL     1     -11.541   9.779  67.552  1.00  0.00     0.501 NA 
HETATM   40  C   UNL     1      -7.753  10.029  69.074  1.00  0.00    -0.094 A  
HETATM   41  C   UNL     1      -8.730  11.019  69.314  1.00  0.00     0.085 A  
HETATM   42  C   UNL     1     -10.029  10.876  68.781  1.00  0.00    -0.203 A  
ENDBRANCH  32  33
ENDBRANCH  27  32
ENDBRANCH  24  27
ENDBRANCH  11  23
ENDBRANCH   7  11
TORSDOF 8
ENDMDL
MODEL      296
REMARK 921   NORMALIZED FREE ENERGY PREDICTED BY IDOCK:   -5.29 KCAL/MOL
REMARK 922        TOTAL FREE ENERGY PREDICTED BY IDOCK:   -9.90 KCAL/MOL
REMARK 923 INTER-LIGAND FREE ENERGY PREDICTED BY IDOCK:   -9.09 KCAL/MOL
REMARK 924 INTRA-LIGAND FREE ENERGY PREDICTED BY IDOCK:   -0.81 KCAL/MOL
REMARK 927      BINDING AFFINITY PREDICTED BY RF-SCORE:    0.00 PKD
ROOT
HETATM    1  C   UNL     1     -10.836   5.451  71.820  1.00  0.00    -0.242 C  
HETATM    2  C   UNL     1      -9.463   6.080  71.510  1.00  0.00    -0.149 C  
HETATM    3  C   UNL     1      -9.469   7.752  71.599  1.00  0.00    -0.144 C  
HETATM    4  N   UNL     1      -9.093   5.673  70.124  1.00  0.00    -0.137 NA 
HETATM    5  C   UNL     1      -8.469   5.359  72.462  1.00  0.00    -0.118 C  
HETATM    6  H2  UNL     1      -9.806   5.912  69.434  1.00  0.00     0.000 HD 
HETATM    7  N   UNL     1      -9.811   8.459  70.440  1.00  0.00    -0.179 N  
HETATM    8  H1  UNL     1      -8.184   6.090  69.919  1.00  0.00     0.000 HD 
HETATM    9  O   UNL     1      -9.224   8.339  72.652  1.00  0.00    -0.232 OA 
HETATM   10  H   UNL     1      -9.850   7.863  69.614  1.00  0.00     0.000 HD 
ENDROOT
BRANCH   7  11
HETATM   11  C   UNL     1     -10.148   9.958  70.120  1.00  0.00    -0.255 C  
BRANCH  11  12
HETATM   12  C   UNL     1     -11.606  10.606  70.228  1.00  0.00    -0.424 C  
BRANCH  12  13
HETATM   13  C   UNL     1     -11.809  12.183  70.021  1.00  0.00    -0.383 A  
HETATM   14  C   UNL     1     -11.293  12.999  69.032  1.00  0.00    -0.289 A  
HETATM   15  C   UNL     1     -14.016  14.091  72.628  1.00  0.00    -0.428 A  
HETATM   16  C   UNL     1     -13.619  15.378  72.276  1.00  0.00    -0.606 A  
HETATM   17  C   UNL     1     -12.776  15.568  71.182  1.00  0.00    -0.525 A  
HETATM   18  N   UNL     1     -11.575  14.333  69.325  1.00  0.00    -0.286 NA 
HETATM   19  C   UNL     1     -13.514  12.965  71.943  1.00  0.00    -0.478 A  
HETATM   20  C   UNL     1     -12.599  13.112  70.867  1.00  0.00    -0.377 A  
HETATM   21  C   UNL     1     -12.314  14.422  70.479  1.00  0.00    -0.345 A  
HETATM   22  H   UNL     1     -11.274  15.129  68.762  1.00  0.00     0.000 HD 
ENDBRANCH  12  13
ENDBRANCH  11  12
BRANCH  11  23
HETATM   23  C   UNL     1      -9.379  10.327  68.824  1.00  0.00    -0.166 C  
HETATM   24  N   UNL     1      -8.257  11.121  68.957  1.00  0.00    -0.318 N  
HETATM   25  H   UNL     1      -7.888  11.325  69.885  1.00  0.00     0.000 HD 
HETATM   26  O   UNL     1      -9.819   9.987  67.721  1.00  0.00    -0.151 OA 
BRANCH  24  27
HETATM   27  C   UNL     1      -7.604  11.665  67.789  1.00  0.00    -0.121 C  
BRANCH  27  28
HETATM   28  N   UNL     1      -7.385  10.599  66.845  1.00  0.00    -0.108 N  
HETATM   29  O   UNL     1      -5.669   9.600  68.027  1.00  0.00    -0.040 OA 
HETATM   30  C   UNL     1      -6.417   9.645  67.062  1.00  0.00    -0.066 C  
HETATM   31  H   UNL     1      -7.956  10.551  66.002  1.00  0.00     0.000 HD 
ENDBRANCH  27  28
BRANCH  27  32
HETATM   32  C   UNL     1      -8.163  12.969  67.180  1.00  0.00    -0.132 C  
BRANCH  32  33
HETATM   33  C   UNL     1      -9.344  13.153  66.242  1.00  0.00    -0.138 A  
HETATM   34  C   UNL     1     -11.108  13.669  64.852  1.00  0.00    -0.351 A  
HETATM   35  H   UNL     1     -11.539  11.643  64.411  1.00  0.00     0.000 HD 
HETATM   36  C   UNL     1     -12.056  14.400  64.117  1.00  0.00    -0.405 A  
HETATM   37  C   UNL     1      -9.919  11.996  65.722  1.00  0.00    -0.241 A  
HETATM   38  C   UNL     1     -12.040  15.784  64.243  1.00  0.00     0.010 A  
HETATM   39  N   UNL     1     -10.957  12.317  64.908  1.00  0.00    -0.293 NA 
HETATM   40  C   UNL     1     -11.111  16.400  65.079  1.00  0.00    -0.216 A  
HETATM   41  C   UNL     1     -10.157  15.650  65.801  1.00  0.00    -0.394 A  
HETATM   42  C   UNL     1     -10.134  14.243  65.692  1.00  0.00    -0.364 A  
ENDBRANCH  32  33
ENDBRANCH  27  32
ENDBRANCH  24  27
ENDBRANCH  11  23
ENDBRANCH   7  11
TORSDOF 8
ENDMDL
MODEL      297
REMARK 921   NORMALIZED FREE ENERGY PREDICTED BY IDOCK:   -5.27 KCAL/MOL
REMARK 922        TOTAL FREE ENERGY PREDICTED BY IDOCK:   -9.88 KCAL/MOL
REMARK 923 INTER-LIGAND FREE ENERGY PREDICTED BY IDOCK:   -6.60 KCAL/MOL
REMARK 924 INTRA-LIGAND FREE ENERGY PREDICTED BY IDOCK:   -3.28 KCAL/MOL
REMARK 927      BINDING AFFINITY PREDICTED BY RF-SCORE:    0.00 PKD
ROOT
HETATM    1  C   UNL     1     -12.101  13.936  69.145  1.00  0.00    -0.377 C  
HETATM    2  C   UNL     1     -10.790  14.681  68.827  1.00  0.00    -0.255 C  
HETATM    3  C   UNL     1      -9.693  13.750  67.971  1.00  0.00    -0.232 C  
HETATM    4  N   UNL     1     -10.176  15.072  70.129  1.00  0.00    -0.501 NA 
HETATM    5  C   UNL     1     -11.237  16.000  68.138  1.00  0.00    -0.325 C  
HETATM    6  H2  UNL     1     -10.042  14.281  70.761  1.00  0.00     0.000 HD 
HETATM    7  N   UNL     1      -8.808  12.955  68.707  1.00  0.00    -0.379 N  
HETATM    8  H1  UNL     1      -9.308  15.565  69.919  1.00  0.00     0.000 HD 
HETATM    9  O   UNL     1      -9.691  13.731  66.741  1.00  0.00    -0.258 OA 
HETATM   10  H   UNL     1      -8.820  13.172  69.704  1.00  0.00     0.000 HD 
ENDROOT
BRANCH   7  11
HETATM   11  C   UNL     1      -7.799  11.806  68.352  1.00  0.00    -0.141 C  
BRANCH  11  12
HETATM   12  C   UNL     1      -7.096  11.620  66.928  1.00  0.00    -0.124 C  
BRANCH  12  13
HETATM   13  C   UNL     1      -7.727  10.626  65.838  1.00  0.00    -0.146 A  
HETATM   14  C   UNL     1      -8.897  10.765  65.116  1.00  0.00    -0.186 A  
HETATM   15  C   UNL     1      -5.793   7.315  65.061  1.00  0.00    -0.037 A  
HETATM   16  C   UNL     1      -6.830   6.666  64.397  1.00  0.00    -0.046 A  
HETATM   17  C   UNL     1      -8.022   7.343  64.143  1.00  0.00    -0.092 A  
HETATM   18  N   UNL     1      -9.158   9.592  64.408  1.00  0.00    -0.360 NA 
HETATM   19  C   UNL     1      -5.957   8.627  65.554  1.00  0.00    -0.048 A  
HETATM   20  C   UNL     1      -7.180   9.327  65.376  1.00  0.00    -0.090 A  
HETATM   21  C   UNL     1      -8.151   8.678  64.611  1.00  0.00    -0.156 A  
HETATM   22  H   UNL     1      -9.978   9.434  63.824  1.00  0.00     0.000 HD 
ENDBRANCH  12  13
ENDBRANCH  11  12
BRANCH  11  23
HETATM   23  C   UNL     1      -8.374  10.498  68.957  1.00  0.00    -0.154 C  
HETATM   24  N   UNL     1      -9.553  10.017  68.423  1.00  0.00    -0.143 N  
HETATM   25  H   UNL     1      -9.935  10.439  67.577  1.00  0.00     0.000 HD 
HETATM   26  O   UNL     1      -7.829   9.972  69.933  1.00  0.00    -0.158 OA 
BRANCH  24  27
HETATM   27  C   UNL     1     -10.249   8.920  69.056  1.00  0.00    -0.206 C  
BRANCH  27  28
HETATM   28  N   UNL     1     -11.357   9.450  69.808  1.00  0.00    -0.425 N  
HETATM   29  O   UNL     1     -10.426   9.057  71.887  1.00  0.00    -0.343 OA 
HETATM   30  C   UNL     1     -11.337   9.470  71.184  1.00  0.00    -0.370 C  
HETATM   31  H   UNL     1     -12.170   9.816  69.313  1.00  0.00     0.000 HD 
ENDBRANCH  27  28
BRANCH  27  32
HETATM   32  C   UNL     1     -10.577   7.675  68.204  1.00  0.00    -0.187 C  
BRANCH  32  33
HETATM   33  C   UNL     1      -9.648   6.564  67.743  1.00  0.00    -0.125 A  
HETATM   34  C   UNL     1      -8.070   4.983  67.177  1.00  0.00    -0.107 A  
HETATM   35  H   UNL     1      -9.401   3.884  65.952  1.00  0.00     0.000 HD 
HETATM   36  C   UNL     1      -6.859   4.276  67.107  1.00  0.00    -0.052 A  
HETATM   37  C   UNL     1     -10.191   5.606  66.891  1.00  0.00    -0.227 A  
HETATM   38  C   UNL     1      -5.769   4.794  67.796  1.00  0.00    -0.017 A  
HETATM   39  N   UNL     1      -9.249   4.684  66.566  1.00  0.00    -0.125 NA 
HETATM   40  C   UNL     1      -5.897   5.979  68.520  1.00  0.00    -0.012 A  
HETATM   41  C   UNL     1      -7.126   6.670  68.590  1.00  0.00    -0.083 A  
HETATM   42  C   UNL     1      -8.259   6.170  67.912  1.00  0.00    -0.117 A  
ENDBRANCH  32  33
ENDBRANCH  27  32
ENDBRANCH  24  27
ENDBRANCH  11  23
ENDBRANCH   7  11
TORSDOF 8
ENDMDL
MODEL      298
REMARK 921   NORMALIZED FREE ENERGY PREDICTED BY IDOCK:   -5.27 KCAL/MOL
REMARK 922        TOTAL FREE ENERGY PREDICTED BY IDOCK:   -9.88 KCAL/MOL
REMARK 923 INTER-LIGAND FREE ENERGY PREDICTED BY IDOCK:   -8.70 KCAL/MOL
REMARK 924 INTRA-LIGAND FREE ENERGY PREDICTED BY IDOCK:   -1.18 KCAL/MOL
REMARK 927      BINDING AFFINITY PREDICTED BY RF-SCORE:    0.00 PKD
ROOT
HETATM    1  C   UNL     1     -14.409  14.674  71.181  1.00  0.00    -0.204 C  
HETATM    2  C   UNL     1     -12.899  14.507  71.435  1.00  0.00    -0.336 C  
HETATM    3  C   UNL     1     -12.147  13.517  70.314  1.00  0.00    -0.355 C  
HETATM    4  N   UNL     1     -12.742  13.903  72.790  1.00  0.00    -0.212 NA 
HETATM    5  C   UNL     1     -12.346  15.956  71.532  1.00  0.00    -0.503 C  
HETATM    6  H2  UNL     1     -13.265  13.034  72.903  1.00  0.00     0.000 HD 
HETATM    7  N   UNL     1     -12.122  12.143  70.579  1.00  0.00    -0.461 N  
HETATM    8  H1  UNL     1     -11.742  13.793  72.959  1.00  0.00     0.000 HD 
HETATM    9  O   UNL     1     -11.670  13.972  69.275  1.00  0.00    -0.280 OA 
HETATM   10  H   UNL     1     -12.421  11.921  71.528  1.00  0.00     0.000 HD 
ENDROOT
BRANCH   7  11
HETATM   11  C   UNL     1     -11.741  10.866  69.751  1.00  0.00    -0.338 C  
BRANCH  11  12
HETATM   12  C   UNL     1     -11.360   9.449  70.387  1.00  0.00    -0.295 C  
BRANCH  12  13
HETATM   13  C   UNL     1     -10.088   8.634  69.847  1.00  0.00    -0.197 A  
HETATM   14  C   UNL     1      -8.769   8.724  70.250  1.00  0.00    -0.161 A  
HETATM   15  C   UNL     1     -10.675   6.037  66.980  1.00  0.00    -0.412 A  
HETATM   16  C   UNL     1      -9.340   5.877  66.622  1.00  0.00    -0.156 A  
HETATM   17  C   UNL     1      -8.342   6.505  67.366  1.00  0.00    -0.120 A  
HETATM   18  N   UNL     1      -7.963   7.965  69.401  1.00  0.00    -0.115 NA 
HETATM   19  C   UNL     1     -11.043   6.892  68.041  1.00  0.00    -0.179 A  
HETATM   20  C   UNL     1     -10.061   7.603  68.780  1.00  0.00    -0.202 A  
HETATM   21  C   UNL     1      -8.732   7.328  68.457  1.00  0.00    -0.123 A  
HETATM   22  H   UNL     1      -6.949   7.893  69.472  1.00  0.00     0.000 HD 
ENDBRANCH  12  13
ENDBRANCH  11  12
BRANCH  11  23
HETATM   23  C   UNL     1     -10.793  11.331  68.613  1.00  0.00    -0.204 C  
HETATM   24  N   UNL     1      -9.505  11.685  68.967  1.00  0.00    -0.410 N  
HETATM   25  H   UNL     1      -9.172  11.504  69.913  1.00  0.00     0.000 HD 
HETATM   26  O   UNL     1     -11.218  11.455  67.461  1.00  0.00    -0.259 OA 
BRANCH  24  27
HETATM   27  C   UNL     1      -8.628  12.308  68.003  1.00  0.00    -0.176 C  
BRANCH  27  28
HETATM   28  N   UNL     1      -8.822  11.673  66.725  1.00  0.00    -0.179 N  
HETATM   29  O   UNL     1      -7.222  10.036  67.042  1.00  0.00    -0.089 OA 
HETATM   30  C   UNL     1      -8.084  10.570  66.360  1.00  0.00    -0.135 C  
HETATM   31  H   UNL     1      -9.517  12.047  66.079  1.00  0.00     0.000 HD 
ENDBRANCH  27  28
BRANCH  27  32
HETATM   32  C   UNL     1      -8.568  13.850  67.961  1.00  0.00    -0.178 C  
BRANCH  32  33
HETATM   33  C   UNL     1      -9.207  14.803  66.964  1.00  0.00    -0.248 A  
HETATM   34  C   UNL     1     -10.340  16.077  65.415  1.00  0.00    -0.359 A  
HETATM   35  H   UNL     1      -9.004  17.711  65.569  1.00  0.00     0.000 HD 
HETATM   36  C   UNL     1     -11.296  16.489  64.472  1.00  0.00    -0.017 A  
HETATM   37  C   UNL     1      -8.585  16.036  66.788  1.00  0.00    -0.257 A  
HETATM   38  C   UNL     1     -12.297  15.587  64.133  1.00  0.00     0.049 A  
HETATM   39  N   UNL     1      -9.263  16.773  65.872  1.00  0.00    -0.522 NA 
HETATM   40  C   UNL     1     -12.327  14.322  64.717  1.00  0.00    -0.440 A  
HETATM   41  C   UNL     1     -11.365  13.929  65.673  1.00  0.00    -0.310 A  
HETATM   42  C   UNL     1     -10.338  14.820  66.051  1.00  0.00    -0.318 A  
ENDBRANCH  32  33
ENDBRANCH  27  32
ENDBRANCH  24  27
ENDBRANCH  11  23
ENDBRANCH   7  11
TORSDOF 8
ENDMDL
MODEL      299
REMARK 921   NORMALIZED FREE ENERGY PREDICTED BY IDOCK:   -5.26 KCAL/MOL
REMARK 922        TOTAL FREE ENERGY PREDICTED BY IDOCK:   -9.86 KCAL/MOL
REMARK 923 INTER-LIGAND FREE ENERGY PREDICTED BY IDOCK:   -7.29 KCAL/MOL
REMARK 924 INTRA-LIGAND FREE ENERGY PREDICTED BY IDOCK:   -2.57 KCAL/MOL
REMARK 927      BINDING AFFINITY PREDICTED BY RF-SCORE:    0.00 PKD
ROOT
HETATM    1  C   UNL     1     -10.548  16.584  67.571  1.00  0.00    -0.313 C  
HETATM    2  C   UNL     1     -10.300  16.240  66.089  1.00  0.00    -0.341 C  
HETATM    3  C   UNL     1     -10.775  14.687  65.684  1.00  0.00    -0.332 C  
HETATM    4  N   UNL     1      -8.834  16.374  65.843  1.00  0.00    -0.456 NA 
HETATM    5  C   UNL     1     -10.986  17.384  65.292  1.00  0.00     0.154 C  
HETATM    6  H2  UNL     1      -8.270  15.814  66.483  1.00  0.00     0.000 HD 
HETATM    7  N   UNL     1      -9.839  13.660  65.853  1.00  0.00    -0.412 N  
HETATM    8  H1  UNL     1      -8.671  16.147  64.862  1.00  0.00     0.000 HD 
HETATM    9  O   UNL     1     -11.917  14.448  65.292  1.00  0.00    -0.368 OA 
HETATM   10  H   UNL     1      -8.901  14.011  66.044  1.00  0.00     0.000 HD 
ENDROOT
BRANCH   7  11
HETATM   11  C   UNL     1      -9.901  12.092  65.815  1.00  0.00    -0.245 C  
BRANCH  11  12
HETATM   12  C   UNL     1     -11.146  11.219  66.309  1.00  0.00    -0.229 C  
BRANCH  12  13
HETATM   13  C   UNL     1     -11.015  10.281  67.603  1.00  0.00    -0.356 A  
HETATM   14  C   UNL     1     -10.459   9.020  67.705  1.00  0.00    -0.260 A  
HETATM   15  C   UNL     1     -12.457  11.632  70.981  1.00  0.00    -0.436 A  
HETATM   16  C   UNL     1     -12.449  10.419  71.665  1.00  0.00    -0.471 A  
HETATM   17  C   UNL     1     -11.897   9.288  71.064  1.00  0.00    -0.376 A  
HETATM   18  N   UNL     1     -10.708   8.494  68.973  1.00  0.00    -0.396 NA 
HETATM   19  C   UNL     1     -11.984  11.718  69.654  1.00  0.00    -0.378 A  
HETATM   20  C   UNL     1     -11.477  10.574  68.983  1.00  0.00    -0.304 A  
HETATM   21  C   UNL     1     -11.389   9.407  69.742  1.00  0.00    -0.042 A  
HETATM   22  H   UNL     1     -10.426   7.565  69.284  1.00  0.00     0.000 HD 
ENDBRANCH  12  13
ENDBRANCH  11  12
BRANCH  11  23
HETATM   23  C   UNL     1      -8.523  11.574  66.305  1.00  0.00    -0.108 C  
HETATM   24  N   UNL     1      -7.977  12.180  67.420  1.00  0.00    -0.159 N  
HETATM   25  H   UNL     1      -8.537  12.837  67.964  1.00  0.00     0.000 HD 
HETATM   26  O   UNL     1      -7.916  10.714  65.659  1.00  0.00    -0.160 OA 
BRANCH  24  27
HETATM   27  C   UNL     1      -6.620  11.889  67.820  1.00  0.00    -0.084 C  
BRANCH  27  28
HETATM   28  N   UNL     1      -5.855  13.109  67.778  1.00  0.00    -0.135 N  
HETATM   29  O   UNL     1      -7.652  14.514  68.154  1.00  0.00    -0.106 OA 
HETATM   30  C   UNL     1      -6.460  14.333  67.956  1.00  0.00    -0.152 C  
HETATM   31  H   UNL     1      -4.850  13.066  67.614  1.00  0.00     0.000 HD 
ENDBRANCH  27  28
BRANCH  27  32
HETATM   32  C   UNL     1      -6.400  11.026  69.081  1.00  0.00    -0.057 C  
BRANCH  32  33
HETATM   33  C   UNL     1      -6.956   9.649  69.402  1.00  0.00    -0.056 A  
HETATM   34  C   UNL     1      -7.727   7.494  69.672  1.00  0.00    -0.100 A  
HETATM   35  H   UNL     1      -8.461   7.848  71.625  1.00  0.00     0.000 HD 
HETATM   36  C   UNL     1      -8.021   6.144  69.423  1.00  0.00    -0.104 A  
HETATM   37  C   UNL     1      -7.542   9.486  70.655  1.00  0.00    -0.122 A  
HETATM   38  C   UNL     1      -7.682   5.630  68.177  1.00  0.00    -0.089 A  
HETATM   39  N   UNL     1      -7.992   8.213  70.797  1.00  0.00    -0.093 NA 
HETATM   40  C   UNL     1      -7.077   6.447  67.223  1.00  0.00    -0.073 A  
HETATM   41  C   UNL     1      -6.778   7.799  67.495  1.00  0.00    -0.068 A  
HETATM   42  C   UNL     1      -7.098   8.356  68.753  1.00  0.00    -0.068 A  
ENDBRANCH  32  33
ENDBRANCH  27  32
ENDBRANCH  24  27
ENDBRANCH  11  23
ENDBRANCH   7  11
TORSDOF 8
ENDMDL
MODEL      300
REMARK 921   NORMALIZED FREE ENERGY PREDICTED BY IDOCK:   -5.22 KCAL/MOL
REMARK 922        TOTAL FREE ENERGY PREDICTED BY IDOCK:   -9.80 KCAL/MOL
REMARK 923 INTER-LIGAND FREE ENERGY PREDICTED BY IDOCK:   -9.01 KCAL/MOL
REMARK 924 INTRA-LIGAND FREE ENERGY PREDICTED BY IDOCK:   -0.79 KCAL/MOL
REMARK 927      BINDING AFFINITY PREDICTED BY RF-SCORE:    0.00 PKD
ROOT
HETATM    1  C   UNL     1     -12.795  11.596  63.763  1.00  0.00    -0.138 C  
HETATM    2  C   UNL     1     -11.547  12.489  63.911  1.00  0.00    -0.442 C  
HETATM    3  C   UNL     1     -11.009  12.611  65.492  1.00  0.00    -0.279 C  
HETATM    4  N   UNL     1     -11.916  13.849  63.422  1.00  0.00    -0.844 NA 
HETATM    5  C   UNL     1     -10.522  11.917  62.893  1.00  0.00     0.071 C  
HETATM    6  H2  UNL     1     -12.738  14.232  63.889  1.00  0.00     0.000 HD 
HETATM    7  N   UNL     1     -11.560  13.624  66.285  1.00  0.00    -0.334 N  
HETATM    8  H1  UNL     1     -11.090  14.440  63.521  1.00  0.00     0.000 HD 
HETATM    9  O   UNL     1     -10.191  11.817  65.954  1.00  0.00    -0.221 OA 
HETATM   10  H   UNL     1     -12.111  14.290  65.745  1.00  0.00     0.000 HD 
ENDROOT
BRANCH   7  11
HETATM   11  C   UNL     1     -11.526  13.969  67.816  1.00  0.00    -0.322 C  
BRANCH  11  12
HETATM   12  C   UNL     1     -11.015  15.357  68.424  1.00  0.00    -0.284 C  
BRANCH  12  13
HETATM   13  C   UNL     1      -9.909  16.223  67.649  1.00  0.00    -0.238 A  
HETATM   14  C   UNL     1      -8.944  15.794  66.757  1.00  0.00    -0.260 A  
HETATM   15  C   UNL     1      -9.814  20.076  68.323  1.00  0.00    -0.475 A  
HETATM   16  C   UNL     1      -8.560  20.314  67.768  1.00  0.00    -0.277 A  
HETATM   17  C   UNL     1      -7.878  19.280  67.128  1.00  0.00    -0.274 A  
HETATM   18  N   UNL     1      -8.081  16.846  66.453  1.00  0.00    -0.290 NA 
HETATM   19  C   UNL     1     -10.376  18.781  68.318  1.00  0.00    -0.391 A  
HETATM   20  C   UNL     1      -9.683  17.687  67.736  1.00  0.00    -0.280 A  
HETATM   21  C   UNL     1      -8.480  17.993  67.097  1.00  0.00    -0.234 A  
HETATM   22  H   UNL     1      -7.269  16.775  65.840  1.00  0.00     0.000 HD 
ENDBRANCH  12  13
ENDBRANCH  11  12
BRANCH  11  23
HETATM   23  C   UNL     1     -10.987  12.713  68.551  1.00  0.00    -0.261 C  
HETATM   24  N   UNL     1     -11.893  11.713  68.843  1.00  0.00    -0.325 N  
HETATM   25  H   UNL     1     -12.837  11.756  68.458  1.00  0.00     0.000 HD 
HETATM   26  O   UNL     1      -9.812  12.668  68.926  1.00  0.00    -0.027 OA 
BRANCH  24  27
HETATM   27  C   UNL     1     -11.513  10.606  69.691  1.00  0.00    -0.291 C  
BRANCH  27  28
HETATM   28  N   UNL     1     -12.606  10.311  70.582  1.00  0.00    -0.420 N  
HETATM   29  O   UNL     1     -12.633  12.386  71.599  1.00  0.00    -0.216 OA 
HETATM   30  C   UNL     1     -13.073  11.254  71.469  1.00  0.00    -0.355 C  
HETATM   31  H   UNL     1     -13.040   9.389  70.555  1.00  0.00     0.000 HD 
ENDBRANCH  27  28
BRANCH  27  32
HETATM   32  C   UNL     1     -10.860   9.373  69.031  1.00  0.00    -0.161 C  
BRANCH  32  33
HETATM   33  C   UNL     1     -10.499   8.035  69.657  1.00  0.00    -0.224 A  
HETATM   34  C   UNL     1      -9.730   6.044  70.525  1.00  0.00    -0.174 A  
HETATM   35  H   UNL     1     -11.609   5.509  71.341  1.00  0.00     0.000 HD 
HETATM   36  C   UNL     1      -8.879   4.983  70.872  1.00  0.00    -0.156 A  
HETATM   37  C   UNL     1     -11.521   7.356  70.317  1.00  0.00    -0.181 A  
HETATM   38  C   UNL     1      -7.563   5.041  70.428  1.00  0.00    -0.063 A  
HETATM   39  N   UNL     1     -11.052   6.185  70.819  1.00  0.00    -0.303 NA 
HETATM   40  C   UNL     1      -7.129   6.122  69.662  1.00  0.00    -0.073 A  
HETATM   41  C   UNL     1      -7.996   7.187  69.333  1.00  0.00    -0.125 A  
HETATM   42  C   UNL     1      -9.338   7.169  69.773  1.00  0.00    -0.146 A  
ENDBRANCH  32  33
ENDBRANCH  27  32
ENDBRANCH  24  27
ENDBRANCH  11  23
ENDBRANCH   7  11
TORSDOF 8
ENDMDL
MODEL      301
REMARK 921   NORMALIZED FREE ENERGY PREDICTED BY IDOCK:   -5.19 KCAL/MOL
REMARK 922        TOTAL FREE ENERGY PREDICTED BY IDOCK:   -9.77 KCAL/MOL
REMARK 923 INTER-LIGAND FREE ENERGY PREDICTED BY IDOCK:   -7.16 KCAL/MOL
REMARK 924 INTRA-LIGAND FREE ENERGY PREDICTED BY IDOCK:   -2.61 KCAL/MOL
REMARK 927      BINDING AFFINITY PREDICTED BY RF-SCORE:    0.00 PKD
ROOT
HETATM    1  C   UNL     1      -7.155   4.015  66.513  1.00  0.00    -0.064 C  
HETATM    2  C   UNL     1      -8.351   4.216  67.464  1.00  0.00    -0.098 C  
HETATM    3  C   UNL     1      -9.379   5.444  66.979  1.00  0.00    -0.121 C  
HETATM    4  N   UNL     1      -7.797   4.554  68.807  1.00  0.00    -0.071 NA 
HETATM    5  C   UNL     1      -8.998   2.809  67.596  1.00  0.00    -0.193 C  
HETATM    6  H2  UNL     1      -7.164   5.355  68.788  1.00  0.00     0.000 HD 
HETATM    7  N   UNL     1      -9.091   6.741  67.421  1.00  0.00    -0.118 N  
HETATM    8  H1  UNL     1      -8.589   4.687  69.436  1.00  0.00     0.000 HD 
HETATM    9  O   UNL     1     -10.330   5.226  66.229  1.00  0.00    -0.228 OA 
HETATM   10  H   UNL     1      -8.370   6.758  68.143  1.00  0.00     0.000 HD 
ENDROOT
BRANCH   7  11
HETATM   11  C   UNL     1      -9.620   8.174  67.061  1.00  0.00    -0.196 C  
BRANCH  11  12
HETATM   12  C   UNL     1      -8.708   9.373  66.526  1.00  0.00    -0.148 C  
BRANCH  12  13
HETATM   13  C   UNL     1      -7.616  10.051  67.486  1.00  0.00    -0.091 A  
HETATM   14  C   UNL     1      -6.625   9.442  68.233  1.00  0.00    -0.058 A  
HETATM   15  C   UNL     1      -7.693  13.945  67.863  1.00  0.00    -0.161 A  
HETATM   16  C   UNL     1      -6.876  14.021  68.988  1.00  0.00    -0.111 A  
HETATM   17  C   UNL     1      -6.273  12.867  69.486  1.00  0.00    -0.118 A  
HETATM   18  N   UNL     1      -6.010  10.384  69.058  1.00  0.00    -0.040 NA 
HETATM   19  C   UNL     1      -7.984  12.702  67.263  1.00  0.00    -0.166 A  
HETATM   20  C   UNL     1      -7.444  11.495  67.781  1.00  0.00    -0.101 A  
HETATM   21  C   UNL     1      -6.546  11.631  68.841  1.00  0.00    -0.079 A  
HETATM   22  H   UNL     1      -5.268  10.177  69.726  1.00  0.00     0.000 HD 
ENDBRANCH  12  13
ENDBRANCH  11  12
BRANCH  11  23
HETATM   23  C   UNL     1     -10.619   8.580  68.178  1.00  0.00    -0.124 C  
HETATM   24  N   UNL     1     -10.873   9.928  68.342  1.00  0.00    -0.327 N  
HETATM   25  H   UNL     1     -10.521  10.596  67.657  1.00  0.00     0.000 HD 
HETATM   26  O   UNL     1     -11.088   7.724  68.934  1.00  0.00     0.039 OA 
BRANCH  24  27
HETATM   27  C   UNL     1     -11.634  10.396  69.477  1.00  0.00    -0.219 C  
BRANCH  27  28
HETATM   28  N   UNL     1     -10.921  10.058  70.681  1.00  0.00    -0.318 N  
HETATM   29  O   UNL     1     -12.729   9.095  71.751  1.00  0.00    -0.326 OA 
HETATM   30  C   UNL     1     -11.552   9.422  71.726  1.00  0.00    -0.363 C  
HETATM   31  H   UNL     1      -9.932  10.294  70.761  1.00  0.00     0.000 HD 
ENDBRANCH  27  28
BRANCH  27  32
HETATM   32  C   UNL     1     -12.198  11.832  69.435  1.00  0.00    -0.219 C  
BRANCH  32  33
HETATM   33  C   UNL     1     -11.709  13.025  68.630  1.00  0.00    -0.359 A  
HETATM   34  C   UNL     1     -11.001  14.700  67.214  1.00  0.00    -0.317 A  
HETATM   35  H   UNL     1     -10.627  16.067  68.786  1.00  0.00     0.000 HD 
HETATM   36  C   UNL     1     -10.668  15.404  66.046  1.00  0.00    -0.326 A  
HETATM   37  C   UNL     1     -11.357  14.165  69.349  1.00  0.00    -0.272 A  
HETATM   38  C   UNL     1     -10.780  14.732  64.835  1.00  0.00    -0.438 A  
HETATM   39  N   UNL     1     -10.940  15.140  68.501  1.00  0.00    -0.251 NA 
HETATM   40  C   UNL     1     -11.203  13.404  64.807  1.00  0.00    -0.360 A  
HETATM   41  C   UNL     1     -11.546  12.716  65.991  1.00  0.00    -0.443 A  
HETATM   42  C   UNL     1     -11.455  13.366  67.240  1.00  0.00    -0.374 A  
ENDBRANCH  32  33
ENDBRANCH  27  32
ENDBRANCH  24  27
ENDBRANCH  11  23
ENDBRANCH   7  11
TORSDOF 8
ENDMDL
MODEL      302
REMARK 921   NORMALIZED FREE ENERGY PREDICTED BY IDOCK:   -5.18 KCAL/MOL
REMARK 922        TOTAL FREE ENERGY PREDICTED BY IDOCK:   -9.75 KCAL/MOL
REMARK 923 INTER-LIGAND FREE ENERGY PREDICTED BY IDOCK:   -8.52 KCAL/MOL
REMARK 924 INTRA-LIGAND FREE ENERGY PREDICTED BY IDOCK:   -1.23 KCAL/MOL
REMARK 927      BINDING AFFINITY PREDICTED BY RF-SCORE:    0.00 PKD
ROOT
HETATM    1  C   UNL     1     -11.654   8.402  70.480  1.00  0.00    -0.136 C  
HETATM    2  C   UNL     1     -11.147   9.847  70.312  1.00  0.00    -0.308 C  
HETATM    3  C   UNL     1     -10.968  10.300  68.710  1.00  0.00    -0.243 C  
HETATM    4  N   UNL     1      -9.820   9.933  70.987  1.00  0.00    -0.218 NA 
HETATM    5  C   UNL     1     -12.126  10.715  71.151  1.00  0.00    -0.445 C  
HETATM    6  H2  UNL     1      -9.156   9.235  70.650  1.00  0.00     0.000 HD 
HETATM    7  N   UNL     1      -9.740  10.029  68.096  1.00  0.00    -0.139 N  
HETATM    8  H1  UNL     1      -9.485  10.890  70.875  1.00  0.00     0.000 HD 
HETATM    9  O   UNL     1     -11.893  10.813  68.082  1.00  0.00    -0.533 OA 
HETATM   10  H   UNL     1      -9.025   9.737  68.761  1.00  0.00     0.000 HD 
ENDROOT
BRANCH   7  11
HETATM   11  C   UNL     1      -9.211  10.071  66.619  1.00  0.00    -0.149 C  
BRANCH  11  12
HETATM   12  C   UNL     1      -7.893   9.327  66.102  1.00  0.00    -0.099 C  
BRANCH  12  13
HETATM   13  C   UNL     1      -7.547   7.846  66.611  1.00  0.00    -0.093 A  
HETATM   14  C   UNL     1      -7.048   6.778  65.889  1.00  0.00    -0.069 A  
HETATM   15  C   UNL     1      -8.195   7.021  70.380  1.00  0.00    -0.124 A  
HETATM   16  C   UNL     1      -8.110   5.636  70.267  1.00  0.00    -0.104 A  
HETATM   17  C   UNL     1      -7.751   5.061  69.049  1.00  0.00    -0.080 A  
HETATM   18  N   UNL     1      -7.058   5.628  66.679  1.00  0.00    -0.068 NA 
HETATM   19  C   UNL     1      -8.001   7.853  69.258  1.00  0.00    -0.117 A  
HETATM   20  C   UNL     1      -7.701   7.303  67.983  1.00  0.00    -0.117 A  
HETATM   21  C   UNL     1      -7.519   5.920  67.940  1.00  0.00    -0.081 A  
HETATM   22  H   UNL     1      -6.766   4.704  66.364  1.00  0.00     0.000 HD 
ENDBRANCH  12  13
ENDBRANCH  11  12
BRANCH  11  23
HETATM   23  C   UNL     1      -9.349  11.539  66.131  1.00  0.00    -0.215 C  
HETATM   24  N   UNL     1     -10.506  11.877  65.458  1.00  0.00    -0.258 N  
HETATM   25  H   UNL     1     -11.282  11.215  65.419  1.00  0.00     0.000 HD 
HETATM   26  O   UNL     1      -8.414  12.332  66.274  1.00  0.00     0.015 OA 
BRANCH  24  27
HETATM   27  C   UNL     1     -10.625  13.161  64.807  1.00  0.00    -0.372 C  
BRANCH  27  28
HETATM   28  N   UNL     1     -11.248  12.972  63.523  1.00  0.00    -0.595 N  
HETATM   29  O   UNL     1     -13.206  12.067  64.353  1.00  0.00    -0.669 OA 
HETATM   30  C   UNL     1     -12.510  12.432  63.418  1.00  0.00    -0.446 C  
HETATM   31  H   UNL     1     -10.746  13.242  62.677  1.00  0.00     0.000 HD 
ENDBRANCH  27  28
BRANCH  27  32
HETATM   32  C   UNL     1     -11.175  14.347  65.629  1.00  0.00    -0.323 C  
BRANCH  32  33
HETATM   33  C   UNL     1     -10.474  15.633  66.035  1.00  0.00    -0.343 A  
HETATM   34  C   UNL     1      -9.308  17.455  66.828  1.00  0.00    -0.268 A  
HETATM   35  H   UNL     1     -10.081  18.769  65.358  1.00  0.00     0.000 HD 
HETATM   36  C   UNL     1      -8.451  18.254  67.601  1.00  0.00    -0.260 A  
HETATM   37  C   UNL     1     -10.742  16.763  65.267  1.00  0.00    -0.169 A  
HETATM   38  C   UNL     1      -7.818  17.659  68.685  1.00  0.00    -0.280 A  
HETATM   39  N   UNL     1     -10.049  17.827  65.748  1.00  0.00    -0.581 NA 
HETATM   40  C   UNL     1      -8.048  16.315  68.979  1.00  0.00    -0.236 A  
HETATM   41  C   UNL     1      -8.903  15.523  68.183  1.00  0.00    -0.169 A  
HETATM   42  C   UNL     1      -9.557  16.089  67.066  1.00  0.00    -0.229 A  
ENDBRANCH  32  33
ENDBRANCH  27  32
ENDBRANCH  24  27
ENDBRANCH  11  23
ENDBRANCH   7  11
TORSDOF 8
ENDMDL
MODEL      303
REMARK 921   NORMALIZED FREE ENERGY PREDICTED BY IDOCK:   -5.18 KCAL/MOL
REMARK 922        TOTAL FREE ENERGY PREDICTED BY IDOCK:   -9.75 KCAL/MOL
REMARK 923 INTER-LIGAND FREE ENERGY PREDICTED BY IDOCK:   -7.96 KCAL/MOL
REMARK 924 INTRA-LIGAND FREE ENERGY PREDICTED BY IDOCK:   -1.78 KCAL/MOL
REMARK 927      BINDING AFFINITY PREDICTED BY RF-SCORE:    0.00 PKD
ROOT
HETATM    1  C   UNL     1      -9.628   5.404  68.572  1.00  0.00    -0.169 C  
HETATM    2  C   UNL     1     -10.046   5.964  67.198  1.00  0.00    -0.177 C  
HETATM    3  C   UNL     1      -9.016   7.155  66.631  1.00  0.00    -0.146 C  
HETATM    4  N   UNL     1     -11.412   6.543  67.354  1.00  0.00    -0.731 NA 
HETATM    5  C   UNL     1     -10.198   4.715  66.286  1.00  0.00    -0.306 C  
HETATM    6  H2  UNL     1     -11.469   7.235  68.101  1.00  0.00     0.000 HD 
HETATM    7  N   UNL     1      -9.287   8.476  67.008  1.00  0.00    -0.153 N  
HETATM    8  H1  UNL     1     -11.689   6.913  66.444  1.00  0.00     0.000 HD 
HETATM    9  O   UNL     1      -8.034   6.880  65.943  1.00  0.00    -0.101 OA 
HETATM   10  H   UNL     1     -10.199   8.578  67.453  1.00  0.00     0.000 HD 
ENDROOT
BRANCH   7  11
HETATM   11  C   UNL     1      -8.509   9.835  66.904  1.00  0.00    -0.120 C  
BRANCH  11  12
HETATM   12  C   UNL     1      -7.219  10.215  67.769  1.00  0.00    -0.087 C  
BRANCH  12  13
HETATM   13  C   UNL     1      -7.009   9.583  69.229  1.00  0.00    -0.050 A  
HETATM   14  C   UNL     1      -5.836   9.168  69.830  1.00  0.00    -0.032 A  
HETATM   15  C   UNL     1     -10.179   9.075  71.465  1.00  0.00    -0.414 A  
HETATM   16  C   UNL     1      -9.592   8.226  72.399  1.00  0.00    -0.364 A  
HETATM   17  C   UNL     1      -8.226   7.957  72.329  1.00  0.00    -0.167 A  
HETATM   18  N   UNL     1      -6.124   8.522  71.032  1.00  0.00    -0.035 NA 
HETATM   19  C   UNL     1      -9.427   9.608  70.397  1.00  0.00    -0.280 A  
HETATM   20  C   UNL     1      -8.047   9.303  70.250  1.00  0.00    -0.165 A  
HETATM   21  C   UNL     1      -7.478   8.537  71.269  1.00  0.00    -0.098 A  
HETATM   22  H   UNL     1      -5.430   8.099  71.647  1.00  0.00     0.000 HD 
ENDBRANCH  12  13
ENDBRANCH  11  12
BRANCH  11  23
HETATM   23  C   UNL     1      -9.576  10.960  66.820  1.00  0.00    -0.183 C  
HETATM   24  N   UNL     1      -9.420  12.045  67.660  1.00  0.00    -0.180 N  
HETATM   25  H   UNL     1      -8.561  12.148  68.200  1.00  0.00     0.000 HD 
HETATM   26  O   UNL     1     -10.561  10.830  66.087  1.00  0.00    -0.239 OA 
BRANCH  24  27
HETATM   27  C   UNL     1     -10.467  13.034  67.780  1.00  0.00    -0.228 C  
BRANCH  27  28
HETATM   28  N   UNL     1     -10.966  13.016  69.131  1.00  0.00    -0.409 N  
HETATM   29  O   UNL     1     -12.405  11.234  68.816  1.00  0.00    -0.518 OA 
HETATM   30  C   UNL     1     -11.908  12.094  69.528  1.00  0.00    -0.321 C  
HETATM   31  H   UNL     1     -10.616  13.697  69.804  1.00  0.00     0.000 HD 
ENDBRANCH  27  28
BRANCH  27  32
HETATM   32  C   UNL     1     -10.211  14.441  67.199  1.00  0.00    -0.257 C  
BRANCH  32  33
HETATM   33  C   UNL     1      -8.984  15.325  67.347  1.00  0.00    -0.194 A  
HETATM   34  C   UNL     1      -7.274  16.844  67.624  1.00  0.00    -0.143 A  
HETATM   35  H   UNL     1      -5.757  15.432  67.190  1.00  0.00     0.000 HD 
HETATM   36  C   UNL     1      -6.582  18.037  67.886  1.00  0.00    -0.193 A  
HETATM   37  C   UNL     1      -7.747  14.722  67.132  1.00  0.00    -0.116 A  
HETATM   38  C   UNL     1      -7.335  19.170  68.169  1.00  0.00    -0.304 A  
HETATM   39  N   UNL     1      -6.752  15.630  67.297  1.00  0.00    -0.246 NA 
HETATM   40  C   UNL     1      -8.727  19.101  68.181  1.00  0.00    -0.360 A  
HETATM   41  C   UNL     1      -9.406  17.889  67.927  1.00  0.00    -0.271 A  
HETATM   42  C   UNL     1      -8.676  16.714  67.645  1.00  0.00    -0.206 A  
ENDBRANCH  32  33
ENDBRANCH  27  32
ENDBRANCH  24  27
ENDBRANCH  11  23
ENDBRANCH   7  11
TORSDOF 8
ENDMDL
MODEL      304
REMARK 921   NORMALIZED FREE ENERGY PREDICTED BY IDOCK:   -5.18 KCAL/MOL
REMARK 922        TOTAL FREE ENERGY PREDICTED BY IDOCK:   -9.74 KCAL/MOL
REMARK 923 INTER-LIGAND FREE ENERGY PREDICTED BY IDOCK:   -8.53 KCAL/MOL
REMARK 924 INTRA-LIGAND FREE ENERGY PREDICTED BY IDOCK:   -1.21 KCAL/MOL
REMARK 927      BINDING AFFINITY PREDICTED BY RF-SCORE:    0.00 PKD
ROOT
HETATM    1  C   UNL     1     -11.439   9.673  71.573  1.00  0.00    -0.439 C  
HETATM    2  C   UNL     1     -12.637  10.479  71.035  1.00  0.00    -0.400 C  
HETATM    3  C   UNL     1     -12.259  11.406  69.693  1.00  0.00    -0.249 C  
HETATM    4  N   UNL     1     -13.091  11.383  72.131  1.00  0.00    -0.495 NA 
HETATM    5  C   UNL     1     -13.766   9.430  70.832  1.00  0.00     0.035 C  
HETATM    6  H2  UNL     1     -12.344  11.974  72.495  1.00  0.00     0.000 HD 
HETATM    7  N   UNL     1     -11.771  12.698  69.917  1.00  0.00    -0.480 N  
HETATM    8  H1  UNL     1     -13.885  11.916  71.774  1.00  0.00     0.000 HD 
HETATM    9  O   UNL     1     -12.366  10.956  68.552  1.00  0.00    -0.490 OA 
HETATM   10  H   UNL     1     -11.867  12.990  70.889  1.00  0.00     0.000 HD 
ENDROOT
BRANCH   7  11
HETATM   11  C   UNL     1     -11.108  13.800  69.017  1.00  0.00    -0.259 C  
BRANCH  11  12
HETATM   12  C   UNL     1     -11.614  15.313  68.911  1.00  0.00    -0.365 C  
BRANCH  12  13
HETATM   13  C   UNL     1     -10.564  16.503  68.679  1.00  0.00    -0.316 A  
HETATM   14  C   UNL     1     -10.809  17.812  68.308  1.00  0.00    -0.145 A  
HETATM   15  C   UNL     1      -6.766  15.700  69.169  1.00  0.00    -0.149 A  
HETATM   16  C   UNL     1      -6.270  16.840  68.543  1.00  0.00    -0.144 A  
HETATM   17  C   UNL     1      -7.151  17.830  68.108  1.00  0.00    -0.219 A  
HETATM   18  N   UNL     1      -9.602  18.464  68.051  1.00  0.00    -0.288 NA 
HETATM   19  C   UNL     1      -8.156  15.492  69.301  1.00  0.00    -0.248 A  
HETATM   20  C   UNL     1      -9.087  16.444  68.809  1.00  0.00    -0.244 A  
HETATM   21  C   UNL     1      -8.544  17.619  68.287  1.00  0.00    -0.268 A  
HETATM   22  H   UNL     1      -9.518  19.428  67.732  1.00  0.00     0.000 HD 
ENDBRANCH  12  13
ENDBRANCH  11  12
BRANCH  11  23
HETATM   23  C   UNL     1     -10.790  13.136  67.651  1.00  0.00    -0.254 C  
HETATM   24  N   UNL     1      -9.735  12.245  67.610  1.00  0.00    -0.190 N  
HETATM   25  H   UNL     1      -9.292  11.944  68.478  1.00  0.00     0.000 HD 
HETATM   26  O   UNL     1     -11.410  13.470  66.637  1.00  0.00    -0.305 OA 
BRANCH  24  27
HETATM   27  C   UNL     1      -9.256  11.736  66.345  1.00  0.00    -0.217 C  
BRANCH  27  28
HETATM   28  N   UNL     1      -7.816  11.794  66.341  1.00  0.00    -0.380 N  
HETATM   29  O   UNL     1      -7.538  10.625  68.315  1.00  0.00    -0.091 OA 
HETATM   30  C   UNL     1      -7.079  11.217  67.349  1.00  0.00    -0.102 C  
HETATM   31  H   UNL     1      -7.336  12.271  65.578  1.00  0.00     0.000 HD 
ENDBRANCH  27  28
BRANCH  27  32
HETATM   32  C   UNL     1      -9.856  10.417  65.815  1.00  0.00    -0.300 C  
BRANCH  32  33
HETATM   33  C   UNL     1      -9.679   9.006  66.351  1.00  0.00    -0.337 A  
HETATM   34  C   UNL     1      -9.247   6.835  66.991  1.00  0.00    -0.137 A  
HETATM   35  H   UNL     1     -10.649   6.872  68.577  1.00  0.00     0.000 HD 
HETATM   36  C   UNL     1      -8.691   5.546  67.041  1.00  0.00    -0.108 A  
HETATM   37  C   UNL     1     -10.464   8.647  67.443  1.00  0.00    -0.281 A  
HETATM   38  C   UNL     1      -7.748   5.214  66.075  1.00  0.00    -0.091 A  
HETATM   39  N   UNL     1     -10.199   7.365  67.806  1.00  0.00    -0.183 NA 
HETATM   40  C   UNL     1      -7.388   6.142  65.099  1.00  0.00    -0.073 A  
HETATM   41  C   UNL     1      -7.948   7.437  65.072  1.00  0.00    -0.129 A  
HETATM   42  C   UNL     1      -8.902   7.817  66.042  1.00  0.00    -0.189 A  
ENDBRANCH  32  33
ENDBRANCH  27  32
ENDBRANCH  24  27
ENDBRANCH  11  23
ENDBRANCH   7  11
TORSDOF 8
ENDMDL
MODEL      305
REMARK 921   NORMALIZED FREE ENERGY PREDICTED BY IDOCK:   -5.16 KCAL/MOL
REMARK 922        TOTAL FREE ENERGY PREDICTED BY IDOCK:   -9.72 KCAL/MOL
REMARK 923 INTER-LIGAND FREE ENERGY PREDICTED BY IDOCK:   -8.26 KCAL/MOL
REMARK 924 INTRA-LIGAND FREE ENERGY PREDICTED BY IDOCK:   -1.45 KCAL/MOL
REMARK 927      BINDING AFFINITY PREDICTED BY RF-SCORE:    0.00 PKD
ROOT
HETATM    1  C   UNL     1      -7.555   3.226  66.091  1.00  0.00    -0.077 C  
HETATM    2  C   UNL     1      -8.564   3.286  67.254  1.00  0.00    -0.110 C  
HETATM    3  C   UNL     1      -9.578   4.615  67.179  1.00  0.00    -0.176 C  
HETATM    4  N   UNL     1      -7.777   3.352  68.520  1.00  0.00    -0.056 NA 
HETATM    5  C   UNL     1      -9.268   1.900  67.245  1.00  0.00    -0.109 C  
HETATM    6  H2  UNL     1      -7.107   4.122  68.533  1.00  0.00     0.000 HD 
HETATM    7  N   UNL     1      -9.140   5.797  67.786  1.00  0.00    -0.107 N  
HETATM    8  H1  UNL     1      -8.446   3.392  69.290  1.00  0.00     0.000 HD 
HETATM    9  O   UNL     1     -10.651   4.570  66.577  1.00  0.00    -0.155 OA 
HETATM   10  H   UNL     1      -8.312   5.658  68.364  1.00  0.00     0.000 HD 
ENDROOT
BRANCH   7  11
HETATM   11  C   UNL     1      -9.630   7.288  67.783  1.00  0.00    -0.138 C  
BRANCH  11  12
HETATM   12  C   UNL     1      -8.816   8.512  67.152  1.00  0.00    -0.139 C  
BRANCH  12  13
HETATM   13  C   UNL     1      -8.952   8.856  65.591  1.00  0.00    -0.249 A  
HETATM   14  C   UNL     1      -8.358   8.228  64.513  1.00  0.00    -0.087 A  
HETATM   15  C   UNL     1     -11.218  11.883  64.585  1.00  0.00    -0.364 A  
HETATM   16  C   UNL     1     -10.759  12.011  63.278  1.00  0.00    -0.400 A  
HETATM   17  C   UNL     1      -9.855  11.080  62.767  1.00  0.00    -0.262 A  
HETATM   18  N   UNL     1      -8.606   8.954  63.348  1.00  0.00    -0.378 NA 
HETATM   19  C   UNL     1     -10.722  10.869  65.432  1.00  0.00    -0.189 A  
HETATM   20  C   UNL     1      -9.750   9.942  64.971  1.00  0.00    -0.359 A  
HETATM   21  C   UNL     1      -9.399  10.042  63.623  1.00  0.00    -0.253 A  
HETATM   22  H   UNL     1      -8.250   8.712  62.424  1.00  0.00     0.000 HD 
ENDBRANCH  12  13
ENDBRANCH  11  12
BRANCH  11  23
HETATM   23  C   UNL     1     -10.224   7.573  69.189  1.00  0.00    -0.202 C  
HETATM   24  N   UNL     1     -11.551   7.949  69.252  1.00  0.00     0.014 N  
HETATM   25  H   UNL     1     -12.132   7.898  68.415  1.00  0.00     0.000 HD 
HETATM   26  O   UNL     1      -9.499   7.542  70.187  1.00  0.00    -0.161 OA 
BRANCH  24  27
HETATM   27  C   UNL     1     -12.120   8.416  70.495  1.00  0.00     0.148 C  
BRANCH  27  28
HETATM   28  N   UNL     1     -12.096   7.335  71.447  1.00  0.00    -0.317 N  
HETATM   29  O   UNL     1     -14.390   7.077  71.553  1.00  0.00    -0.362 OA 
HETATM   30  C   UNL     1     -13.261   6.755  71.893  1.00  0.00    -0.099 C  
HETATM   31  H   UNL     1     -11.200   6.996  71.797  1.00  0.00     0.000 HD 
ENDBRANCH  27  28
BRANCH  27  32
HETATM   32  C   UNL     1     -11.652   9.780  71.046  1.00  0.00    -0.455 C  
BRANCH  32  33
HETATM   33  C   UNL     1     -11.730  11.150  70.392  1.00  0.00    -0.415 A  
HETATM   34  C   UNL     1     -11.957  13.302  69.602  1.00  0.00    -0.314 A  
HETATM   35  H   UNL     1     -11.024  12.874  67.751  1.00  0.00     0.000 HD 
HETATM   36  C   UNL     1     -12.281  14.666  69.528  1.00  0.00    -0.297 A  
HETATM   37  C   UNL     1     -11.192  11.266  69.113  1.00  0.00    -0.273 A  
HETATM   38  C   UNL     1     -12.951  15.229  70.607  1.00  0.00    -0.442 A  
HETATM   39  N   UNL     1     -11.336  12.539  68.662  1.00  0.00    -0.264 NA 
HETATM   40  C   UNL     1     -13.284  14.445  71.711  1.00  0.00    -0.435 A  
HETATM   41  C   UNL     1     -12.939  13.078  71.774  1.00  0.00    -0.420 A  
HETATM   42  C   UNL     1     -12.250  12.472  70.702  1.00  0.00    -0.365 A  
ENDBRANCH  32  33
ENDBRANCH  27  32
ENDBRANCH  24  27
ENDBRANCH  11  23
ENDBRANCH   7  11
TORSDOF 8
ENDMDL
MODEL      306
REMARK 921   NORMALIZED FREE ENERGY PREDICTED BY IDOCK:   -5.16 KCAL/MOL
REMARK 922        TOTAL FREE ENERGY PREDICTED BY IDOCK:   -9.71 KCAL/MOL
REMARK 923 INTER-LIGAND FREE ENERGY PREDICTED BY IDOCK:   -8.26 KCAL/MOL
REMARK 924 INTRA-LIGAND FREE ENERGY PREDICTED BY IDOCK:   -1.46 KCAL/MOL
REMARK 927      BINDING AFFINITY PREDICTED BY RF-SCORE:    0.00 PKD
ROOT
HETATM    1  C   UNL     1      -8.796   5.771  65.640  1.00  0.00    -0.141 C  
HETATM    2  C   UNL     1      -8.181   5.314  66.977  1.00  0.00    -0.108 C  
HETATM    3  C   UNL     1      -8.899   6.027  68.310  1.00  0.00    -0.111 C  
HETATM    4  N   UNL     1      -6.737   5.689  66.950  1.00  0.00    -0.060 NA 
HETATM    5  C   UNL     1      -8.234   3.762  66.932  1.00  0.00    -0.096 C  
HETATM    6  H2  UNL     1      -6.586   6.680  66.759  1.00  0.00     0.000 HD 
HETATM    7  N   UNL     1      -8.384   7.254  68.743  1.00  0.00    -0.128 N  
HETATM    8  H1  UNL     1      -6.330   5.386  67.836  1.00  0.00     0.000 HD 
HETATM    9  O   UNL     1      -9.870   5.514  68.866  1.00  0.00    -0.137 OA 
HETATM   10  H   UNL     1      -7.502   7.492  68.289  1.00  0.00     0.000 HD 
ENDROOT
BRANCH   7  11
HETATM   11  C   UNL     1      -8.851   8.350  69.765  1.00  0.00    -0.134 C  
BRANCH  11  12
HETATM   12  C   UNL     1      -9.017   8.115  71.338  1.00  0.00    -0.188 C  
BRANCH  12  13
HETATM   13  C   UNL     1      -8.671   6.689  71.985  1.00  0.00    -0.127 A  
HETATM   14  C   UNL     1      -7.436   6.085  72.138  1.00  0.00    -0.095 A  
HETATM   15  C   UNL     1     -11.646   4.523  73.313  1.00  0.00    -0.254 A  
HETATM   16  C   UNL     1     -10.947   3.325  73.423  1.00  0.00    -0.301 A  
HETATM   17  C   UNL     1      -9.575   3.298  73.179  1.00  0.00    -0.148 A  
HETATM   18  N   UNL     1      -7.603   4.776  72.590  1.00  0.00    -0.089 NA 
HETATM   19  C   UNL     1     -11.002   5.701  72.880  1.00  0.00    -0.323 A  
HETATM   20  C   UNL     1      -9.619   5.701  72.556  1.00  0.00    -0.167 A  
HETATM   21  C   UNL     1      -8.936   4.505  72.784  1.00  0.00    -0.119 A  
HETATM   22  H   UNL     1      -6.845   4.115  72.751  1.00  0.00     0.000 HD 
ENDBRANCH  12  13
ENDBRANCH  11  12
BRANCH  11  23
HETATM   23  C   UNL     1     -10.033   9.109  69.104  1.00  0.00    -0.187 C  
HETATM   24  N   UNL     1     -10.577  10.167  69.805  1.00  0.00    -0.244 N  
HETATM   25  H   UNL     1     -10.116  10.507  70.649  1.00  0.00     0.000 HD 
HETATM   26  O   UNL     1     -10.509   8.712  68.037  1.00  0.00    -0.223 OA 
BRANCH  24  27
HETATM   27  C   UNL     1     -11.795  10.797  69.350  1.00  0.00    -0.298 C  
BRANCH  27  28
HETATM   28  N   UNL     1     -12.917  10.110  69.939  1.00  0.00    -0.344 N  
HETATM   29  O   UNL     1     -11.967   9.884  72.034  1.00  0.00    -0.247 OA 
HETATM   30  C   UNL     1     -12.894   9.713  71.257  1.00  0.00    -0.350 C  
HETATM   31  H   UNL     1     -13.740   9.915  69.370  1.00  0.00     0.000 HD 
ENDBRANCH  27  28
BRANCH  27  32
HETATM   32  C   UNL     1     -11.881  12.338  69.392  1.00  0.00    -0.370 C  
BRANCH  32  33
HETATM   33  C   UNL     1     -11.779  13.330  68.246  1.00  0.00    -0.388 A  
HETATM   34  C   UNL     1     -11.679  14.651  66.361  1.00  0.00    -0.322 A  
HETATM   35  H   UNL     1     -11.202  16.407  67.443  1.00  0.00     0.000 HD 
HETATM   36  C   UNL     1     -11.728  15.064  65.020  1.00  0.00    -0.291 A  
HETATM   37  C   UNL     1     -11.471  14.646  68.580  1.00  0.00    -0.300 A  
HETATM   38  C   UNL     1     -11.988  14.097  64.057  1.00  0.00    -0.359 A  
HETATM   39  N   UNL     1     -11.413  15.410  67.459  1.00  0.00    -0.281 NA 
HETATM   40  C   UNL     1     -12.184  12.769  64.433  1.00  0.00    -0.499 A  
HETATM   41  C   UNL     1     -12.144  12.374  65.787  1.00  0.00    -0.381 A  
HETATM   42  C   UNL     1     -11.893  13.329  66.796  1.00  0.00    -0.448 A  
ENDBRANCH  32  33
ENDBRANCH  27  32
ENDBRANCH  24  27
ENDBRANCH  11  23
ENDBRANCH   7  11
TORSDOF 8
ENDMDL
MODEL      307
REMARK 921   NORMALIZED FREE ENERGY PREDICTED BY IDOCK:   -5.15 KCAL/MOL
REMARK 922        TOTAL FREE ENERGY PREDICTED BY IDOCK:   -9.71 KCAL/MOL
REMARK 923 INTER-LIGAND FREE ENERGY PREDICTED BY IDOCK:   -7.92 KCAL/MOL
REMARK 924 INTRA-LIGAND FREE ENERGY PREDICTED BY IDOCK:   -1.78 KCAL/MOL
REMARK 927      BINDING AFFINITY PREDICTED BY RF-SCORE:    0.00 PKD
ROOT
HETATM    1  C   UNL     1      -9.144   6.384  72.636  1.00  0.00    -0.135 C  
HETATM    2  C   UNL     1     -10.610   6.731  72.315  1.00  0.00    -0.213 C  
HETATM    3  C   UNL     1     -10.782   7.636  70.916  1.00  0.00    -0.235 C  
HETATM    4  N   UNL     1     -11.141   7.519  73.465  1.00  0.00    -0.573 NA 
HETATM    5  C   UNL     1     -11.358   5.369  72.331  1.00  0.00    -0.242 C  
HETATM    6  H2  UNL     1     -10.574   8.340  73.682  1.00  0.00     0.000 HD 
HETATM    7  N   UNL     1     -10.705   9.028  71.034  1.00  0.00    -0.245 N  
HETATM    8  H1  UNL     1     -12.112   7.749  73.251  1.00  0.00     0.000 HD 
HETATM    9  O   UNL     1     -10.927   7.099  69.819  1.00  0.00    -0.244 OA 
HETATM   10  H   UNL     1     -10.726   9.342  72.004  1.00  0.00     0.000 HD 
ENDROOT
BRANCH   7  11
HETATM   11  C   UNL     1     -10.594  10.219  70.017  1.00  0.00    -0.269 C  
BRANCH  11  12
HETATM   12  C   UNL     1     -11.733  10.632  68.972  1.00  0.00    -0.305 C  
BRANCH  12  13
HETATM   13  C   UNL     1     -11.795  12.126  68.392  1.00  0.00    -0.360 A  
HETATM   14  C   UNL     1     -11.726  12.547  67.078  1.00  0.00    -0.367 A  
HETATM   15  C   UNL     1     -12.163  15.059  70.956  1.00  0.00    -0.386 A  
HETATM   16  C   UNL     1     -11.820  16.089  70.085  1.00  0.00    -0.253 A  
HETATM   17  C   UNL     1     -11.603  15.811  68.736  1.00  0.00    -0.401 A  
HETATM   18  N   UNL     1     -11.645  13.938  67.031  1.00  0.00    -0.349 NA 
HETATM   19  C   UNL     1     -12.217  13.721  70.511  1.00  0.00    -0.440 A  
HETATM   20  C   UNL     1     -11.936  13.388  69.159  1.00  0.00    -0.363 A  
HETATM   21  C   UNL     1     -11.704  14.463  68.299  1.00  0.00    -0.341 A  
HETATM   22  H   UNL     1     -11.554  14.488  66.177  1.00  0.00     0.000 HD 
ENDBRANCH  12  13
ENDBRANCH  11  12
BRANCH  11  23
HETATM   23  C   UNL     1      -9.164  10.168  69.417  1.00  0.00    -0.214 C  
HETATM   24  N   UNL     1      -8.514   8.949  69.430  1.00  0.00    -0.121 N  
HETATM   25  H   UNL     1      -9.023   8.107  69.695  1.00  0.00     0.000 HD 
HETATM   26  O   UNL     1      -8.615  11.203  69.028  1.00  0.00    -0.125 OA 
BRANCH  24  27
HETATM   27  C   UNL     1      -7.118   8.861  69.069  1.00  0.00    -0.064 C  
BRANCH  27  28
HETATM   28  N   UNL     1      -6.354   8.563  70.254  1.00  0.00    -0.034 N  
HETATM   29  O   UNL     1      -6.185  10.753  70.972  1.00  0.00    -0.350 OA 
HETATM   30  C   UNL     1      -5.954   9.561  71.112  1.00  0.00    -0.078 C  
HETATM   31  H   UNL     1      -6.105   7.595  70.459  1.00  0.00     0.000 HD 
ENDBRANCH  27  28
BRANCH  27  32
HETATM   32  C   UNL     1      -6.736   8.035  67.823  1.00  0.00    -0.068 C  
BRANCH  32  33
HETATM   33  C   UNL     1      -7.414   6.798  67.255  1.00  0.00    -0.096 A  
HETATM   34  C   UNL     1      -8.457   4.844  66.619  1.00  0.00    -0.106 A  
HETATM   35  H   UNL     1      -8.429   5.332  64.560  1.00  0.00     0.000 HD 
HETATM   36  C   UNL     1      -9.086   3.591  66.678  1.00  0.00    -0.174 A  
HETATM   37  C   UNL     1      -7.584   6.756  65.874  1.00  0.00    -0.087 A  
HETATM   38  C   UNL     1      -9.213   2.991  67.925  1.00  0.00    -0.247 A  
HETATM   39  N   UNL     1      -8.197   5.598  65.516  1.00  0.00    -0.123 NA 
HETATM   40  C   UNL     1      -8.720   3.629  69.063  1.00  0.00    -0.136 A  
HETATM   41  C   UNL     1      -8.101   4.896  68.986  1.00  0.00    -0.079 A  
HETATM   42  C   UNL     1      -7.962   5.542  67.739  1.00  0.00    -0.101 A  
ENDBRANCH  32  33
ENDBRANCH  27  32
ENDBRANCH  24  27
ENDBRANCH  11  23
ENDBRANCH   7  11
TORSDOF 8
ENDMDL
MODEL      308
REMARK 921   NORMALIZED FREE ENERGY PREDICTED BY IDOCK:   -5.15 KCAL/MOL
REMARK 922        TOTAL FREE ENERGY PREDICTED BY IDOCK:   -9.70 KCAL/MOL
REMARK 923 INTER-LIGAND FREE ENERGY PREDICTED BY IDOCK:   -7.52 KCAL/MOL
REMARK 924 INTRA-LIGAND FREE ENERGY PREDICTED BY IDOCK:   -2.19 KCAL/MOL
REMARK 927      BINDING AFFINITY PREDICTED BY RF-SCORE:    0.00 PKD
ROOT
HETATM    1  C   UNL     1      -8.192  17.376  66.624  1.00  0.00    -0.290 C  
HETATM    2  C   UNL     1      -9.313  16.828  67.528  1.00  0.00    -0.231 C  
HETATM    3  C   UNL     1      -9.319  15.157  67.629  1.00  0.00    -0.189 C  
HETATM    4  N   UNL     1     -10.610  17.279  66.948  1.00  0.00    -0.264 NA 
HETATM    5  C   UNL     1      -9.146  17.583  68.876  1.00  0.00    -0.148 C  
HETATM    6  H2  UNL     1     -10.723  17.016  65.968  1.00  0.00     0.000 HD 
HETATM    7  N   UNL     1     -10.051  14.454  66.665  1.00  0.00    -0.267 N  
HETATM    8  H1  UNL     1     -11.352  16.916  67.546  1.00  0.00     0.000 HD 
HETATM    9  O   UNL     1      -8.672  14.564  68.492  1.00  0.00    -0.169 OA 
HETATM   10  H   UNL     1     -10.647  15.062  66.105  1.00  0.00     0.000 HD 
ENDROOT
BRANCH   7  11
HETATM   11  C   UNL     1     -10.165  12.945  66.248  1.00  0.00    -0.278 C  
BRANCH  11  12
HETATM   12  C   UNL     1     -10.516  12.432  64.774  1.00  0.00    -0.333 C  
BRANCH  12  13
HETATM   13  C   UNL     1      -9.722  11.192  64.139  1.00  0.00    -0.318 A  
HETATM   14  C   UNL     1      -9.866  10.622  62.887  1.00  0.00    -0.229 A  
HETATM   15  C   UNL     1      -7.008   9.444  66.350  1.00  0.00    -0.084 A  
HETATM   16  C   UNL     1      -6.875   8.294  65.577  1.00  0.00    -0.066 A  
HETATM   17  C   UNL     1      -7.560   8.190  64.366  1.00  0.00    -0.115 A  
HETATM   18  N   UNL     1      -9.102   9.458  62.807  1.00  0.00    -0.449 NA 
HETATM   19  C   UNL     1      -7.888  10.478  65.966  1.00  0.00    -0.147 A  
HETATM   20  C   UNL     1      -8.655  10.380  64.774  1.00  0.00    -0.190 A  
HETATM   21  C   UNL     1      -8.409   9.261  63.977  1.00  0.00    -0.178 A  
HETATM   22  H   UNL     1      -9.064   8.842  61.996  1.00  0.00     0.000 HD 
ENDBRANCH  12  13
ENDBRANCH  11  12
BRANCH  11  23
HETATM   23  C   UNL     1     -10.945  12.222  67.379  1.00  0.00    -0.253 C  
HETATM   24  N   UNL     1     -10.238  11.877  68.515  1.00  0.00    -0.217 N  
HETATM   25  H   UNL     1      -9.286  12.218  68.642  1.00  0.00     0.000 HD 
HETATM   26  O   UNL     1     -12.125  11.900  67.213  1.00  0.00    -0.582 OA 
BRANCH  24  27
HETATM   27  C   UNL     1     -10.841  11.035  69.522  1.00  0.00    -0.216 C  
BRANCH  27  28
HETATM   28  N   UNL     1     -12.272  11.074  69.361  1.00  0.00    -0.421 N  
HETATM   29  O   UNL     1     -12.752  11.137  71.620  1.00  0.00    -0.395 OA 
HETATM   30  C   UNL     1     -13.109  11.125  70.452  1.00  0.00     0.158 C  
HETATM   31  H   UNL     1     -12.671  11.064  68.422  1.00  0.00     0.000 HD 
ENDBRANCH  27  28
BRANCH  27  32
HETATM   32  C   UNL     1     -10.250   9.627  69.746  1.00  0.00    -0.262 C  
BRANCH  32  33
HETATM   33  C   UNL     1      -9.970   8.537  68.724  1.00  0.00    -0.197 A  
HETATM   34  C   UNL     1      -9.393   6.791  67.335  1.00  0.00    -0.130 A  
HETATM   35  H   UNL     1     -10.672   7.424  65.772  1.00  0.00     0.000 HD 
HETATM   36  C   UNL     1      -8.788   5.622  66.847  1.00  0.00    -0.113 A  
HETATM   37  C   UNL     1     -10.659   8.617  67.517  1.00  0.00    -0.222 A  
HETATM   38  C   UNL     1      -7.851   4.994  67.658  1.00  0.00    -0.095 A  
HETATM   39  N   UNL     1     -10.306   7.583  66.711  1.00  0.00    -0.287 NA 
HETATM   40  C   UNL     1      -7.535   5.528  68.906  1.00  0.00    -0.082 A  
HETATM   41  C   UNL     1      -8.162   6.697  69.387  1.00  0.00    -0.124 A  
HETATM   42  C   UNL     1      -9.127   7.359  68.597  1.00  0.00    -0.134 A  
ENDBRANCH  32  33
ENDBRANCH  27  32
ENDBRANCH  24  27
ENDBRANCH  11  23
ENDBRANCH   7  11
TORSDOF 8
ENDMDL
MODEL      309
REMARK 921   NORMALIZED FREE ENERGY PREDICTED BY IDOCK:   -5.14 KCAL/MOL
REMARK 922        TOTAL FREE ENERGY PREDICTED BY IDOCK:   -9.69 KCAL/MOL
REMARK 923 INTER-LIGAND FREE ENERGY PREDICTED BY IDOCK:   -8.60 KCAL/MOL
REMARK 924 INTRA-LIGAND FREE ENERGY PREDICTED BY IDOCK:   -1.09 KCAL/MOL
REMARK 927      BINDING AFFINITY PREDICTED BY RF-SCORE:    0.00 PKD
ROOT
HETATM    1  C   UNL     1      -9.036   5.520  73.427  1.00  0.00    -0.129 C  
HETATM    2  C   UNL     1     -10.425   5.707  72.787  1.00  0.00    -0.211 C  
HETATM    3  C   UNL     1     -10.374   5.805  71.117  1.00  0.00    -0.227 C  
HETATM    4  N   UNL     1     -10.993   6.977  73.326  1.00  0.00    -0.495 NA 
HETATM    5  C   UNL     1     -11.292   4.556  73.368  1.00  0.00    -0.376 C  
HETATM    6  H2  UNL     1     -10.377   7.780  73.187  1.00  0.00     0.000 HD 
HETATM    7  N   UNL     1     -10.182   7.070  70.550  1.00  0.00    -0.195 N  
HETATM    8  H1  UNL     1     -11.912   7.101  72.902  1.00  0.00     0.000 HD 
HETATM    9  O   UNL     1     -10.459   4.800  70.413  1.00  0.00    -0.186 OA 
HETATM   10  H   UNL     1     -10.271   7.824  71.231  1.00  0.00     0.000 HD 
ENDROOT
BRANCH   7  11
HETATM   11  C   UNL     1      -9.863   7.596  69.106  1.00  0.00    -0.171 C  
BRANCH  11  12
HETATM   12  C   UNL     1      -8.918   6.850  68.053  1.00  0.00    -0.121 C  
BRANCH  12  13
HETATM   13  C   UNL     1      -9.556   5.955  66.885  1.00  0.00    -0.156 A  
HETATM   14  C   UNL     1     -10.887   5.675  66.638  1.00  0.00    -0.204 A  
HETATM   15  C   UNL     1      -7.106   4.263  64.347  1.00  0.00    -0.047 A  
HETATM   16  C   UNL     1      -8.021   3.367  63.801  1.00  0.00    -0.081 A  
HETATM   17  C   UNL     1      -9.360   3.424  64.184  1.00  0.00    -0.133 A  
HETATM   18  N   UNL     1     -10.989   4.719  65.628  1.00  0.00    -0.875 NA 
HETATM   19  C   UNL     1      -7.497   5.181  65.344  1.00  0.00    -0.077 A  
HETATM   20  C   UNL     1      -8.838   5.225  65.811  1.00  0.00    -0.149 A  
HETATM   21  C   UNL     1      -9.742   4.384  65.159  1.00  0.00    -0.178 A  
HETATM   22  H   UNL     1     -11.865   4.325  65.286  1.00  0.00     0.000 HD 
ENDBRANCH  12  13
ENDBRANCH  11  12
BRANCH  11  23
HETATM   23  C   UNL     1      -9.604   9.122  69.228  1.00  0.00    -0.159 C  
HETATM   24  N   UNL     1      -8.623   9.664  68.420  1.00  0.00    -0.119 N  
HETATM   25  H   UNL     1      -8.201   9.097  67.685  1.00  0.00     0.000 HD 
HETATM   26  O   UNL     1     -10.200   9.788  70.079  1.00  0.00    -0.230 OA 
BRANCH  24  27
HETATM   27  C   UNL     1      -8.190  11.029  68.612  1.00  0.00    -0.151 C  
BRANCH  27  28
HETATM   28  N   UNL     1      -6.799  11.024  68.986  1.00  0.00    -0.075 N  
HETATM   29  O   UNL     1      -7.129  10.065  71.063  1.00  0.00    -0.325 OA 
HETATM   30  C   UNL     1      -6.393  10.528  70.204  1.00  0.00    -0.132 C  
HETATM   31  H   UNL     1      -6.104  11.394  68.338  1.00  0.00     0.000 HD 
ENDBRANCH  27  28
BRANCH  27  32
HETATM   32  C   UNL     1      -8.572  12.073  67.540  1.00  0.00    -0.167 C  
BRANCH  32  33
HETATM   33  C   UNL     1      -9.948  12.420  66.995  1.00  0.00    -0.218 A  
HETATM   34  C   UNL     1     -11.928  13.132  66.057  1.00  0.00    -0.433 A  
HETATM   35  H   UNL     1     -13.068  11.579  66.935  1.00  0.00     0.000 HD 
HETATM   36  C   UNL     1     -12.857  13.874  65.311  1.00  0.00    -0.437 A  
HETATM   37  C   UNL     1     -10.999  11.587  67.368  1.00  0.00    -0.265 A  
HETATM   38  C   UNL     1     -12.394  15.001  64.642  1.00  0.00    -0.223 A  
HETATM   39  N   UNL     1     -12.158  12.021  66.809  1.00  0.00    -0.542 NA 
HETATM   40  C   UNL     1     -11.050  15.363  64.729  1.00  0.00    -0.416 A  
HETATM   41  C   UNL     1     -10.127  14.597  65.473  1.00  0.00    -0.405 A  
HETATM   42  C   UNL     1     -10.557  13.441  66.158  1.00  0.00    -0.294 A  
ENDBRANCH  32  33
ENDBRANCH  27  32
ENDBRANCH  24  27
ENDBRANCH  11  23
ENDBRANCH   7  11
TORSDOF 8
ENDMDL
MODEL      310
REMARK 921   NORMALIZED FREE ENERGY PREDICTED BY IDOCK:   -5.13 KCAL/MOL
REMARK 922        TOTAL FREE ENERGY PREDICTED BY IDOCK:   -9.67 KCAL/MOL
REMARK 923 INTER-LIGAND FREE ENERGY PREDICTED BY IDOCK:   -8.49 KCAL/MOL
REMARK 924 INTRA-LIGAND FREE ENERGY PREDICTED BY IDOCK:   -1.18 KCAL/MOL
REMARK 927      BINDING AFFINITY PREDICTED BY RF-SCORE:    0.00 PKD
ROOT
HETATM    1  C   UNL     1      -9.885   5.098  74.423  1.00  0.00    -0.211 C  
HETATM    2  C   UNL     1     -10.584   4.590  73.148  1.00  0.00    -0.216 C  
HETATM    3  C   UNL     1      -9.867   5.140  71.739  1.00  0.00    -0.174 C  
HETATM    4  N   UNL     1     -11.994   5.075  73.192  1.00  0.00    -0.431 NA 
HETATM    5  C   UNL     1     -10.644   3.046  73.313  1.00  0.00    -0.269 C  
HETATM    6  H2  UNL     1     -12.064   6.087  73.309  1.00  0.00     0.000 HD 
HETATM    7  N   UNL     1     -10.306   6.367  71.228  1.00  0.00    -0.204 N  
HETATM    8  H1  UNL     1     -12.456   4.738  72.347  1.00  0.00     0.000 HD 
HETATM    9  O   UNL     1      -8.959   4.514  71.194  1.00  0.00    -0.118 OA 
HETATM   10  H   UNL     1     -11.150   6.706  71.690  1.00  0.00     0.000 HD 
ENDROOT
BRANCH   7  11
HETATM   11  C   UNL     1      -9.799   7.342  70.107  1.00  0.00    -0.179 C  
BRANCH  11  12
HETATM   12  C   UNL     1      -8.262   7.567  69.724  1.00  0.00    -0.128 C  
BRANCH  12  13
HETATM   13  C   UNL     1      -7.799   7.548  68.189  1.00  0.00    -0.122 A  
HETATM   14  C   UNL     1      -6.693   6.939  67.626  1.00  0.00    -0.067 A  
HETATM   15  C   UNL     1     -10.006   9.481  65.599  1.00  0.00    -0.269 A  
HETATM   16  C   UNL     1      -9.079   9.492  64.562  1.00  0.00    -0.250 A  
HETATM   17  C   UNL     1      -7.874   8.805  64.702  1.00  0.00    -0.127 A  
HETATM   18  N   UNL     1      -6.575   7.317  66.289  1.00  0.00    -0.051 NA 
HETATM   19  C   UNL     1      -9.713   8.849  66.827  1.00  0.00    -0.282 A  
HETATM   20  C   UNL     1      -8.469   8.197  67.034  1.00  0.00    -0.120 A  
HETATM   21  C   UNL     1      -7.615   8.140  65.931  1.00  0.00    -0.082 A  
HETATM   22  H   UNL     1      -5.823   7.025  65.666  1.00  0.00     0.000 HD 
ENDBRANCH  12  13
ENDBRANCH  11  12
BRANCH  11  23
HETATM   23  C   UNL     1     -10.623   8.650  70.239  1.00  0.00    -0.223 C  
HETATM   24  N   UNL     1     -11.975   8.525  70.490  1.00  0.00    -0.487 N  
HETATM   25  H   UNL     1     -12.365   7.610  70.716  1.00  0.00     0.000 HD 
HETATM   26  O   UNL     1     -10.089   9.745  70.038  1.00  0.00    -0.227 OA 
BRANCH  24  27
HETATM   27  C   UNL     1     -12.840   9.681  70.433  1.00  0.00     0.245 C  
BRANCH  27  28
HETATM   28  N   UNL     1     -14.141   9.308  70.926  1.00  0.00    -0.431 N  
HETATM   29  O   UNL     1     -13.436   8.810  73.069  1.00  0.00    -0.270 OA 
HETATM   30  C   UNL     1     -14.318   8.901  72.229  1.00  0.00    -0.333 C  
HETATM   31  H   UNL     1     -14.944   9.346  70.299  1.00  0.00     0.000 HD 
ENDBRANCH  27  28
BRANCH  27  32
HETATM   32  C   UNL     1     -12.300  11.023  70.972  1.00  0.00    -0.490 C  
BRANCH  32  33
HETATM   33  C   UNL     1     -12.210  12.367  70.268  1.00  0.00    -0.345 A  
HETATM   34  C   UNL     1     -11.992  14.284  69.009  1.00  0.00    -0.325 A  
HETATM   35  H   UNL     1     -12.693  15.550  70.555  1.00  0.00     0.000 HD 
HETATM   36  C   UNL     1     -11.723  15.150  67.938  1.00  0.00    -0.275 A  
HETATM   37  C   UNL     1     -12.607  13.485  70.998  1.00  0.00    -0.359 A  
HETATM   38  C   UNL     1     -11.203  14.594  66.775  1.00  0.00    -0.344 A  
HETATM   39  N   UNL     1     -12.470  14.605  70.243  1.00  0.00    -0.348 NA 
HETATM   40  C   UNL     1     -10.961  13.223  66.701  1.00  0.00    -0.297 A  
HETATM   41  C   UNL     1     -11.250  12.366  67.785  1.00  0.00    -0.327 A  
HETATM   42  C   UNL     1     -11.788  12.891  68.980  1.00  0.00    -0.352 A  
ENDBRANCH  32  33
ENDBRANCH  27  32
ENDBRANCH  24  27
ENDBRANCH  11  23
ENDBRANCH   7  11
TORSDOF 8
ENDMDL
MODEL      311
REMARK 921   NORMALIZED FREE ENERGY PREDICTED BY IDOCK:   -5.12 KCAL/MOL
REMARK 922        TOTAL FREE ENERGY PREDICTED BY IDOCK:   -9.66 KCAL/MOL
REMARK 923 INTER-LIGAND FREE ENERGY PREDICTED BY IDOCK:   -7.92 KCAL/MOL
REMARK 924 INTRA-LIGAND FREE ENERGY PREDICTED BY IDOCK:   -1.74 KCAL/MOL
REMARK 927      BINDING AFFINITY PREDICTED BY RF-SCORE:    0.00 PKD
ROOT
HETATM    1  C   UNL     1     -10.147   3.059  71.916  1.00  0.00    -0.152 C  
HETATM    2  C   UNL     1     -10.112   4.502  72.456  1.00  0.00    -0.176 C  
HETATM    3  C   UNL     1     -10.139   5.659  71.247  1.00  0.00    -0.206 C  
HETATM    4  N   UNL     1      -8.850   4.651  73.237  1.00  0.00    -0.107 NA 
HETATM    5  C   UNL     1     -11.276   4.574  73.483  1.00  0.00    -0.388 C  
HETATM    6  H2  UNL     1      -8.017   4.405  72.700  1.00  0.00     0.000 HD 
HETATM    7  N   UNL     1      -8.910   6.062  70.711  1.00  0.00    -0.138 N  
HETATM    8  H1  UNL     1      -8.826   5.606  73.594  1.00  0.00     0.000 HD 
HETATM    9  O   UNL     1     -11.199   6.111  70.815  1.00  0.00    -0.302 OA 
HETATM   10  H   UNL     1      -8.115   5.721  71.251  1.00  0.00     0.000 HD 
ENDROOT
BRANCH   7  11
HETATM   11  C   UNL     1      -8.474   6.917  69.469  1.00  0.00    -0.133 C  
BRANCH  11  12
HETATM   12  C   UNL     1      -7.122   6.700  68.644  1.00  0.00    -0.083 C  
BRANCH  12  13
HETATM   13  C   UNL     1      -7.175   6.339  67.082  1.00  0.00    -0.075 A  
HETATM   14  C   UNL     1      -6.454   6.893  66.041  1.00  0.00    -0.051 A  
HETATM   15  C   UNL     1      -9.672   3.550  65.945  1.00  0.00    -0.049 A  
HETATM   16  C   UNL     1      -9.633   3.834  64.583  1.00  0.00    -0.173 A  
HETATM   17  C   UNL     1      -8.753   4.802  64.101  1.00  0.00    -0.141 A  
HETATM   18  N   UNL     1      -6.933   6.409  64.824  1.00  0.00    -0.050 NA 
HETATM   19  C   UNL     1      -8.888   4.283  66.860  1.00  0.00    -0.118 A  
HETATM   20  C   UNL     1      -8.029   5.324  66.418  1.00  0.00    -0.104 A  
HETATM   21  C   UNL     1      -7.942   5.500  65.036  1.00  0.00    -0.113 A  
HETATM   22  H   UNL     1      -6.585   6.690  63.908  1.00  0.00     0.000 HD 
ENDBRANCH  12  13
ENDBRANCH  11  12
BRANCH  11  23
HETATM   23  C   UNL     1      -8.783   8.400  69.811  1.00  0.00    -0.133 C  
HETATM   24  N   UNL     1      -9.997   8.907  69.391  1.00  0.00    -0.187 N  
HETATM   25  H   UNL     1     -10.701   8.279  69.003  1.00  0.00     0.000 HD 
HETATM   26  O   UNL     1      -7.929   9.103  70.359  1.00  0.00    -0.108 OA 
BRANCH  24  27
HETATM   27  C   UNL     1     -10.276  10.320  69.499  1.00  0.00    -0.236 C  
BRANCH  27  28
HETATM   28  N   UNL     1      -9.510  11.019  68.499  1.00  0.00    -0.182 N  
HETATM   29  O   UNL     1     -10.467   9.944  66.691  1.00  0.00    -0.221 OA 
HETATM   30  C   UNL     1      -9.685  10.759  67.159  1.00  0.00    -0.170 C  
HETATM   31  H   UNL     1      -8.826  11.717  68.789  1.00  0.00     0.000 HD 
ENDBRANCH  27  28
BRANCH  27  32
HETATM   32  C   UNL     1     -11.749  10.767  69.620  1.00  0.00    -0.395 C  
BRANCH  32  33
HETATM   33  C   UNL     1     -12.377  11.719  70.624  1.00  0.00    -0.421 A  
HETATM   34  C   UNL     1     -13.238  13.341  72.016  1.00  0.00    -0.446 A  
HETATM   35  H   UNL     1     -14.141  11.942  73.324  1.00  0.00     0.000 HD 
HETATM   36  C   UNL     1     -13.564  14.594  72.559  1.00  0.00    -0.572 A  
HETATM   37  C   UNL     1     -13.088  11.143  71.674  1.00  0.00    -0.424 A  
HETATM   38  C   UNL     1     -13.064  15.723  71.920  1.00  0.00    -0.492 A  
HETATM   39  N   UNL     1     -13.586  12.111  72.485  1.00  0.00    -0.123 NA 
HETATM   40  C   UNL     1     -12.265  15.589  70.785  1.00  0.00    -0.450 A  
HETATM   41  C   UNL     1     -11.959  14.321  70.245  1.00  0.00    -0.398 A  
HETATM   42  C   UNL     1     -12.455  13.151  70.860  1.00  0.00    -0.407 A  
ENDBRANCH  32  33
ENDBRANCH  27  32
ENDBRANCH  24  27
ENDBRANCH  11  23
ENDBRANCH   7  11
TORSDOF 8
ENDMDL
MODEL      312
REMARK 921   NORMALIZED FREE ENERGY PREDICTED BY IDOCK:   -5.11 KCAL/MOL
REMARK 922        TOTAL FREE ENERGY PREDICTED BY IDOCK:   -9.64 KCAL/MOL
REMARK 923 INTER-LIGAND FREE ENERGY PREDICTED BY IDOCK:   -8.35 KCAL/MOL
REMARK 924 INTRA-LIGAND FREE ENERGY PREDICTED BY IDOCK:   -1.29 KCAL/MOL
REMARK 927      BINDING AFFINITY PREDICTED BY RF-SCORE:    0.00 PKD
ROOT
HETATM    1  C   UNL     1      -7.885   1.996  68.054  1.00  0.00    -0.058 C  
HETATM    2  C   UNL     1      -8.213   2.939  66.881  1.00  0.00    -0.085 C  
HETATM    3  C   UNL     1      -8.360   4.541  67.345  1.00  0.00    -0.104 C  
HETATM    4  N   UNL     1      -9.510   2.487  66.299  1.00  0.00    -0.377 NA 
HETATM    5  C   UNL     1      -7.124   2.645  65.813  1.00  0.00    -0.064 C  
HETATM    6  H2  UNL     1     -10.260   2.431  66.989  1.00  0.00     0.000 HD 
HETATM    7  N   UNL     1      -9.622   4.979  67.765  1.00  0.00    -0.139 N  
HETATM    8  H1  UNL     1      -9.727   3.112  65.522  1.00  0.00     0.000 HD 
HETATM    9  O   UNL     1      -7.389   5.297  67.357  1.00  0.00    -0.080 OA 
HETATM   10  H   UNL     1     -10.357   4.300  67.572  1.00  0.00     0.000 HD 
ENDROOT
BRANCH   7  11
HETATM   11  C   UNL     1     -10.164   6.274  68.466  1.00  0.00    -0.176 C  
BRANCH  11  12
HETATM   12  C   UNL     1     -11.501   6.344  69.341  1.00  0.00    -0.374 C  
BRANCH  12  13
HETATM   13  C   UNL     1     -11.427   6.682  70.907  1.00  0.00    -0.401 A  
HETATM   14  C   UNL     1     -12.283   7.458  71.666  1.00  0.00    -0.330 A  
HETATM   15  C   UNL     1      -8.444   5.188  72.951  1.00  0.00    -0.116 A  
HETATM   16  C   UNL     1      -8.588   5.996  74.075  1.00  0.00    -0.119 A  
HETATM   17  C   UNL     1      -9.666   6.875  74.163  1.00  0.00    -0.331 A  
HETATM   18  N   UNL     1     -11.755   7.631  72.945  1.00  0.00    -0.610 NA 
HETATM   19  C   UNL     1      -9.332   5.299  71.860  1.00  0.00    -0.167 A  
HETATM   20  C   UNL     1     -10.404   6.231  71.882  1.00  0.00    -0.234 A  
HETATM   21  C   UNL     1     -10.573   6.942  73.071  1.00  0.00    -0.278 A  
HETATM   22  H   UNL     1     -12.185   8.189  73.682  1.00  0.00     0.000 HD 
ENDBRANCH  12  13
ENDBRANCH  11  12
BRANCH  11  23
HETATM   23  C   UNL     1     -10.004   7.438  67.451  1.00  0.00    -0.183 C  
HETATM   24  N   UNL     1      -8.725   7.910  67.226  1.00  0.00    -0.130 N  
HETATM   25  H   UNL     1      -7.925   7.409  67.611  1.00  0.00     0.000 HD 
HETATM   26  O   UNL     1     -10.999   7.962  66.943  1.00  0.00    -0.188 OA 
BRANCH  24  27
HETATM   27  C   UNL     1      -8.516   9.110  66.449  1.00  0.00    -0.123 C  
BRANCH  27  28
HETATM   28  N   UNL     1      -9.036   8.897  65.123  1.00  0.00    -0.403 N  
HETATM   29  O   UNL     1      -7.368  10.070  64.035  1.00  0.00    -0.131 OA 
HETATM   30  C   UNL     1      -8.395   9.408  64.017  1.00  0.00    -0.174 C  
HETATM   31  H   UNL     1      -9.894   8.360  65.001  1.00  0.00     0.000 HD 
ENDBRANCH  27  28
BRANCH  27  32
HETATM   32  C   UNL     1      -8.890  10.466  67.085  1.00  0.00    -0.141 C  
BRANCH  32  33
HETATM   33  C   UNL     1      -9.473  11.702  66.421  1.00  0.00    -0.232 A  
HETATM   34  C   UNL     1     -10.498  13.428  65.289  1.00  0.00    -0.324 A  
HETATM   35  H   UNL     1      -9.369  14.929  66.264  1.00  0.00     0.000 HD 
HETATM   36  C   UNL     1     -11.347  14.132  64.421  1.00  0.00    -0.310 A  
HETATM   37  C   UNL     1      -8.960  12.932  66.825  1.00  0.00    -0.179 A  
HETATM   38  C   UNL     1     -12.195  13.390  63.606  1.00  0.00    -0.480 A  
HETATM   39  N   UNL     1      -9.573  13.937  66.148  1.00  0.00    -0.264 NA 
HETATM   40  C   UNL     1     -12.180  11.998  63.664  1.00  0.00    -0.642 A  
HETATM   41  C   UNL     1     -11.328  11.306  64.553  1.00  0.00    -0.091 A  
HETATM   42  C   UNL     1     -10.460  12.024  65.403  1.00  0.00    -0.313 A  
ENDBRANCH  32  33
ENDBRANCH  27  32
ENDBRANCH  24  27
ENDBRANCH  11  23
ENDBRANCH   7  11
TORSDOF 8
ENDMDL
MODEL      313
REMARK 921   NORMALIZED FREE ENERGY PREDICTED BY IDOCK:   -5.11 KCAL/MOL
REMARK 922        TOTAL FREE ENERGY PREDICTED BY IDOCK:   -9.64 KCAL/MOL
REMARK 923 INTER-LIGAND FREE ENERGY PREDICTED BY IDOCK:   -8.64 KCAL/MOL
REMARK 924 INTRA-LIGAND FREE ENERGY PREDICTED BY IDOCK:   -1.00 KCAL/MOL
REMARK 927      BINDING AFFINITY PREDICTED BY RF-SCORE:    0.00 PKD
ROOT
HETATM    1  C   UNL     1      -7.684   5.875  70.959  1.00  0.00    -0.101 C  
HETATM    2  C   UNL     1      -6.868   6.185  69.689  1.00  0.00    -0.065 C  
HETATM    3  C   UNL     1      -7.457   7.497  68.832  1.00  0.00    -0.096 C  
HETATM    4  N   UNL     1      -6.928   4.975  68.819  1.00  0.00    -0.051 NA 
HETATM    5  C   UNL     1      -5.398   6.305  70.178  1.00  0.00    -0.014 C  
HETATM    6  H2  UNL     1      -7.883   4.676  68.617  1.00  0.00     0.000 HD 
HETATM    7  N   UNL     1      -8.446   7.251  67.873  1.00  0.00    -0.118 N  
HETATM    8  H1  UNL     1      -6.388   5.181  67.978  1.00  0.00     0.000 HD 
HETATM    9  O   UNL     1      -7.067   8.641  69.062  1.00  0.00    -0.063 OA 
HETATM   10  H   UNL     1      -8.571   6.256  67.685  1.00  0.00     0.000 HD 
ENDROOT
BRANCH   7  11
HETATM   11  C   UNL     1      -9.406   8.153  67.020  1.00  0.00    -0.155 C  
BRANCH  11  12
HETATM   12  C   UNL     1      -8.939   9.096  65.816  1.00  0.00    -0.237 C  
BRANCH  12  13
HETATM   13  C   UNL     1      -8.957  10.691  65.983  1.00  0.00    -0.189 A  
HETATM   14  C   UNL     1      -8.243  11.476  66.869  1.00  0.00    -0.167 A  
HETATM   15  C   UNL     1     -11.327  12.738  63.638  1.00  0.00    -0.514 A  
HETATM   16  C   UNL     1     -11.281  13.932  64.352  1.00  0.00    -0.341 A  
HETATM   17  C   UNL     1     -10.432  14.049  65.452  1.00  0.00    -0.365 A  
HETATM   18  N   UNL     1      -8.687  12.796  66.794  1.00  0.00    -0.368 NA 
HETATM   19  C   UNL     1     -10.585  11.614  64.057  1.00  0.00    -0.426 A  
HETATM   20  C   UNL     1      -9.761  11.671  65.213  1.00  0.00    -0.255 A  
HETATM   21  C   UNL     1      -9.662  12.918  65.833  1.00  0.00    -0.184 A  
HETATM   22  H   UNL     1      -8.337  13.561  67.369  1.00  0.00     0.000 HD 
ENDBRANCH  12  13
ENDBRANCH  11  12
BRANCH  11  23
HETATM   23  C   UNL     1     -10.394   8.825  68.011  1.00  0.00    -0.220 C  
HETATM   24  N   UNL     1     -10.391   8.369  69.315  1.00  0.00    -0.213 N  
HETATM   25  H   UNL     1      -9.667   7.720  69.623  1.00  0.00     0.000 HD 
HETATM   26  O   UNL     1     -11.200   9.669  67.610  1.00  0.00    -0.132 OA 
BRANCH  24  27
HETATM   27  C   UNL     1     -11.408   8.805  70.244  1.00  0.00    -0.147 C  
BRANCH  27  28
HETATM   28  N   UNL     1     -11.771   7.693  71.085  1.00  0.00    -0.286 N  
HETATM   29  O   UNL     1     -13.979   8.323  71.350  1.00  0.00    -0.339 OA 
HETATM   30  C   UNL     1     -13.053   7.555  71.566  1.00  0.00    -0.356 C  
HETATM   31  H   UNL     1     -11.066   6.997  71.329  1.00  0.00     0.000 HD 
ENDBRANCH  27  28
BRANCH  27  32
HETATM   32  C   UNL     1     -11.192  10.141  70.987  1.00  0.00    -0.322 C  
BRANCH  32  33
HETATM   33  C   UNL     1     -11.594  11.544  70.563  1.00  0.00    -0.096 A  
HETATM   34  C   UNL     1     -12.349  13.672  70.108  1.00  0.00    -0.304 A  
HETATM   35  H   UNL     1     -11.133  13.892  68.390  1.00  0.00     0.000 HD 
HETATM   36  C   UNL     1     -13.047  14.887  70.205  1.00  0.00    -0.112 A  
HETATM   37  C   UNL     1     -10.974  12.056  69.425  1.00  0.00    -0.066 A  
HETATM   38  C   UNL     1     -13.967  15.021  71.238  1.00  0.00    -0.525 A  
HETATM   39  N   UNL     1     -11.432  13.308  69.171  1.00  0.00    -0.288 NA 
HETATM   40  C   UNL     1     -14.177  13.970  72.129  1.00  0.00    -0.628 A  
HETATM   41  C   UNL     1     -13.458  12.760  72.024  1.00  0.00    -0.540 A  
HETATM   42  C   UNL     1     -12.507  12.589  70.994  1.00  0.00    -0.353 A  
ENDBRANCH  32  33
ENDBRANCH  27  32
ENDBRANCH  24  27
ENDBRANCH  11  23
ENDBRANCH   7  11
TORSDOF 8
ENDMDL
MODEL      314
REMARK 921   NORMALIZED FREE ENERGY PREDICTED BY IDOCK:   -5.11 KCAL/MOL
REMARK 922        TOTAL FREE ENERGY PREDICTED BY IDOCK:   -9.64 KCAL/MOL
REMARK 923 INTER-LIGAND FREE ENERGY PREDICTED BY IDOCK:   -7.74 KCAL/MOL
REMARK 924 INTRA-LIGAND FREE ENERGY PREDICTED BY IDOCK:   -1.89 KCAL/MOL
REMARK 927      BINDING AFFINITY PREDICTED BY RF-SCORE:    0.00 PKD
ROOT
HETATM    1  C   UNL     1     -14.219  15.245  72.160  1.00  0.00    -0.667 C  
HETATM    2  C   UNL     1     -12.687  15.084  72.112  1.00  0.00    -0.331 C  
HETATM    3  C   UNL     1     -12.123  14.587  70.616  1.00  0.00    -0.322 C  
HETATM    4  N   UNL     1     -12.317  14.059  73.130  1.00  0.00     0.037 NA 
HETATM    5  C   UNL     1     -12.126  16.439  72.626  1.00  0.00    -0.554 C  
HETATM    6  H2  UNL     1     -12.815  13.177  73.008  1.00  0.00     0.000 HD 
HETATM    7  N   UNL     1     -12.057  13.209  70.376  1.00  0.00    -0.455 N  
HETATM    8  H1  UNL     1     -11.303  13.954  73.098  1.00  0.00     0.000 HD 
HETATM    9  O   UNL     1     -11.818  15.399  69.743  1.00  0.00    -0.304 OA 
HETATM   10  H   UNL     1     -12.200  12.657  71.221  1.00  0.00     0.000 HD 
ENDROOT
BRANCH   7  11
HETATM   11  C   UNL     1     -11.812  12.320  69.107  1.00  0.00    -0.301 C  
BRANCH  11  12
HETATM   12  C   UNL     1     -11.769  10.721  69.109  1.00  0.00    -0.368 C  
BRANCH  12  13
HETATM   13  C   UNL     1     -11.662   9.917  70.493  1.00  0.00    -0.373 A  
HETATM   14  C   UNL     1     -12.542   9.908  71.559  1.00  0.00    -0.416 A  
HETATM   15  C   UNL     1      -8.510   7.667  71.049  1.00  0.00    -0.116 A  
HETATM   16  C   UNL     1      -8.668   7.489  72.420  1.00  0.00    -0.155 A  
HETATM   17  C   UNL     1      -9.802   7.993  73.057  1.00  0.00    -0.352 A  
HETATM   18  N   UNL     1     -11.981   9.211  72.629  1.00  0.00     0.062 NA 
HETATM   19  C   UNL     1      -9.442   8.418  70.302  1.00  0.00    -0.168 A  
HETATM   20  C   UNL     1     -10.575   9.005  70.926  1.00  0.00    -0.316 A  
HETATM   21  C   UNL     1     -10.750   8.711  72.279  1.00  0.00    -0.313 A  
HETATM   22  H   UNL     1     -12.422   9.089  73.540  1.00  0.00     0.000 HD 
ENDBRANCH  12  13
ENDBRANCH  11  12
BRANCH  11  23
HETATM   23  C   UNL     1     -10.666  12.988  68.301  1.00  0.00    -0.245 C  
HETATM   24  N   UNL     1      -9.373  12.610  68.606  1.00  0.00    -0.402 N  
HETATM   25  H   UNL     1      -9.210  11.823  69.234  1.00  0.00     0.000 HD 
HETATM   26  O   UNL     1     -10.917  13.882  67.487  1.00  0.00    -0.269 OA 
BRANCH  24  27
HETATM   27  C   UNL     1      -8.250  13.323  68.041  1.00  0.00    -0.162 C  
BRANCH  27  28
HETATM   28  N   UNL     1      -7.713  14.207  69.043  1.00  0.00    -0.275 N  
HETATM   29  O   UNL     1      -8.201  16.159  67.906  1.00  0.00    -0.150 OA 
HETATM   30  C   UNL     1      -7.744  15.573  68.876  1.00  0.00    -0.175 C  
HETATM   31  H   UNL     1      -7.304  13.814  69.891  1.00  0.00     0.000 HD 
ENDBRANCH  27  28
BRANCH  27  32
HETATM   32  C   UNL     1      -7.196  12.516  67.253  1.00  0.00    -0.114 C  
BRANCH  32  33
HETATM   33  C   UNL     1      -6.967  11.014  67.229  1.00  0.00    -0.096 A  
HETATM   34  C   UNL     1      -6.510   8.762  67.406  1.00  0.00    -0.057 A  
HETATM   35  H   UNL     1      -7.417   8.286  65.554  1.00  0.00     0.000 HD 
HETATM   36  C   UNL     1      -6.056   7.530  67.904  1.00  0.00    -0.043 A  
HETATM   37  C   UNL     1      -7.448  10.323  66.120  1.00  0.00    -0.121 A  
HETATM   38  C   UNL     1      -5.372   7.537  69.114  1.00  0.00    -0.015 A  
HETATM   39  N   UNL     1      -7.169   8.999  66.240  1.00  0.00    -0.089 NA 
HETATM   40  C   UNL     1      -5.152   8.738  69.788  1.00  0.00    -0.030 A  
HETATM   41  C   UNL     1      -5.627   9.966  69.278  1.00  0.00    -0.034 A  
HETATM   42  C   UNL     1      -6.335   9.999  68.057  1.00  0.00    -0.054 A  
ENDBRANCH  32  33
ENDBRANCH  27  32
ENDBRANCH  24  27
ENDBRANCH  11  23
ENDBRANCH   7  11
TORSDOF 8
ENDMDL
MODEL      315
REMARK 921   NORMALIZED FREE ENERGY PREDICTED BY IDOCK:   -5.10 KCAL/MOL
REMARK 922        TOTAL FREE ENERGY PREDICTED BY IDOCK:   -9.63 KCAL/MOL
REMARK 923 INTER-LIGAND FREE ENERGY PREDICTED BY IDOCK:   -8.32 KCAL/MOL
REMARK 924 INTRA-LIGAND FREE ENERGY PREDICTED BY IDOCK:   -1.30 KCAL/MOL
REMARK 927      BINDING AFFINITY PREDICTED BY RF-SCORE:    0.00 PKD
ROOT
HETATM    1  C   UNL     1     -11.234  15.598  72.620  1.00  0.00     0.067 C  
HETATM    2  C   UNL     1     -12.502  15.166  71.859  1.00  0.00    -0.348 C  
HETATM    3  C   UNL     1     -12.557  13.521  71.550  1.00  0.00    -0.266 C  
HETATM    4  N   UNL     1     -12.511  15.899  70.560  1.00  0.00    -0.447 NA 
HETATM    5  C   UNL     1     -13.683  15.733  72.694  1.00  0.00    -0.622 C  
HETATM    6  H2  UNL     1     -11.656  15.765  70.020  1.00  0.00     0.000 HD 
HETATM    7  N   UNL     1     -11.957  13.065  70.370  1.00  0.00    -0.517 N  
HETATM    8  H1  UNL     1     -13.351  15.613  70.057  1.00  0.00     0.000 HD 
HETATM    9  O   UNL     1     -13.067  12.735  72.348  1.00  0.00    -0.375 OA 
HETATM   10  H   UNL     1     -11.703  13.826  69.740  1.00  0.00     0.000 HD 
ENDROOT
BRANCH   7  11
HETATM   11  C   UNL     1     -11.586  11.653  69.794  1.00  0.00    -0.315 C  
BRANCH  11  12
HETATM   12  C   UNL     1     -11.407  11.323  68.239  1.00  0.00    -0.359 C  
BRANCH  12  13
HETATM   13  C   UNL     1     -10.489  10.093  67.774  1.00  0.00    -0.277 A  
HETATM   14  C   UNL     1     -10.757   9.126  66.822  1.00  0.00    -0.038 A  
HETATM   15  C   UNL     1      -7.016   9.651  69.520  1.00  0.00    -0.059 A  
HETATM   16  C   UNL     1      -6.775   8.349  69.090  1.00  0.00    -0.047 A  
HETATM   17  C   UNL     1      -7.658   7.739  68.200  1.00  0.00    -0.116 A  
HETATM   18  N   UNL     1      -9.766   8.145  66.854  1.00  0.00    -0.204 NA 
HETATM   19  C   UNL     1      -8.186  10.338  69.131  1.00  0.00    -0.152 A  
HETATM   20  C   UNL     1      -9.144   9.726  68.280  1.00  0.00    -0.122 A  
HETATM   21  C   UNL     1      -8.809   8.464  67.788  1.00  0.00    -0.137 A  
HETATM   22  H   UNL     1      -9.753   7.311  66.269  1.00  0.00     0.000 HD 
ENDBRANCH  12  13
ENDBRANCH  11  12
BRANCH  11  23
HETATM   23  C   UNL     1     -12.429  10.611  70.576  1.00  0.00    -0.358 C  
HETATM   24  N   UNL     1     -11.745   9.703  71.360  1.00  0.00    -0.380 N  
HETATM   25  H   UNL     1     -10.744   9.821  71.516  1.00  0.00     0.000 HD 
HETATM   26  O   UNL     1     -13.652  10.557  70.421  1.00  0.00     0.100 OA 
BRANCH  24  27
HETATM   27  C   UNL     1     -12.439   8.587  71.961  1.00  0.00    -0.363 C  
BRANCH  27  28
HETATM   28  N   UNL     1     -13.382   8.063  71.007  1.00  0.00    -0.529 N  
HETATM   29  O   UNL     1     -14.292   6.488  72.433  1.00  0.00    -0.128 OA 
HETATM   30  C   UNL     1     -14.240   7.041  71.345  1.00  0.00    -0.179 C  
HETATM   31  H   UNL     1     -13.415   8.456  70.067  1.00  0.00     0.000 HD 
ENDBRANCH  27  28
BRANCH  27  32
HETATM   32  C   UNL     1     -11.603   7.522  72.703  1.00  0.00    -0.331 C  
BRANCH  32  33
HETATM   33  C   UNL     1     -10.576   6.554  72.139  1.00  0.00    -0.240 A  
HETATM   34  C   UNL     1      -9.127   5.114  71.072  1.00  0.00    -0.145 A  
HETATM   35  H   UNL     1      -8.013   4.707  72.825  1.00  0.00     0.000 HD 
HETATM   36  C   UNL     1      -8.500   4.355  70.070  1.00  0.00    -0.087 A  
HETATM   37  C   UNL     1      -9.632   6.051  73.031  1.00  0.00    -0.154 A  
HETATM   38  C   UNL     1      -9.048   4.395  68.794  1.00  0.00    -0.173 A  
HETATM   39  N   UNL     1      -8.788   5.204  72.387  1.00  0.00    -0.127 NA 
HETATM   40  C   UNL     1     -10.184   5.164  68.543  1.00  0.00    -0.182 A  
HETATM   41  C   UNL     1     -10.793   5.931  69.559  1.00  0.00    -0.442 A  
HETATM   42  C   UNL     1     -10.261   5.925  70.866  1.00  0.00    -0.269 A  
ENDBRANCH  32  33
ENDBRANCH  27  32
ENDBRANCH  24  27
ENDBRANCH  11  23
ENDBRANCH   7  11
TORSDOF 8
ENDMDL
MODEL      316
REMARK 921   NORMALIZED FREE ENERGY PREDICTED BY IDOCK:   -5.09 KCAL/MOL
REMARK 922        TOTAL FREE ENERGY PREDICTED BY IDOCK:   -9.61 KCAL/MOL
REMARK 923 INTER-LIGAND FREE ENERGY PREDICTED BY IDOCK:   -7.51 KCAL/MOL
REMARK 924 INTRA-LIGAND FREE ENERGY PREDICTED BY IDOCK:   -2.09 KCAL/MOL
REMARK 927      BINDING AFFINITY PREDICTED BY RF-SCORE:    0.00 PKD
ROOT
HETATM    1  C   UNL     1     -11.813   7.368  70.473  1.00  0.00    -0.187 C  
HETATM    2  C   UNL     1     -11.745   8.769  71.112  1.00  0.00    -0.291 C  
HETATM    3  C   UNL     1     -11.043   9.915  70.114  1.00  0.00    -0.296 C  
HETATM    4  N   UNL     1     -10.929   8.649  72.355  1.00  0.00    -0.321 NA 
HETATM    5  C   UNL     1     -13.200   9.072  71.566  1.00  0.00    -0.388 C  
HETATM    6  H2  UNL     1     -10.009   8.240  72.191  1.00  0.00     0.000 HD 
HETATM    7  N   UNL     1      -9.652  10.059  70.174  1.00  0.00    -0.398 N  
HETATM    8  H1  UNL     1     -10.885   9.577  72.778  1.00  0.00     0.000 HD 
HETATM    9  O   UNL     1     -11.716  10.578  69.326  1.00  0.00    -0.260 OA 
HETATM   10  H   UNL     1      -9.239   9.558  70.960  1.00  0.00     0.000 HD 
ENDROOT
BRANCH   7  11
HETATM   11  C   UNL     1      -8.581  10.814  69.310  1.00  0.00    -0.033 C  
BRANCH  11  12
HETATM   12  C   UNL     1      -8.922  11.832  68.125  1.00  0.00    -0.181 C  
BRANCH  12  13
HETATM   13  C   UNL     1      -9.491  11.287  66.728  1.00  0.00    -0.196 A  
HETATM   14  C   UNL     1      -9.029  10.237  65.956  1.00  0.00    -0.152 A  
HETATM   15  C   UNL     1     -12.585  13.119  65.185  1.00  0.00    -0.525 A  
HETATM   16  C   UNL     1     -12.483  12.576  63.908  1.00  0.00    -0.540 A  
HETATM   17  C   UNL     1     -11.526  11.597  63.645  1.00  0.00    -0.458 A  
HETATM   18  N   UNL     1      -9.706  10.214  64.737  1.00  0.00    -0.315 NA 
HETATM   19  C   UNL     1     -11.680  12.752  66.203  1.00  0.00    -0.458 A  
HETATM   20  C   UNL     1     -10.647  11.809  65.957  1.00  0.00    -0.302 A  
HETATM   21  C   UNL     1     -10.650  11.211  64.696  1.00  0.00    -0.318 A  
HETATM   22  H   UNL     1      -9.525   9.551  63.983  1.00  0.00     0.000 HD 
ENDBRANCH  12  13
ENDBRANCH  11  12
BRANCH  11  23
HETATM   23  C   UNL     1      -7.468   9.787  68.970  1.00  0.00    -0.080 C  
HETATM   24  N   UNL     1      -7.573   8.530  69.533  1.00  0.00    -0.087 N  
HETATM   25  H   UNL     1      -8.424   8.267  70.030  1.00  0.00     0.000 HD 
HETATM   26  O   UNL     1      -6.494  10.126  68.293  1.00  0.00    -0.053 OA 
BRANCH  24  27
HETATM   27  C   UNL     1      -6.484   7.586  69.423  1.00  0.00    -0.036 C  
BRANCH  27  28
HETATM   28  N   UNL     1      -5.365   8.083  70.181  1.00  0.00    -0.023 N  
HETATM   29  O   UNL     1      -6.580   8.563  72.088  1.00  0.00    -0.075 OA 
HETATM   30  C   UNL     1      -5.525   8.532  71.473  1.00  0.00    -0.036 C  
HETATM   31  H   UNL     1      -4.439   8.103  69.754  1.00  0.00     0.000 HD 
ENDBRANCH  27  28
BRANCH  27  32
HETATM   32  C   UNL     1      -6.794   6.088  69.626  1.00  0.00    -0.065 C  
BRANCH  32  33
HETATM   33  C   UNL     1      -7.962   5.446  70.356  1.00  0.00    -0.100 A  
HETATM   34  C   UNL     1      -9.667   4.600  71.656  1.00  0.00    -0.172 A  
HETATM   35  H   UNL     1     -10.439   3.384  70.104  1.00  0.00     0.000 HD 
HETATM   36  C   UNL     1     -10.516   4.362  72.748  1.00  0.00    -0.253 A  
HETATM   37  C   UNL     1      -8.741   4.550  69.628  1.00  0.00    -0.081 A  
HETATM   38  C   UNL     1     -10.225   5.008  73.943  1.00  0.00    -0.259 A  
HETATM   39  N   UNL     1      -9.738   4.060  70.408  1.00  0.00    -0.198 NA 
HETATM   40  C   UNL     1      -9.120   5.854  74.031  1.00  0.00    -0.127 A  
HETATM   41  C   UNL     1      -8.285   6.091  72.919  1.00  0.00    -0.117 A  
HETATM   42  C   UNL     1      -8.552   5.461  71.685  1.00  0.00    -0.131 A  
ENDBRANCH  32  33
ENDBRANCH  27  32
ENDBRANCH  24  27
ENDBRANCH  11  23
ENDBRANCH   7  11
TORSDOF 8
ENDMDL
MODEL      317
REMARK 921   NORMALIZED FREE ENERGY PREDICTED BY IDOCK:   -5.08 KCAL/MOL
REMARK 922        TOTAL FREE ENERGY PREDICTED BY IDOCK:   -9.59 KCAL/MOL
REMARK 923 INTER-LIGAND FREE ENERGY PREDICTED BY IDOCK:   -8.09 KCAL/MOL
REMARK 924 INTRA-LIGAND FREE ENERGY PREDICTED BY IDOCK:   -1.51 KCAL/MOL
REMARK 927      BINDING AFFINITY PREDICTED BY RF-SCORE:    0.00 PKD
ROOT
HETATM    1  C   UNL     1     -10.791  13.234  64.384  1.00  0.00    -0.422 C  
HETATM    2  C   UNL     1     -11.157  14.467  65.232  1.00  0.00    -0.353 C  
HETATM    3  C   UNL     1      -9.873  15.052  66.133  1.00  0.00    -0.301 C  
HETATM    4  N   UNL     1     -12.250  14.057  66.162  1.00  0.00    -0.450 NA 
HETATM    5  C   UNL     1     -11.787  15.471  64.228  1.00  0.00    -0.179 C  
HETATM    6  H2  UNL     1     -12.008  13.242  66.726  1.00  0.00     0.000 HD 
HETATM    7  N   UNL     1      -9.676  14.506  67.407  1.00  0.00    -0.220 N  
HETATM    8  H1  UNL     1     -12.492  14.874  66.723  1.00  0.00     0.000 HD 
HETATM    9  O   UNL     1      -9.105  15.900  65.680  1.00  0.00    -0.311 OA 
HETATM   10  H   UNL     1     -10.458  13.926  67.710  1.00  0.00     0.000 HD 
ENDROOT
BRANCH   7  11
HETATM   11  C   UNL     1      -8.529  14.581  68.475  1.00  0.00    -0.166 C  
BRANCH  11  12
HETATM   12  C   UNL     1      -7.857  15.935  68.995  1.00  0.00    -0.216 C  
BRANCH  12  13
HETATM   13  C   UNL     1      -8.191  17.332  68.280  1.00  0.00    -0.237 A  
HETATM   14  C   UNL     1      -9.375  18.045  68.286  1.00  0.00    -0.295 A  
HETATM   15  C   UNL     1      -5.356  19.026  66.183  1.00  0.00    -0.173 A  
HETATM   16  C   UNL     1      -6.165  19.935  65.508  1.00  0.00    -0.252 A  
HETATM   17  C   UNL     1      -7.518  20.031  65.831  1.00  0.00    -0.321 A  
HETATM   18  N   UNL     1      -9.286  19.115  67.397  1.00  0.00    -0.301 NA 
HETATM   19  C   UNL     1      -5.900  18.140  67.137  1.00  0.00    -0.158 A  
HETATM   20  C   UNL     1      -7.286  18.159  67.445  1.00  0.00    -0.219 A  
HETATM   21  C   UNL     1      -8.038  19.158  66.824  1.00  0.00    -0.273 A  
HETATM   22  H   UNL     1     -10.040  19.773  67.200  1.00  0.00     0.000 HD 
ENDBRANCH  12  13
ENDBRANCH  11  12
BRANCH  11  23
HETATM   23  C   UNL     1      -7.515  13.457  68.129  1.00  0.00    -0.133 C  
HETATM   24  N   UNL     1      -7.995  12.361  67.438  1.00  0.00    -0.169 N  
HETATM   25  H   UNL     1      -8.942  12.377  67.059  1.00  0.00     0.000 HD 
HETATM   26  O   UNL     1      -6.353  13.519  68.540  1.00  0.00    -0.076 OA 
BRANCH  24  27
HETATM   27  C   UNL     1      -7.165  11.194  67.251  1.00  0.00    -0.113 C  
BRANCH  27  28
HETATM   28  N   UNL     1      -6.043  11.555  66.422  1.00  0.00    -0.327 N  
HETATM   29  O   UNL     1      -6.236   9.754  64.986  1.00  0.00    -0.081 OA 
HETATM   30  C   UNL     1      -5.680  10.782  65.342  1.00  0.00    -0.103 C  
HETATM   31  H   UNL     1      -5.510  12.396  66.639  1.00  0.00     0.000 HD 
ENDBRANCH  27  28
BRANCH  27  32
HETATM   32  C   UNL     1      -6.813  10.343  68.489  1.00  0.00    -0.061 C  
BRANCH  32  33
HETATM   33  C   UNL     1      -7.727   9.845  69.596  1.00  0.00    -0.149 A  
HETATM   34  C   UNL     1      -9.291   9.212  71.166  1.00  0.00    -0.243 A  
HETATM   35  H   UNL     1      -7.908   8.072  72.293  1.00  0.00     0.000 HD 
HETATM   36  C   UNL     1     -10.508   9.071  71.852  1.00  0.00    -0.373 A  
HETATM   37  C   UNL     1      -7.152   9.028  70.566  1.00  0.00    -0.073 A  
HETATM   38  C   UNL     1     -11.611   9.755  71.355  1.00  0.00    -0.452 A  
HETATM   39  N   UNL     1      -8.085   8.666  71.483  1.00  0.00    -0.151 NA 
HETATM   40  C   UNL     1     -11.487  10.551  70.217  1.00  0.00    -0.416 A  
HETATM   41  C   UNL     1     -10.258  10.670  69.532  1.00  0.00    -0.190 A  
HETATM   42  C   UNL     1      -9.117   9.983  70.000  1.00  0.00    -0.133 A  
ENDBRANCH  32  33
ENDBRANCH  27  32
ENDBRANCH  24  27
ENDBRANCH  11  23
ENDBRANCH   7  11
TORSDOF 8
ENDMDL
MODEL      318
REMARK 921   NORMALIZED FREE ENERGY PREDICTED BY IDOCK:   -5.05 KCAL/MOL
REMARK 922        TOTAL FREE ENERGY PREDICTED BY IDOCK:   -9.56 KCAL/MOL
REMARK 923 INTER-LIGAND FREE ENERGY PREDICTED BY IDOCK:   -7.47 KCAL/MOL
REMARK 924 INTRA-LIGAND FREE ENERGY PREDICTED BY IDOCK:   -2.09 KCAL/MOL
REMARK 927      BINDING AFFINITY PREDICTED BY RF-SCORE:    0.00 PKD
ROOT
HETATM    1  C   UNL     1      -8.364   4.873  67.119  1.00  0.00    -0.106 C  
HETATM    2  C   UNL     1      -7.357   5.961  67.540  1.00  0.00    -0.077 C  
HETATM    3  C   UNL     1      -8.041   7.161  68.487  1.00  0.00    -0.125 C  
HETATM    4  N   UNL     1      -6.825   6.580  66.292  1.00  0.00    -0.056 NA 
HETATM    5  C   UNL     1      -6.176   5.185  68.186  1.00  0.00    -0.034 C  
HETATM    6  H2  UNL     1      -7.559   6.932  65.676  1.00  0.00     0.000 HD 
HETATM    7  N   UNL     1      -8.616   8.255  67.829  1.00  0.00    -0.130 N  
HETATM    8  H1  UNL     1      -6.159   7.300  66.571  1.00  0.00     0.000 HD 
HETATM    9  O   UNL     1      -8.077   7.068  69.713  1.00  0.00    -0.121 OA 
HETATM   10  H   UNL     1      -8.392   8.275  66.834  1.00  0.00     0.000 HD 
ENDROOT
BRANCH   7  11
HETATM   11  C   UNL     1      -9.524   9.456  68.269  1.00  0.00    -0.137 C  
BRANCH  11  12
HETATM   12  C   UNL     1     -10.652  10.127  67.356  1.00  0.00    -0.329 C  
BRANCH  12  13
HETATM   13  C   UNL     1     -11.305  11.531  67.776  1.00  0.00    -0.364 A  
HETATM   14  C   UNL     1     -11.441  12.681  67.022  1.00  0.00    -0.346 A  
HETATM   15  C   UNL     1     -12.706  11.870  71.413  1.00  0.00    -0.395 A  
HETATM   16  C   UNL     1     -12.814  13.258  71.424  1.00  0.00    -0.411 A  
HETATM   17  C   UNL     1     -12.545  13.983  70.264  1.00  0.00    -0.354 A  
HETATM   18  N   UNL     1     -11.906  13.721  67.826  1.00  0.00    -0.357 NA 
HETATM   19  C   UNL     1     -12.251  11.187  70.265  1.00  0.00    -0.436 A  
HETATM   20  C   UNL     1     -11.902  11.895  69.084  1.00  0.00    -0.371 A  
HETATM   21  C   UNL     1     -12.128  13.272  69.106  1.00  0.00    -0.238 A  
HETATM   22  H   UNL     1     -12.060  14.678  67.509  1.00  0.00     0.000 HD 
ENDBRANCH  12  13
ENDBRANCH  11  12
BRANCH  11  23
HETATM   23  C   UNL     1      -8.606  10.472  69.000  1.00  0.00    -0.157 C  
HETATM   24  N   UNL     1      -8.005  11.450  68.231  1.00  0.00    -0.128 N  
HETATM   25  H   UNL     1      -8.279  11.567  67.256  1.00  0.00     0.000 HD 
HETATM   26  O   UNL     1      -8.367  10.341  70.204  1.00  0.00    -0.048 OA 
BRANCH  24  27
HETATM   27  C   UNL     1      -6.991  12.308  68.800  1.00  0.00    -0.098 C  
BRANCH  27  28
HETATM   28  N   UNL     1      -5.807  11.524  69.041  1.00  0.00    -0.048 N  
HETATM   29  O   UNL     1      -5.546  12.181  71.242  1.00  0.00    -0.371 OA 
HETATM   30  C   UNL     1      -5.185  11.535  70.269  1.00  0.00    -0.093 C  
HETATM   31  H   UNL     1      -5.422  10.952  68.289  1.00  0.00     0.000 HD 
ENDBRANCH  27  28
BRANCH  27  32
HETATM   32  C   UNL     1      -6.740  13.680  68.138  1.00  0.00    -0.122 C  
BRANCH  32  33
HETATM   33  C   UNL     1      -7.652  14.895  68.087  1.00  0.00    -0.115 A  
HETATM   34  C   UNL     1      -8.871  16.837  67.865  1.00  0.00    -0.218 A  
HETATM   35  H   UNL     1     -10.441  16.164  69.115  1.00  0.00     0.000 HD 
HETATM   36  C   UNL     1      -9.265  18.124  67.465  1.00  0.00    -0.257 A  
HETATM   37  C   UNL     1      -8.836  14.821  68.815  1.00  0.00    -0.179 A  
HETATM   38  C   UNL     1      -8.394  18.841  66.653  1.00  0.00    -0.296 A  
HETATM   39  N   UNL     1      -9.541  15.973  68.676  1.00  0.00    -0.213 NA 
HETATM   40  C   UNL     1      -7.176  18.282  66.267  1.00  0.00    -0.297 A  
HETATM   41  C   UNL     1      -6.802  16.982  66.669  1.00  0.00    -0.279 A  
HETATM   42  C   UNL     1      -7.664  16.218  67.486  1.00  0.00    -0.169 A  
ENDBRANCH  32  33
ENDBRANCH  27  32
ENDBRANCH  24  27
ENDBRANCH  11  23
ENDBRANCH   7  11
TORSDOF 8
ENDMDL
MODEL      319
REMARK 921   NORMALIZED FREE ENERGY PREDICTED BY IDOCK:   -5.03 KCAL/MOL
REMARK 922        TOTAL FREE ENERGY PREDICTED BY IDOCK:   -9.53 KCAL/MOL
REMARK 923 INTER-LIGAND FREE ENERGY PREDICTED BY IDOCK:   -7.36 KCAL/MOL
REMARK 924 INTRA-LIGAND FREE ENERGY PREDICTED BY IDOCK:   -2.17 KCAL/MOL
REMARK 927      BINDING AFFINITY PREDICTED BY RF-SCORE:    0.00 PKD
ROOT
HETATM    1  C   UNL     1     -12.135   7.243  70.842  1.00  0.00    -0.326 C  
HETATM    2  C   UNL     1     -12.009   8.647  71.466  1.00  0.00    -0.306 C  
HETATM    3  C   UNL     1     -11.590   9.827  70.356  1.00  0.00    -0.258 C  
HETATM    4  N   UNL     1     -10.948   8.572  72.512  1.00  0.00    -0.321 NA 
HETATM    5  C   UNL     1     -13.351   8.873  72.215  1.00  0.00    -0.497 C  
HETATM    6  H2  UNL     1     -10.062   8.213  72.157  1.00  0.00     0.000 HD 
HETATM    7  N   UNL     1     -10.226  10.044  70.128  1.00  0.00    -0.342 N  
HETATM    8  H1  UNL     1     -10.865   9.502  72.926  1.00  0.00     0.000 HD 
HETATM    9  O   UNL     1     -12.445  10.452  69.731  1.00  0.00    -0.163 OA 
HETATM   10  H   UNL     1      -9.633   9.567  70.807  1.00  0.00     0.000 HD 
ENDROOT
BRANCH   7  11
HETATM   11  C   UNL     1      -9.398  10.854  69.068  1.00  0.00    -0.131 C  
BRANCH  11  12
HETATM   12  C   UNL     1     -10.029  11.860  67.996  1.00  0.00    -0.192 C  
BRANCH  12  13
HETATM   13  C   UNL     1     -10.216  13.412  68.355  1.00  0.00    -0.251 A  
HETATM   14  C   UNL     1      -9.516  14.502  67.871  1.00  0.00    -0.212 A  
HETATM   15  C   UNL     1     -12.975  14.357  70.963  1.00  0.00    -0.416 A  
HETATM   16  C   UNL     1     -12.539  15.656  71.206  1.00  0.00    -0.523 A  
HETATM   17  C   UNL     1     -11.484  16.184  70.464  1.00  0.00    -0.363 A  
HETATM   18  N   UNL     1      -9.884  15.649  68.574  1.00  0.00    -0.202 NA 
HETATM   19  C   UNL     1     -12.312  13.533  70.029  1.00  0.00    -0.315 A  
HETATM   20  C   UNL     1     -11.190  14.010  69.301  1.00  0.00    -0.304 A  
HETATM   21  C   UNL     1     -10.856  15.351  69.498  1.00  0.00    -0.267 A  
HETATM   22  H   UNL     1      -9.486  16.576  68.424  1.00  0.00     0.000 HD 
ENDBRANCH  12  13
ENDBRANCH  11  12
BRANCH  11  23
HETATM   23  C   UNL     1      -8.337   9.883  68.485  1.00  0.00    -0.108 C  
HETATM   24  N   UNL     1      -8.182   8.662  69.114  1.00  0.00    -0.116 N  
HETATM   25  H   UNL     1      -8.843   8.377  69.836  1.00  0.00     0.000 HD 
HETATM   26  O   UNL     1      -7.612  10.241  67.553  1.00  0.00    -0.093 OA 
BRANCH  24  27
HETATM   27  C   UNL     1      -7.089   7.789  68.754  1.00  0.00    -0.076 C  
BRANCH  27  28
HETATM   28  N   UNL     1      -5.851   8.420  69.131  1.00  0.00    -0.038 N  
HETATM   29  O   UNL     1      -6.419   8.723  71.351  1.00  0.00    -0.059 OA 
HETATM   30  C   UNL     1      -5.629   8.834  70.425  1.00  0.00    -0.027 C  
HETATM   31  H   UNL     1      -5.126   8.563  68.428  1.00  0.00     0.000 HD 
ENDBRANCH  27  28
BRANCH  27  32
HETATM   32  C   UNL     1      -7.197   6.294  69.126  1.00  0.00    -0.087 C  
BRANCH  32  33
HETATM   33  C   UNL     1      -8.269   5.589  69.941  1.00  0.00    -0.105 A  
HETATM   34  C   UNL     1      -9.805   4.633  71.368  1.00  0.00    -0.194 A  
HETATM   35  H   UNL     1     -10.765   3.539  69.832  1.00  0.00     0.000 HD 
HETATM   36  C   UNL     1     -10.515   4.304  72.534  1.00  0.00    -0.222 A  
HETATM   37  C   UNL     1      -9.134   4.749  69.245  1.00  0.00    -0.105 A  
HETATM   38  C   UNL     1     -10.077   4.855  73.732  1.00  0.00    -0.212 A  
HETATM   39  N   UNL     1     -10.030   4.193  70.100  1.00  0.00    -0.167 NA 
HETATM   40  C   UNL     1      -8.967   5.698  73.751  1.00  0.00    -0.123 A  
HETATM   41  C   UNL     1      -8.272   6.028  72.567  1.00  0.00    -0.108 A  
HETATM   42  C   UNL     1      -8.692   5.496  71.329  1.00  0.00    -0.135 A  
ENDBRANCH  32  33
ENDBRANCH  27  32
ENDBRANCH  24  27
ENDBRANCH  11  23
ENDBRANCH   7  11
TORSDOF 8
ENDMDL
MODEL      320
REMARK 921   NORMALIZED FREE ENERGY PREDICTED BY IDOCK:   -5.03 KCAL/MOL
REMARK 922        TOTAL FREE ENERGY PREDICTED BY IDOCK:   -9.53 KCAL/MOL
REMARK 923 INTER-LIGAND FREE ENERGY PREDICTED BY IDOCK:   -7.96 KCAL/MOL
REMARK 924 INTRA-LIGAND FREE ENERGY PREDICTED BY IDOCK:   -1.57 KCAL/MOL
REMARK 927      BINDING AFFINITY PREDICTED BY RF-SCORE:    0.00 PKD
ROOT
HETATM    1  C   UNL     1      -7.977   7.762  62.605  1.00  0.00    -0.132 C  
HETATM    2  C   UNL     1      -7.584   8.847  63.626  1.00  0.00    -0.118 C  
HETATM    3  C   UNL     1      -8.122   8.519  65.177  1.00  0.00    -0.142 C  
HETATM    4  N   UNL     1      -8.193  10.129  63.166  1.00  0.00    -0.153 NA 
HETATM    5  C   UNL     1      -6.046   9.008  63.466  1.00  0.00    -0.088 C  
HETATM    6  H2  UNL     1      -9.202  10.062  63.023  1.00  0.00     0.000 HD 
HETATM    7  N   UNL     1      -9.402   8.965  65.524  1.00  0.00    -0.409 N  
HETATM    8  H1  UNL     1      -7.933  10.847  63.842  1.00  0.00     0.000 HD 
HETATM    9  O   UNL     1      -7.437   7.875  65.970  1.00  0.00    -0.075 OA 
HETATM   10  H   UNL     1      -9.798   9.601  64.832  1.00  0.00     0.000 HD 
ENDROOT
BRANCH   7  11
HETATM   11  C   UNL     1     -10.369   8.711  66.734  1.00  0.00    -0.266 C  
BRANCH  11  12
HETATM   12  C   UNL     1     -10.447   9.624  68.044  1.00  0.00    -0.276 C  
BRANCH  12  13
HETATM   13  C   UNL     1     -11.139  11.070  67.985  1.00  0.00    -0.343 A  
HETATM   14  C   UNL     1     -11.758  11.775  68.999  1.00  0.00    -0.328 A  
HETATM   15  C   UNL     1     -11.165  12.933  64.544  1.00  0.00    -0.372 A  
HETATM   16  C   UNL     1     -12.122  13.888  64.876  1.00  0.00    -0.434 A  
HETATM   17  C   UNL     1     -12.613  13.952  66.180  1.00  0.00    -0.426 A  
HETATM   18  N   UNL     1     -12.376  12.911  68.477  1.00  0.00     0.066 NA 
HETATM   19  C   UNL     1     -10.740  11.974  65.488  1.00  0.00    -0.318 A  
HETATM   20  C   UNL     1     -11.267  11.963  66.807  1.00  0.00    -0.384 A  
HETATM   21  C   UNL     1     -12.141  13.003  67.126  1.00  0.00    -0.264 A  
HETATM   22  H   UNL     1     -12.923  13.578  69.020  1.00  0.00     0.000 HD 
ENDBRANCH  12  13
ENDBRANCH  11  12
BRANCH  11  23
HETATM   23  C   UNL     1     -10.346   7.186  67.018  1.00  0.00    -0.298 C  
HETATM   24  N   UNL     1      -9.219   6.672  67.630  1.00  0.00    -0.112 N  
HETATM   25  H   UNL     1      -8.510   7.306  67.998  1.00  0.00     0.000 HD 
HETATM   26  O   UNL     1     -11.269   6.466  66.627  1.00  0.00    -0.245 OA 
BRANCH  24  27
HETATM   27  C   UNL     1      -9.040   5.244  67.752  1.00  0.00    -0.110 C  
BRANCH  27  28
HETATM   28  N   UNL     1      -8.085   4.813  66.763  1.00  0.00    -0.107 N  
HETATM   29  O   UNL     1      -9.645   3.876  65.338  1.00  0.00    -0.165 OA 
HETATM   30  C   UNL     1      -8.490   4.157  65.623  1.00  0.00    -0.110 C  
HETATM   31  H   UNL     1      -7.093   4.997  66.911  1.00  0.00     0.000 HD 
ENDBRANCH  27  28
BRANCH  27  32
HETATM   32  C   UNL     1      -8.828   4.653  69.163  1.00  0.00    -0.126 C  
BRANCH  32  33
HETATM   33  C   UNL     1      -9.226   5.234  70.510  1.00  0.00    -0.187 A  
HETATM   34  C   UNL     1      -9.977   6.259  72.431  1.00  0.00    -0.172 A  
HETATM   35  H   UNL     1      -8.756   5.090  73.704  1.00  0.00     0.000 HD 
HETATM   36  C   UNL     1     -10.684   7.107  73.299  1.00  0.00    -0.403 A  
HETATM   37  C   UNL     1      -8.608   4.691  71.633  1.00  0.00    -0.117 A  
HETATM   38  C   UNL     1     -11.552   8.032  72.732  1.00  0.00    -0.390 A  
HETATM   39  N   UNL     1      -9.060   5.308  72.756  1.00  0.00    -0.133 NA 
HETATM   40  C   UNL     1     -11.695   8.101  71.347  1.00  0.00    -0.321 A  
HETATM   41  C   UNL     1     -10.986   7.232  70.489  1.00  0.00    -0.282 A  
HETATM   42  C   UNL     1     -10.101   6.272  71.028  1.00  0.00    -0.221 A  
ENDBRANCH  32  33
ENDBRANCH  27  32
ENDBRANCH  24  27
ENDBRANCH  11  23
ENDBRANCH   7  11
TORSDOF 8
ENDMDL
MODEL      321
REMARK 921   NORMALIZED FREE ENERGY PREDICTED BY IDOCK:   -5.03 KCAL/MOL
REMARK 922        TOTAL FREE ENERGY PREDICTED BY IDOCK:   -9.52 KCAL/MOL
REMARK 923 INTER-LIGAND FREE ENERGY PREDICTED BY IDOCK:   -7.87 KCAL/MOL
REMARK 924 INTRA-LIGAND FREE ENERGY PREDICTED BY IDOCK:   -1.65 KCAL/MOL
REMARK 927      BINDING AFFINITY PREDICTED BY RF-SCORE:    0.00 PKD
ROOT
HETATM    1  C   UNL     1      -9.401   2.763  64.970  1.00  0.00    -0.126 C  
HETATM    2  C   UNL     1      -9.917   4.085  64.369  1.00  0.00    -0.186 C  
HETATM    3  C   UNL     1      -9.024   5.418  64.845  1.00  0.00     0.005 C  
HETATM    4  N   UNL     1     -11.325   4.260  64.830  1.00  0.00    -1.051 NA 
HETATM    5  C   UNL     1      -9.983   3.830  62.838  1.00  0.00    -0.157 C  
HETATM    6  H2  UNL     1     -11.421   4.219  65.845  1.00  0.00     0.000 HD 
HETATM    7  N   UNL     1      -9.403   6.061  66.029  1.00  0.00    -0.298 N  
HETATM    8  H1  UNL     1     -11.666   5.135  64.432  1.00  0.00     0.000 HD 
HETATM    9  O   UNL     1      -8.044   5.796  64.203  1.00  0.00    -0.121 OA 
HETATM   10  H   UNL     1     -10.304   5.738  66.380  1.00  0.00     0.000 HD 
ENDROOT
BRANCH   7  11
HETATM   11  C   UNL     1      -8.760   7.164  66.941  1.00  0.00    -0.126 C  
BRANCH  11  12
HETATM   12  C   UNL     1      -7.351   7.023  67.685  1.00  0.00    -0.096 C  
BRANCH  12  13
HETATM   13  C   UNL     1      -6.711   8.278  68.452  1.00  0.00    -0.064 A  
HETATM   14  C   UNL     1      -6.596   8.495  69.812  1.00  0.00    -0.039 A  
HETATM   15  C   UNL     1      -5.276  11.198  66.277  1.00  0.00    -0.132 A  
HETATM   16  C   UNL     1      -5.185  12.140  67.298  1.00  0.00    -0.106 A  
HETATM   17  C   UNL     1      -5.474  11.769  68.611  1.00  0.00    -0.049 A  
HETATM   18  N   UNL     1      -6.135   9.789  70.047  1.00  0.00    -0.044 NA 
HETATM   19  C   UNL     1      -5.734   9.889  66.538  1.00  0.00    -0.053 A  
HETATM   20  C   UNL     1      -6.105   9.492  67.850  1.00  0.00    -0.052 A  
HETATM   21  C   UNL     1      -5.894  10.434  68.858  1.00  0.00    -0.040 A  
HETATM   22  H   UNL     1      -5.996  10.199  70.970  1.00  0.00     0.000 HD 
ENDBRANCH  12  13
ENDBRANCH  11  12
BRANCH  11  23
HETATM   23  C   UNL     1      -9.897   7.735  67.830  1.00  0.00    -0.160 C  
HETATM   24  N   UNL     1      -9.848   9.081  68.136  1.00  0.00    -0.160 N  
HETATM   25  H   UNL     1      -9.167   9.681  67.671  1.00  0.00     0.000 HD 
HETATM   26  O   UNL     1     -10.753   6.982  68.305  1.00  0.00    -0.208 OA 
BRANCH  24  27
HETATM   27  C   UNL     1     -10.755   9.643  69.110  1.00  0.00    -0.217 C  
BRANCH  27  28
HETATM   28  N   UNL     1     -10.009   9.977  70.296  1.00  0.00    -0.395 N  
HETATM   29  O   UNL     1     -10.732   8.165  71.535  1.00  0.00    -0.221 OA 
HETATM   30  C   UNL     1     -10.069   9.186  71.420  1.00  0.00    -0.322 C  
HETATM   31  H   UNL     1      -9.427  10.815  70.303  1.00  0.00     0.000 HD 
ENDBRANCH  27  28
BRANCH  27  32
HETATM   32  C   UNL     1     -11.750  10.726  68.640  1.00  0.00    -0.289 C  
BRANCH  32  33
HETATM   33  C   UNL     1     -11.462  12.064  67.981  1.00  0.00    -0.392 A  
HETATM   34  C   UNL     1     -11.126  14.004  66.782  1.00  0.00    -0.306 A  
HETATM   35  H   UNL     1     -10.196  15.009  68.396  1.00  0.00     0.000 HD 
HETATM   36  C   UNL     1     -11.130  14.940  65.737  1.00  0.00    -0.342 A  
HETATM   37  C   UNL     1     -10.833  13.027  68.765  1.00  0.00    -0.244 A  
HETATM   38  C   UNL     1     -11.655  14.539  64.514  1.00  0.00    -0.385 A  
HETATM   39  N   UNL     1     -10.641  14.162  68.044  1.00  0.00    -0.236 NA 
HETATM   40  C   UNL     1     -12.149  13.245  64.354  1.00  0.00    -0.471 A  
HETATM   41  C   UNL     1     -12.148  12.320  65.421  1.00  0.00    -0.343 A  
HETATM   42  C   UNL     1     -11.633  12.693  66.681  1.00  0.00    -0.443 A  
ENDBRANCH  32  33
ENDBRANCH  27  32
ENDBRANCH  24  27
ENDBRANCH  11  23
ENDBRANCH   7  11
TORSDOF 8
ENDMDL
MODEL      322
REMARK 921   NORMALIZED FREE ENERGY PREDICTED BY IDOCK:   -5.03 KCAL/MOL
REMARK 922        TOTAL FREE ENERGY PREDICTED BY IDOCK:   -9.52 KCAL/MOL
REMARK 923 INTER-LIGAND FREE ENERGY PREDICTED BY IDOCK:   -8.15 KCAL/MOL
REMARK 924 INTRA-LIGAND FREE ENERGY PREDICTED BY IDOCK:   -1.37 KCAL/MOL
REMARK 927      BINDING AFFINITY PREDICTED BY RF-SCORE:    0.00 PKD
ROOT
HETATM    1  C   UNL     1      -5.501   7.914  71.792  1.00  0.00    -0.035 C  
HETATM    2  C   UNL     1      -6.770   7.572  72.596  1.00  0.00    -0.061 C  
HETATM    3  C   UNL     1      -8.070   7.152  71.628  1.00  0.00    -0.102 C  
HETATM    4  N   UNL     1      -7.132   8.782  73.389  1.00  0.00    -0.353 NA 
HETATM    5  C   UNL     1      -6.317   6.494  73.619  1.00  0.00    -0.065 C  
HETATM    6  H2  UNL     1      -7.237   9.619  72.815  1.00  0.00     0.000 HD 
HETATM    7  N   UNL     1      -8.899   8.186  71.177  1.00  0.00    -0.138 N  
HETATM    8  H1  UNL     1      -7.972   8.555  73.922  1.00  0.00     0.000 HD 
HETATM    9  O   UNL     1      -8.269   5.986  71.291  1.00  0.00    -0.120 OA 
HETATM   10  H   UNL     1      -8.709   9.073  71.641  1.00  0.00     0.000 HD 
ENDROOT
BRANCH   7  11
HETATM   11  C   UNL     1     -10.054   8.293  70.120  1.00  0.00    -0.191 C  
BRANCH  11  12
HETATM   12  C   UNL     1     -10.410   7.165  69.043  1.00  0.00    -0.204 C  
BRANCH  12  13
HETATM   13  C   UNL     1      -9.592   7.072  67.667  1.00  0.00    -0.151 A  
HETATM   14  C   UNL     1      -9.996   7.430  66.394  1.00  0.00    -0.036 A  
HETATM   15  C   UNL     1      -5.961   5.622  67.805  1.00  0.00    -0.021 A  
HETATM   16  C   UNL     1      -5.813   5.406  66.438  1.00  0.00    -0.018 A  
HETATM   17  C   UNL     1      -6.810   5.826  65.559  1.00  0.00    -0.059 A  
HETATM   18  N   UNL     1      -9.041   7.023  65.463  1.00  0.00    -0.372 NA 
HETATM   19  C   UNL     1      -7.143   6.189  68.326  1.00  0.00    -0.082 A  
HETATM   20  C   UNL     1      -8.211   6.568  67.469  1.00  0.00    -0.121 A  
HETATM   21  C   UNL     1      -7.975   6.434  66.100  1.00  0.00    -0.112 A  
HETATM   22  H   UNL     1      -9.122   7.145  64.455  1.00  0.00     0.000 HD 
ENDBRANCH  12  13
ENDBRANCH  11  12
BRANCH  11  23
HETATM   23  C   UNL     1     -10.007   9.734  69.544  1.00  0.00    -0.214 C  
HETATM   24  N   UNL     1     -11.085  10.149  68.787  1.00  0.00    -0.351 N  
HETATM   25  H   UNL     1     -11.925   9.572  68.742  1.00  0.00     0.000 HD 
HETATM   26  O   UNL     1      -9.000  10.431  69.694  1.00  0.00    -0.153 OA 
BRANCH  24  27
HETATM   27  C   UNL     1     -11.031  11.396  68.060  1.00  0.00    -0.237 C  
BRANCH  27  28
HETATM   28  N   UNL     1     -10.980  11.106  66.650  1.00  0.00    -0.260 N  
HETATM   29  O   UNL     1      -9.738  12.970  66.081  1.00  0.00    -0.274 OA 
HETATM   30  C   UNL     1     -10.320  11.940  65.776  1.00  0.00    -0.248 C  
HETATM   31  H   UNL     1     -11.441  10.269  66.293  1.00  0.00     0.000 HD 
ENDBRANCH  27  28
BRANCH  27  32
HETATM   32  C   UNL     1     -12.015  12.517  68.458  1.00  0.00    -0.266 C  
BRANCH  32  33
HETATM   33  C   UNL     1     -11.783  13.710  69.370  1.00  0.00    -0.379 A  
HETATM   34  C   UNL     1     -11.591  15.421  70.902  1.00  0.00    -0.358 A  
HETATM   35  H   UNL     1     -10.157  16.477  69.757  1.00  0.00     0.000 HD 
HETATM   36  C   UNL     1     -11.774  16.206  72.051  1.00  0.00    -0.574 A  
HETATM   37  C   UNL     1     -10.863  14.661  68.936  1.00  0.00    -0.250 A  
HETATM   38  C   UNL     1     -12.706  15.772  72.986  1.00  0.00    -0.599 A  
HETATM   39  N   UNL     1     -10.763  15.662  69.848  1.00  0.00    -0.297 NA 
HETATM   40  C   UNL     1     -13.426  14.599  72.765  1.00  0.00    -0.570 A  
HETATM   41  C   UNL     1     -13.220  13.816  71.609  1.00  0.00    -0.450 A  
HETATM   42  C   UNL     1     -12.275  14.217  70.641  1.00  0.00    -0.427 A  
ENDBRANCH  32  33
ENDBRANCH  27  32
ENDBRANCH  24  27
ENDBRANCH  11  23
ENDBRANCH   7  11
TORSDOF 8
ENDMDL
MODEL      323
REMARK 921   NORMALIZED FREE ENERGY PREDICTED BY IDOCK:   -5.02 KCAL/MOL
REMARK 922        TOTAL FREE ENERGY PREDICTED BY IDOCK:   -9.51 KCAL/MOL
REMARK 923 INTER-LIGAND FREE ENERGY PREDICTED BY IDOCK:   -8.21 KCAL/MOL
REMARK 924 INTRA-LIGAND FREE ENERGY PREDICTED BY IDOCK:   -1.29 KCAL/MOL
REMARK 927      BINDING AFFINITY PREDICTED BY RF-SCORE:    0.00 PKD
ROOT
HETATM    1  C   UNL     1     -11.801  13.039  63.925  1.00  0.00    -0.542 C  
HETATM    2  C   UNL     1     -12.037  14.269  64.823  1.00  0.00    -0.446 C  
HETATM    3  C   UNL     1     -10.825  14.501  65.954  1.00  0.00    -0.308 C  
HETATM    4  N   UNL     1     -13.328  14.054  65.538  1.00  0.00    -0.676 NA 
HETATM    5  C   UNL     1     -12.271  15.447  63.836  1.00  0.00     0.188 C  
HETATM    6  H2  UNL     1     -13.357  13.173  66.052  1.00  0.00     0.000 HD 
HETATM    7  N   UNL     1     -10.957  13.849  67.185  1.00  0.00    -0.287 N  
HETATM    8  H1  UNL     1     -13.484  14.868  66.133  1.00  0.00     0.000 HD 
HETATM    9  O   UNL     1      -9.834  15.185  65.701  1.00  0.00    -0.327 OA 
HETATM   10  H   UNL     1     -11.881  13.438  67.314  1.00  0.00     0.000 HD 
ENDROOT
BRANCH   7  11
HETATM   11  C   UNL     1     -10.011  13.604  68.413  1.00  0.00    -0.235 C  
BRANCH  11  12
HETATM   12  C   UNL     1      -8.766  14.531  68.802  1.00  0.00    -0.147 C  
BRANCH  12  13
HETATM   13  C   UNL     1      -8.910  16.129  68.784  1.00  0.00    -0.233 A  
HETATM   14  C   UNL     1     -10.047  16.897  68.955  1.00  0.00    -0.292 A  
HETATM   15  C   UNL     1      -5.677  18.239  68.150  1.00  0.00    -0.165 A  
HETATM   16  C   UNL     1      -6.314  19.445  67.873  1.00  0.00    -0.237 A  
HETATM   17  C   UNL     1      -7.698  19.544  68.007  1.00  0.00    -0.334 A  
HETATM   18  N   UNL     1      -9.756  18.235  68.693  1.00  0.00    -0.352 NA 
HETATM   19  C   UNL     1      -6.419  17.088  68.490  1.00  0.00    -0.164 A  
HETATM   20  C   UNL     1      -7.837  17.131  68.571  1.00  0.00    -0.257 A  
HETATM   21  C   UNL     1      -8.424  18.384  68.391  1.00  0.00    -0.326 A  
HETATM   22  H   UNL     1     -10.435  18.995  68.722  1.00  0.00     0.000 HD 
ENDBRANCH  12  13
ENDBRANCH  11  12
BRANCH  11  23
HETATM   23  C   UNL     1      -9.711  12.082  68.457  1.00  0.00    -0.161 C  
HETATM   24  N   UNL     1     -10.793  11.225  68.505  1.00  0.00    -0.190 N  
HETATM   25  H   UNL     1     -11.736  11.591  68.372  1.00  0.00     0.000 HD 
HETATM   26  O   UNL     1      -8.547  11.679  68.533  1.00  0.00    -0.159 OA 
BRANCH  24  27
HETATM   27  C   UNL     1     -10.597   9.813  68.742  1.00  0.00    -0.219 C  
BRANCH  27  28
HETATM   28  N   UNL     1     -11.599   9.359  69.673  1.00  0.00    -0.429 N  
HETATM   29  O   UNL     1     -10.174   9.222  71.487  1.00  0.00    -0.330 OA 
HETATM   30  C   UNL     1     -11.283   9.104  70.988  1.00  0.00    -0.312 C  
HETATM   31  H   UNL     1     -12.557   9.224  69.352  1.00  0.00     0.000 HD 
ENDBRANCH  27  28
BRANCH  27  32
HETATM   32  C   UNL     1     -10.376   8.892  67.523  1.00  0.00    -0.328 C  
BRANCH  32  33
HETATM   33  C   UNL     1      -9.452   7.693  67.389  1.00  0.00    -0.175 A  
HETATM   34  C   UNL     1      -8.036   5.875  67.425  1.00  0.00    -0.102 A  
HETATM   35  H   UNL     1      -8.007   5.675  65.318  1.00  0.00     0.000 HD 
HETATM   36  C   UNL     1      -7.212   4.839  67.891  1.00  0.00    -0.066 A  
HETATM   37  C   UNL     1      -9.187   7.247  66.097  1.00  0.00    -0.089 A  
HETATM   38  C   UNL     1      -7.008   4.744  69.262  1.00  0.00    -0.051 A  
HETATM   39  N   UNL     1      -8.351   6.178  66.136  1.00  0.00    -0.122 NA 
HETATM   40  C   UNL     1      -7.607   5.661  70.125  1.00  0.00    -0.085 A  
HETATM   41  C   UNL     1      -8.444   6.690  69.640  1.00  0.00    -0.132 A  
HETATM   42  C   UNL     1      -8.683   6.813  68.254  1.00  0.00    -0.123 A  
ENDBRANCH  32  33
ENDBRANCH  27  32
ENDBRANCH  24  27
ENDBRANCH  11  23
ENDBRANCH   7  11
TORSDOF 8
ENDMDL
MODEL      324
REMARK 921   NORMALIZED FREE ENERGY PREDICTED BY IDOCK:   -4.99 KCAL/MOL
REMARK 922        TOTAL FREE ENERGY PREDICTED BY IDOCK:   -9.47 KCAL/MOL
REMARK 923 INTER-LIGAND FREE ENERGY PREDICTED BY IDOCK:   -7.23 KCAL/MOL
REMARK 924 INTRA-LIGAND FREE ENERGY PREDICTED BY IDOCK:   -2.24 KCAL/MOL
REMARK 927      BINDING AFFINITY PREDICTED BY RF-SCORE:    0.00 PKD
ROOT
HETATM    1  C   UNL     1     -10.722   5.400  70.930  1.00  0.00    -0.243 C  
HETATM    2  C   UNL     1      -9.387   6.148  70.751  1.00  0.00    -0.158 C  
HETATM    3  C   UNL     1      -9.516   7.797  71.007  1.00  0.00    -0.155 C  
HETATM    4  N   UNL     1      -8.932   5.913  69.350  1.00  0.00    -0.121 NA 
HETATM    5  C   UNL     1      -8.382   5.401  71.672  1.00  0.00    -0.119 C  
HETATM    6  H2  UNL     1      -9.632   6.173  68.654  1.00  0.00     0.000 HD 
HETATM    7  N   UNL     1      -9.861   8.596  69.910  1.00  0.00    -0.180 N  
HETATM    8  H1  UNL     1      -8.048   6.409  69.232  1.00  0.00     0.000 HD 
HETATM    9  O   UNL     1      -9.357   8.288  72.124  1.00  0.00    -0.185 OA 
HETATM   10  H   UNL     1      -9.823   8.088  69.027  1.00  0.00     0.000 HD 
ENDROOT
BRANCH   7  11
HETATM   11  C   UNL     1     -10.292  10.094  69.727  1.00  0.00    -0.259 C  
BRANCH  11  12
HETATM   12  C   UNL     1     -11.806  10.603  69.651  1.00  0.00    -0.358 C  
BRANCH  12  13
HETATM   13  C   UNL     1     -12.127  12.162  69.459  1.00  0.00    -0.263 A  
HETATM   14  C   UNL     1     -12.012  12.935  68.319  1.00  0.00    -0.254 A  
HETATM   15  C   UNL     1     -13.384  14.158  72.581  1.00  0.00    -0.638 A  
HETATM   16  C   UNL     1     -13.182  15.433  72.059  1.00  0.00    -0.521 A  
HETATM   17  C   UNL     1     -12.770  15.582  70.736  1.00  0.00    -0.511 A  
HETATM   18  N   UNL     1     -12.228  14.277  68.633  1.00  0.00    -0.568 NA 
HETATM   19  C   UNL     1     -13.103  13.008  71.814  1.00  0.00    -0.469 A  
HETATM   20  C   UNL     1     -12.617  13.118  70.484  1.00  0.00    -0.237 A  
HETATM   21  C   UNL     1     -12.532  14.411  69.967  1.00  0.00    -0.301 A  
HETATM   22  H   UNL     1     -12.169  15.047  67.969  1.00  0.00     0.000 HD 
ENDBRANCH  12  13
ENDBRANCH  11  12
BRANCH  11  23
HETATM   23  C   UNL     1      -9.358  10.704  68.646  1.00  0.00    -0.177 C  
HETATM   24  N   UNL     1      -8.379  11.578  69.076  1.00  0.00    -0.368 N  
HETATM   25  H   UNL     1      -8.204  11.691  70.074  1.00  0.00     0.000 HD 
HETATM   26  O   UNL     1      -9.556  10.471  67.450  1.00  0.00    -0.156 OA 
BRANCH  24  27
HETATM   27  C   UNL     1      -7.602  12.331  68.119  1.00  0.00    -0.127 C  
BRANCH  27  28
HETATM   28  N   UNL     1      -7.304  13.623  68.682  1.00  0.00    -0.111 N  
HETATM   29  O   UNL     1      -9.288  14.615  68.033  1.00  0.00    -0.190 OA 
HETATM   30  C   UNL     1      -8.199  14.664  68.585  1.00  0.00    -0.159 C  
HETATM   31  H   UNL     1      -6.416  13.769  69.162  1.00  0.00     0.000 HD 
ENDBRANCH  27  28
BRANCH  27  32
HETATM   32  C   UNL     1      -6.409  11.630  67.433  1.00  0.00    -0.100 C  
BRANCH  32  33
HETATM   33  C   UNL     1      -6.079  10.148  67.377  1.00  0.00    -0.057 A  
HETATM   34  C   UNL     1      -5.608   7.897  67.530  1.00  0.00    -0.037 A  
HETATM   35  H   UNL     1      -5.289   7.677  65.449  1.00  0.00     0.000 HD 
HETATM   36  C   UNL     1      -5.405   6.612  68.057  1.00  0.00    -0.008 A  
HETATM   37  C   UNL     1      -5.803   9.614  66.121  1.00  0.00    -0.061 A  
HETATM   38  C   UNL     1      -5.512   6.456  69.434  1.00  0.00    -0.013 A  
HETATM   39  N   UNL     1      -5.526   8.290  66.229  1.00  0.00    -0.031 NA 
HETATM   40  C   UNL     1      -5.806   7.553  70.242  1.00  0.00    -0.023 A  
HETATM   41  C   UNL     1      -6.020   8.836  69.693  1.00  0.00    -0.032 A  
HETATM   42  C   UNL     1      -5.930   9.033  68.298  1.00  0.00    -0.042 A  
ENDBRANCH  32  33
ENDBRANCH  27  32
ENDBRANCH  24  27
ENDBRANCH  11  23
ENDBRANCH   7  11
TORSDOF 8
ENDMDL
MODEL      325
REMARK 921   NORMALIZED FREE ENERGY PREDICTED BY IDOCK:   -4.97 KCAL/MOL
REMARK 922        TOTAL FREE ENERGY PREDICTED BY IDOCK:   -9.43 KCAL/MOL
REMARK 923 INTER-LIGAND FREE ENERGY PREDICTED BY IDOCK:   -7.69 KCAL/MOL
REMARK 924 INTRA-LIGAND FREE ENERGY PREDICTED BY IDOCK:   -1.74 KCAL/MOL
REMARK 927      BINDING AFFINITY PREDICTED BY RF-SCORE:    0.00 PKD
ROOT
HETATM    1  C   UNL     1     -11.970  11.629  69.862  1.00  0.00    -0.414 C  
HETATM    2  C   UNL     1     -12.559  10.522  70.757  1.00  0.00    -0.382 C  
HETATM    3  C   UNL     1     -11.526   9.220  70.961  1.00  0.00    -0.319 C  
HETATM    4  N   UNL     1     -13.812  10.043  70.104  1.00  0.00     0.097 NA 
HETATM    5  C   UNL     1     -12.991  11.248  72.061  1.00  0.00    -0.379 C  
HETATM    6  H2  UNL     1     -13.669   9.743  69.139  1.00  0.00     0.000 HD 
HETATM    7  N   UNL     1     -11.592   8.189  70.016  1.00  0.00    -0.456 N  
HETATM    8  H1  UNL     1     -14.201   9.310  70.697  1.00  0.00     0.000 HD 
HETATM    9  O   UNL     1     -10.710   9.187  71.881  1.00  0.00    -0.357 OA 
HETATM   10  H   UNL     1     -12.399   8.274  69.399  1.00  0.00     0.000 HD 
ENDROOT
BRANCH   7  11
HETATM   11  C   UNL     1     -10.710   6.933  69.689  1.00  0.00    -0.245 C  
BRANCH  11  12
HETATM   12  C   UNL     1     -10.121   5.925  70.782  1.00  0.00    -0.253 C  
BRANCH  12  13
HETATM   13  C   UNL     1      -9.347   4.597  70.324  1.00  0.00    -0.218 A  
HETATM   14  C   UNL     1      -9.656   3.726  69.296  1.00  0.00    -0.138 A  
HETATM   15  C   UNL     1      -6.154   3.568  72.338  1.00  0.00    -0.009 A  
HETATM   16  C   UNL     1      -6.059   2.267  71.852  1.00  0.00    -0.014 A  
HETATM   17  C   UNL     1      -6.931   1.836  70.853  1.00  0.00    -0.032 A  
HETATM   18  N   UNL     1      -8.821   2.610  69.355  1.00  0.00    -0.083 NA 
HETATM   19  C   UNL     1      -7.171   4.437  71.890  1.00  0.00    -0.063 A  
HETATM   20  C   UNL     1      -8.121   4.013  70.923  1.00  0.00    -0.067 A  
HETATM   21  C   UNL     1      -7.922   2.740  70.386  1.00  0.00    -0.042 A  
HETATM   22  H   UNL     1      -8.871   1.812  68.723  1.00  0.00     0.000 HD 
ENDBRANCH  12  13
ENDBRANCH  11  12
BRANCH  11  23
HETATM   23  C   UNL     1      -9.687   7.369  68.606  1.00  0.00    -0.152 C  
HETATM   24  N   UNL     1     -10.189   7.950  67.458  1.00  0.00    -0.220 N  
HETATM   25  H   UNL     1     -11.176   8.202  67.408  1.00  0.00     0.000 HD 
HETATM   26  O   UNL     1      -8.486   7.118  68.747  1.00  0.00    -0.125 OA 
BRANCH  24  27
HETATM   27  C   UNL     1      -9.324   8.204  66.329  1.00  0.00    -0.196 C  
BRANCH  27  28
HETATM   28  N   UNL     1      -9.243   7.007  65.532  1.00  0.00    -0.357 N  
HETATM   29  O   UNL     1      -6.988   6.649  65.891  1.00  0.00    -0.058 OA 
HETATM   30  C   UNL     1      -8.055   6.327  65.389  1.00  0.00    -0.131 C  
HETATM   31  H   UNL     1     -10.080   6.657  65.066  1.00  0.00     0.000 HD 
ENDBRANCH  27  28
BRANCH  27  32
HETATM   32  C   UNL     1      -9.534   9.506  65.527  1.00  0.00    -0.334 C  
BRANCH  32  33
HETATM   33  C   UNL     1      -9.669  10.931  66.040  1.00  0.00    -0.268 A  
HETATM   34  C   UNL     1     -10.090  13.093  66.716  1.00  0.00    -0.253 A  
HETATM   35  H   UNL     1      -8.221  13.306  67.686  1.00  0.00     0.000 HD 
HETATM   36  C   UNL     1     -10.736  14.323  66.918  1.00  0.00    -0.290 A  
HETATM   37  C   UNL     1      -8.592  11.442  66.760  1.00  0.00    -0.166 A  
HETATM   38  C   UNL     1     -11.993  14.492  66.349  1.00  0.00    -0.350 A  
HETATM   39  N   UNL     1      -8.856  12.716  67.149  1.00  0.00    -0.197 NA 
HETATM   40  C   UNL     1     -12.568  13.464  65.604  1.00  0.00    -0.496 A  
HETATM   41  C   UNL     1     -11.910  12.229  65.422  1.00  0.00    -0.418 A  
HETATM   42  C   UNL     1     -10.636  12.015  65.992  1.00  0.00    -0.303 A  
ENDBRANCH  32  33
ENDBRANCH  27  32
ENDBRANCH  24  27
ENDBRANCH  11  23
ENDBRANCH   7  11
TORSDOF 8
ENDMDL
MODEL      326
REMARK 921   NORMALIZED FREE ENERGY PREDICTED BY IDOCK:   -4.96 KCAL/MOL
REMARK 922        TOTAL FREE ENERGY PREDICTED BY IDOCK:   -9.42 KCAL/MOL
REMARK 923 INTER-LIGAND FREE ENERGY PREDICTED BY IDOCK:   -9.00 KCAL/MOL
REMARK 924 INTRA-LIGAND FREE ENERGY PREDICTED BY IDOCK:   -0.42 KCAL/MOL
REMARK 927      BINDING AFFINITY PREDICTED BY RF-SCORE:    0.00 PKD
ROOT
HETATM    1  C   UNL     1     -12.944  15.461  70.740  1.00  0.00    -0.510 C  
HETATM    2  C   UNL     1     -11.704  15.001  69.949  1.00  0.00    -0.307 C  
HETATM    3  C   UNL     1     -11.881  13.479  69.273  1.00  0.00    -0.341 C  
HETATM    4  N   UNL     1     -10.557  14.973  70.901  1.00  0.00    -0.503 NA 
HETATM    5  C   UNL     1     -11.418  16.154  68.947  1.00  0.00    -0.331 C  
HETATM    6  H2  UNL     1     -10.738  14.403  71.728  1.00  0.00     0.000 HD 
HETATM    7  N   UNL     1     -11.519  12.378  70.057  1.00  0.00    -0.526 N  
HETATM    8  H1  UNL     1      -9.736  14.669  70.377  1.00  0.00     0.000 HD 
HETATM    9  O   UNL     1     -12.350  13.329  68.145  1.00  0.00    -0.164 OA 
HETATM   10  H   UNL     1     -11.018  12.647  70.904  1.00  0.00     0.000 HD 
ENDROOT
BRANCH   7  11
HETATM   11  C   UNL     1     -11.708  10.825  69.934  1.00  0.00    -0.333 C  
BRANCH  11  12
HETATM   12  C   UNL     1     -11.602   9.795  71.153  1.00  0.00    -0.469 C  
BRANCH  12  13
HETATM   13  C   UNL     1     -10.287   8.898  71.344  1.00  0.00    -0.377 A  
HETATM   14  C   UNL     1      -8.970   9.227  71.080  1.00  0.00    -0.156 A  
HETATM   15  C   UNL     1     -10.748   5.258  72.703  1.00  0.00    -0.290 A  
HETATM   16  C   UNL     1      -9.481   4.790  72.366  1.00  0.00    -0.168 A  
HETATM   17  C   UNL     1      -8.536   5.668  71.838  1.00  0.00    -0.131 A  
HETATM   18  N   UNL     1      -8.164   8.097  71.223  1.00  0.00    -0.107 NA 
HETATM   19  C   UNL     1     -11.120   6.595  72.444  1.00  0.00    -0.294 A  
HETATM   20  C   UNL     1     -10.208   7.503  71.844  1.00  0.00    -0.221 A  
HETATM   21  C   UNL     1      -8.917   7.021  71.624  1.00  0.00    -0.134 A  
HETATM   22  H   UNL     1      -7.159   8.075  71.054  1.00  0.00     0.000 HD 
ENDBRANCH  12  13
ENDBRANCH  11  12
BRANCH  11  23
HETATM   23  C   UNL     1     -10.952  10.379  68.654  1.00  0.00    -0.243 C  
HETATM   24  N   UNL     1      -9.660  10.838  68.488  1.00  0.00    -0.176 N  
HETATM   25  H   UNL     1      -9.195  11.328  69.252  1.00  0.00     0.000 HD 
HETATM   26  O   UNL     1     -11.530   9.712  67.790  1.00  0.00     0.085 OA 
BRANCH  24  27
HETATM   27  C   UNL     1      -8.963  10.628  67.240  1.00  0.00    -0.136 C  
BRANCH  27  28
HETATM   28  N   UNL     1      -8.743   9.215  67.067  1.00  0.00    -0.123 N  
HETATM   29  O   UNL     1      -8.404   9.318  64.783  1.00  0.00    -0.142 OA 
HETATM   30  C   UNL     1      -8.476   8.684  65.826  1.00  0.00    -0.151 C  
HETATM   31  H   UNL     1      -8.787   8.598  67.878  1.00  0.00     0.000 HD 
ENDBRANCH  27  28
BRANCH  27  32
HETATM   32  C   UNL     1      -9.477  11.365  65.985  1.00  0.00    -0.245 C  
BRANCH  32  33
HETATM   33  C   UNL     1      -9.867  12.826  65.829  1.00  0.00    -0.222 A  
HETATM   34  C   UNL     1     -10.268  15.093  65.731  1.00  0.00    -0.341 A  
HETATM   35  H   UNL     1     -11.984  14.881  64.510  1.00  0.00     0.000 HD 
HETATM   36  C   UNL     1     -10.140  16.477  65.924  1.00  0.00    -0.359 A  
HETATM   37  C   UNL     1     -10.993  13.095  65.056  1.00  0.00    -0.303 A  
HETATM   38  C   UNL     1      -9.102  16.921  66.734  1.00  0.00    -0.266 A  
HETATM   39  N   UNL     1     -11.217  14.434  65.011  1.00  0.00    -0.355 NA 
HETATM   40  C   UNL     1      -8.236  16.005  67.328  1.00  0.00    -0.209 A  
HETATM   41  C   UNL     1      -8.372  14.617  67.113  1.00  0.00    -0.236 A  
HETATM   42  C   UNL     1      -9.408  14.126  66.288  1.00  0.00    -0.215 A  
ENDBRANCH  32  33
ENDBRANCH  27  32
ENDBRANCH  24  27
ENDBRANCH  11  23
ENDBRANCH   7  11
TORSDOF 8
ENDMDL
MODEL      327
REMARK 921   NORMALIZED FREE ENERGY PREDICTED BY IDOCK:   -4.95 KCAL/MOL
REMARK 922        TOTAL FREE ENERGY PREDICTED BY IDOCK:   -9.41 KCAL/MOL
REMARK 923 INTER-LIGAND FREE ENERGY PREDICTED BY IDOCK:   -8.05 KCAL/MOL
REMARK 924 INTRA-LIGAND FREE ENERGY PREDICTED BY IDOCK:   -1.37 KCAL/MOL
REMARK 927      BINDING AFFINITY PREDICTED BY RF-SCORE:    0.00 PKD
ROOT
HETATM    1  C   UNL     1      -7.412   3.278  69.972  1.00  0.00    -0.044 C  
HETATM    2  C   UNL     1      -8.907   2.999  69.722  1.00  0.00    -0.086 C  
HETATM    3  C   UNL     1      -9.580   4.003  68.563  1.00  0.00    -0.116 C  
HETATM    4  N   UNL     1      -9.620   3.213  71.015  1.00  0.00    -0.158 NA 
HETATM    5  C   UNL     1      -8.985   1.477  69.421  1.00  0.00    -0.132 C  
HETATM    6  H2  UNL     1      -9.448   4.134  71.418  1.00  0.00     0.000 HD 
HETATM    7  N   UNL     1     -10.104   5.227  68.994  1.00  0.00    -0.197 N  
HETATM    8  H1  UNL     1     -10.609   3.028  70.849  1.00  0.00     0.000 HD 
HETATM    9  O   UNL     1      -9.578   3.697  67.371  1.00  0.00    -0.208 OA 
HETATM   10  H   UNL     1     -10.171   5.289  70.009  1.00  0.00     0.000 HD 
ENDROOT
BRANCH   7  11
HETATM   11  C   UNL     1     -10.613   6.525  68.274  1.00  0.00    -0.249 C  
BRANCH  11  12
HETATM   12  C   UNL     1     -10.294   6.908  66.754  1.00  0.00    -0.287 C  
BRANCH  12  13
HETATM   13  C   UNL     1      -8.800   7.289  66.312  1.00  0.00    -0.179 A  
HETATM   14  C   UNL     1      -8.077   8.431  66.603  1.00  0.00    -0.101 A  
HETATM   15  C   UNL     1      -6.855   4.731  64.080  1.00  0.00    -0.048 A  
HETATM   16  C   UNL     1      -5.840   5.595  63.678  1.00  0.00    -0.018 A  
HETATM   17  C   UNL     1      -5.772   6.881  64.214  1.00  0.00    -0.032 A  
HETATM   18  N   UNL     1      -6.885   8.433  65.879  1.00  0.00    -0.063 NA 
HETATM   19  C   UNL     1      -7.866   5.163  64.965  1.00  0.00    -0.092 A  
HETATM   20  C   UNL     1      -7.871   6.486  65.480  1.00  0.00    -0.104 A  
HETATM   21  C   UNL     1      -6.777   7.282  65.135  1.00  0.00    -0.047 A  
HETATM   22  H   UNL     1      -6.193   9.181  65.898  1.00  0.00     0.000 HD 
ENDBRANCH  12  13
ENDBRANCH  11  12
BRANCH  11  23
HETATM   23  C   UNL     1     -10.439   7.696  69.278  1.00  0.00    -0.218 C  
HETATM   24  N   UNL     1     -11.582   8.360  69.682  1.00  0.00    -0.231 N  
HETATM   25  H   UNL     1     -12.498   7.989  69.431  1.00  0.00     0.000 HD 
HETATM   26  O   UNL     1      -9.310   8.059  69.621  1.00  0.00    -0.156 OA 
BRANCH  24  27
HETATM   27  C   UNL     1     -11.486   9.575  70.457  1.00  0.00    -0.276 C  
BRANCH  27  28
HETATM   28  N   UNL     1     -10.800   9.283  71.689  1.00  0.00    -0.372 N  
HETATM   29  O   UNL     1     -12.278   7.650  72.388  1.00  0.00    -0.258 OA 
HETATM   30  C   UNL     1     -11.272   8.323  72.555  1.00  0.00    -0.376 C  
HETATM   31  H   UNL     1      -9.950   9.795  71.924  1.00  0.00     0.000 HD 
ENDBRANCH  27  28
BRANCH  27  32
HETATM   32  C   UNL     1     -11.020  10.862  69.742  1.00  0.00    -0.290 C  
BRANCH  32  33
HETATM   33  C   UNL     1     -11.607  12.262  69.821  1.00  0.00    -0.314 A  
HETATM   34  C   UNL     1     -12.603  14.314  70.143  1.00  0.00    -0.282 A  
HETATM   35  H   UNL     1     -11.764  15.157  68.392  1.00  0.00     0.000 HD 
HETATM   36  C   UNL     1     -13.363  15.352  70.706  1.00  0.00    -0.385 A  
HETATM   37  C   UNL     1     -11.262  13.144  68.800  1.00  0.00    -0.281 A  
HETATM   38  C   UNL     1     -14.074  15.073  71.867  1.00  0.00    -0.627 A  
HETATM   39  N   UNL     1     -11.859  14.347  69.004  1.00  0.00    -0.313 NA 
HETATM   40  C   UNL     1     -14.023  13.799  72.431  1.00  0.00    -0.651 A  
HETATM   41  C   UNL     1     -13.244  12.771  71.858  1.00  0.00    -0.511 A  
HETATM   42  C   UNL     1     -12.499  13.017  70.684  1.00  0.00    -0.347 A  
ENDBRANCH  32  33
ENDBRANCH  27  32
ENDBRANCH  24  27
ENDBRANCH  11  23
ENDBRANCH   7  11
TORSDOF 8
ENDMDL
MODEL      328
REMARK 921   NORMALIZED FREE ENERGY PREDICTED BY IDOCK:   -4.94 KCAL/MOL
REMARK 922        TOTAL FREE ENERGY PREDICTED BY IDOCK:   -9.39 KCAL/MOL
REMARK 923 INTER-LIGAND FREE ENERGY PREDICTED BY IDOCK:   -7.23 KCAL/MOL
REMARK 924 INTRA-LIGAND FREE ENERGY PREDICTED BY IDOCK:   -2.16 KCAL/MOL
REMARK 927      BINDING AFFINITY PREDICTED BY RF-SCORE:    0.00 PKD
ROOT
HETATM    1  C   UNL     1      -6.533   9.231  71.123  1.00  0.00    -0.083 C  
HETATM    2  C   UNL     1      -7.650   8.170  71.086  1.00  0.00    -0.082 C  
HETATM    3  C   UNL     1      -8.114   7.757  69.532  1.00  0.00    -0.126 C  
HETATM    4  N   UNL     1      -8.826   8.741  71.804  1.00  0.00    -0.313 NA 
HETATM    5  C   UNL     1      -7.123   7.002  71.965  1.00  0.00    -0.073 C  
HETATM    6  H2  UNL     1      -9.121   9.645  71.431  1.00  0.00     0.000 HD 
HETATM    7  N   UNL     1      -9.121   8.523  68.933  1.00  0.00    -0.146 N  
HETATM    8  H1  UNL     1      -9.566   8.039  71.779  1.00  0.00     0.000 HD 
HETATM    9  O   UNL     1      -7.565   6.841  68.921  1.00  0.00    -0.100 OA 
HETATM   10  H   UNL     1      -9.583   9.149  69.593  1.00  0.00     0.000 HD 
ENDROOT
BRANCH   7  11
HETATM   11  C   UNL     1      -9.702   8.641  67.480  1.00  0.00    -0.165 C  
BRANCH  11  12
HETATM   12  C   UNL     1     -10.635   9.835  66.967  1.00  0.00    -0.269 C  
BRANCH  12  13
HETATM   13  C   UNL     1     -10.105  11.348  67.003  1.00  0.00    -0.237 A  
HETATM   14  C   UNL     1      -8.998  11.893  66.379  1.00  0.00    -0.180 A  
HETATM   15  C   UNL     1     -12.124  13.930  69.140  1.00  0.00    -0.377 A  
HETATM   16  C   UNL     1     -11.152  14.926  69.165  1.00  0.00    -0.279 A  
HETATM   17  C   UNL     1      -9.980  14.768  68.426  1.00  0.00    -0.223 A  
HETATM   18  N   UNL     1      -8.807  13.204  66.815  1.00  0.00    -0.381 NA 
HETATM   19  C   UNL     1     -11.909  12.724  68.440  1.00  0.00    -0.353 A  
HETATM   20  C   UNL     1     -10.699  12.496  67.731  1.00  0.00    -0.242 A  
HETATM   21  C   UNL     1      -9.801  13.564  67.694  1.00  0.00    -0.228 A  
HETATM   22  H   UNL     1      -8.040  13.808  66.524  1.00  0.00     0.000 HD 
ENDBRANCH  12  13
ENDBRANCH  11  12
BRANCH  11  23
HETATM   23  C   UNL     1     -10.195   7.226  67.075  1.00  0.00    -0.278 C  
HETATM   24  N   UNL     1      -9.251   6.339  66.596  1.00  0.00    -0.142 N  
HETATM   25  H   UNL     1      -8.260   6.576  66.650  1.00  0.00     0.000 HD 
HETATM   26  O   UNL     1     -11.399   6.954  67.104  1.00  0.00    -0.290 OA 
BRANCH  24  27
HETATM   27  C   UNL     1      -9.658   5.078  66.020  1.00  0.00    -0.168 C  
BRANCH  27  28
HETATM   28  N   UNL     1      -9.233   5.042  64.644  1.00  0.00    -0.343 N  
HETATM   29  O   UNL     1      -7.026   5.575  65.076  1.00  0.00    -0.051 OA 
HETATM   30  C   UNL     1      -7.926   5.297  64.297  1.00  0.00    -0.111 C  
HETATM   31  H   UNL     1      -9.912   4.823  63.915  1.00  0.00     0.000 HD 
ENDBRANCH  27  28
BRANCH  27  32
HETATM   32  C   UNL     1      -9.382   3.787  66.820  1.00  0.00    -0.209 C  
BRANCH  32  33
HETATM   33  C   UNL     1      -9.267   3.604  68.325  1.00  0.00    -0.218 A  
HETATM   34  C   UNL     1      -9.243   3.512  70.627  1.00  0.00    -0.137 A  
HETATM   35  H   UNL     1      -7.899   1.878  70.691  1.00  0.00     0.000 HD 
HETATM   36  C   UNL     1      -9.518   3.796  71.974  1.00  0.00    -0.200 A  
HETATM   37  C   UNL     1      -8.437   2.579  68.770  1.00  0.00    -0.067 A  
HETATM   38  C   UNL     1     -10.359   4.868  72.248  1.00  0.00    -0.267 A  
HETATM   39  N   UNL     1      -8.433   2.540  70.127  1.00  0.00    -0.042 NA 
HETATM   40  C   UNL     1     -10.894   5.623  71.204  1.00  0.00    -0.288 A  
HETATM   41  C   UNL     1     -10.616   5.315  69.855  1.00  0.00    -0.292 A  
HETATM   42  C   UNL     1      -9.774   4.228  69.536  1.00  0.00    -0.272 A  
ENDBRANCH  32  33
ENDBRANCH  27  32
ENDBRANCH  24  27
ENDBRANCH  11  23
ENDBRANCH   7  11
TORSDOF 8
ENDMDL
MODEL      329
REMARK 921   NORMALIZED FREE ENERGY PREDICTED BY IDOCK:   -4.91 KCAL/MOL
REMARK 922        TOTAL FREE ENERGY PREDICTED BY IDOCK:   -9.36 KCAL/MOL
REMARK 923 INTER-LIGAND FREE ENERGY PREDICTED BY IDOCK:   -7.59 KCAL/MOL
REMARK 924 INTRA-LIGAND FREE ENERGY PREDICTED BY IDOCK:   -1.77 KCAL/MOL
REMARK 927      BINDING AFFINITY PREDICTED BY RF-SCORE:    0.00 PKD
ROOT
HETATM    1  C   UNL     1      -8.269   6.637  70.921  1.00  0.00    -0.124 C  
HETATM    2  C   UNL     1      -9.619   7.360  71.094  1.00  0.00    -0.159 C  
HETATM    3  C   UNL     1     -10.146   8.114  69.695  1.00  0.00    -0.199 C  
HETATM    4  N   UNL     1      -9.437   8.390  72.156  1.00  0.00    -0.262 NA 
HETATM    5  C   UNL     1     -10.576   6.285  71.681  1.00  0.00    -0.271 C  
HETATM    6  H2  UNL     1      -8.664   9.029  71.965  1.00  0.00     0.000 HD 
HETATM    7  N   UNL     1      -9.719   9.428  69.470  1.00  0.00    -0.173 N  
HETATM    8  H1  UNL     1     -10.331   8.869  72.270  1.00  0.00     0.000 HD 
HETATM    9  O   UNL     1     -10.847   7.524  68.874  1.00  0.00    -0.155 OA 
HETATM   10  H   UNL     1      -9.267   9.839  70.286  1.00  0.00     0.000 HD 
ENDROOT
BRANCH   7  11
HETATM   11  C   UNL     1      -9.776  10.413  68.249  1.00  0.00    -0.151 C  
BRANCH  11  12
HETATM   12  C   UNL     1     -11.111  11.092  67.689  1.00  0.00    -0.363 C  
BRANCH  12  13
HETATM   13  C   UNL     1     -11.714  12.398  68.398  1.00  0.00    -0.386 A  
HETATM   14  C   UNL     1     -11.772  13.693  67.918  1.00  0.00    -0.360 A  
HETATM   15  C   UNL     1     -13.222  11.989  71.985  1.00  0.00    -0.481 A  
HETATM   16  C   UNL     1     -13.268  13.344  72.304  1.00  0.00    -0.570 A  
HETATM   17  C   UNL     1     -12.927  14.294  71.343  1.00  0.00    -0.411 A  
HETATM   18  N   UNL     1     -12.218  14.550  68.924  1.00  0.00    -0.564 NA 
HETATM   19  C   UNL     1     -12.760  11.557  70.724  1.00  0.00    -0.318 A  
HETATM   20  C   UNL     1     -12.338  12.492  69.740  1.00  0.00    -0.085 A  
HETATM   21  C   UNL     1     -12.504  13.839  70.065  1.00  0.00    -0.240 A  
HETATM   22  H   UNL     1     -12.318  15.560  68.827  1.00  0.00     0.000 HD 
ENDBRANCH  12  13
ENDBRANCH  11  12
BRANCH  11  23
HETATM   23  C   UNL     1      -8.848   9.827  67.152  1.00  0.00    -0.132 C  
HETATM   24  N   UNL     1      -9.428   9.009  66.202  1.00  0.00    -0.233 N  
HETATM   25  H   UNL     1     -10.443   8.923  66.160  1.00  0.00     0.000 HD 
HETATM   26  O   UNL     1      -7.630  10.026  67.195  1.00  0.00    -0.091 OA 
BRANCH  24  27
HETATM   27  C   UNL     1      -8.605   8.274  65.269  1.00  0.00    -0.132 C  
BRANCH  27  28
HETATM   28  N   UNL     1      -7.803   9.211  64.525  1.00  0.00    -0.114 N  
HETATM   29  O   UNL     1      -9.381   9.602  62.882  1.00  0.00    -0.236 OA 
HETATM   30  C   UNL     1      -8.282   9.801  63.377  1.00  0.00    -0.158 C  
HETATM   31  H   UNL     1      -6.866   9.441  64.853  1.00  0.00     0.000 HD 
ENDBRANCH  27  28
BRANCH  27  32
HETATM   32  C   UNL     1      -7.845   7.034  65.786  1.00  0.00    -0.109 C  
BRANCH  32  33
HETATM   33  C   UNL     1      -8.405   5.749  66.375  1.00  0.00    -0.113 A  
HETATM   34  C   UNL     1      -9.087   3.823  67.439  1.00  0.00    -0.163 A  
HETATM   35  H   UNL     1     -10.627   3.426  66.042  1.00  0.00     0.000 HD 
HETATM   36  C   UNL     1      -9.171   2.772  68.366  1.00  0.00    -0.248 A  
HETATM   37  C   UNL     1      -9.477   5.167  65.704  1.00  0.00    -0.115 A  
HETATM   38  C   UNL     1      -8.241   2.747  69.398  1.00  0.00    -0.071 A  
HETATM   39  N   UNL     1      -9.865   4.033  66.342  1.00  0.00    -0.194 NA 
HETATM   40  C   UNL     1      -7.264   3.738  69.484  1.00  0.00    -0.045 A  
HETATM   41  C   UNL     1      -7.202   4.794  68.550  1.00  0.00    -0.061 A  
HETATM   42  C   UNL     1      -8.136   4.861  67.493  1.00  0.00    -0.102 A  
ENDBRANCH  32  33
ENDBRANCH  27  32
ENDBRANCH  24  27
ENDBRANCH  11  23
ENDBRANCH   7  11
TORSDOF 8
ENDMDL
MODEL      330
REMARK 921   NORMALIZED FREE ENERGY PREDICTED BY IDOCK:   -4.90 KCAL/MOL
REMARK 922        TOTAL FREE ENERGY PREDICTED BY IDOCK:   -9.34 KCAL/MOL
REMARK 923 INTER-LIGAND FREE ENERGY PREDICTED BY IDOCK:   -6.18 KCAL/MOL
REMARK 924 INTRA-LIGAND FREE ENERGY PREDICTED BY IDOCK:   -3.16 KCAL/MOL
REMARK 927      BINDING AFFINITY PREDICTED BY RF-SCORE:    0.00 PKD
ROOT
HETATM    1  C   UNL     1      -7.280  16.422  66.699  1.00  0.00    -0.208 C  
HETATM    2  C   UNL     1      -8.698  15.952  67.079  1.00  0.00    -0.222 C  
HETATM    3  C   UNL     1      -8.701  14.682  68.170  1.00  0.00    -0.168 C  
HETATM    4  N   UNL     1      -9.369  15.509  65.823  1.00  0.00    -0.344 NA 
HETATM    5  C   UNL     1      -9.436  17.239  67.542  1.00  0.00    -0.245 C  
HETATM    6  H2  UNL     1      -8.836  14.802  65.314  1.00  0.00     0.000 HD 
HETATM    7  N   UNL     1      -8.645  13.384  67.649  1.00  0.00    -0.179 N  
HETATM    8  H1  UNL     1     -10.307  15.197  66.074  1.00  0.00     0.000 HD 
HETATM    9  O   UNL     1      -8.709  14.880  69.384  1.00  0.00    -0.150 OA 
HETATM   10  H   UNL     1      -8.786  13.359  66.640  1.00  0.00     0.000 HD 
ENDROOT
BRANCH   7  11
HETATM   11  C   UNL     1      -8.416  11.957  68.262  1.00  0.00    -0.161 C  
BRANCH  11  12
HETATM   12  C   UNL     1      -6.985  11.339  68.618  1.00  0.00    -0.084 C  
BRANCH  12  13
HETATM   13  C   UNL     1      -6.799  10.428  69.926  1.00  0.00    -0.143 A  
HETATM   14  C   UNL     1      -5.653  10.197  70.662  1.00  0.00    -0.078 A  
HETATM   15  C   UNL     1      -9.941   8.534  71.285  1.00  0.00    -0.284 A  
HETATM   16  C   UNL     1      -9.260   7.658  72.125  1.00  0.00    -0.182 A  
HETATM   17  C   UNL     1      -7.882   7.789  72.292  1.00  0.00    -0.127 A  
HETATM   18  N   UNL     1      -5.895   9.208  71.615  1.00  0.00    -0.070 NA 
HETATM   19  C   UNL     1      -9.247   9.506  70.534  1.00  0.00    -0.284 A  
HETATM   20  C   UNL     1      -7.834   9.626  70.624  1.00  0.00    -0.084 A  
HETATM   21  C   UNL     1      -7.207   8.801  71.558  1.00  0.00    -0.088 A  
HETATM   22  H   UNL     1      -5.199   8.839  72.262  1.00  0.00     0.000 HD 
ENDBRANCH  12  13
ENDBRANCH  11  12
BRANCH  11  23
HETATM   23  C   UNL     1      -9.363  10.985  67.509  1.00  0.00    -0.159 C  
HETATM   24  N   UNL     1      -8.855   9.748  67.162  1.00  0.00    -0.132 N  
HETATM   25  H   UNL     1      -7.946   9.455  67.519  1.00  0.00     0.000 HD 
HETATM   26  O   UNL     1     -10.491  11.353  67.168  1.00  0.00    -0.208 OA 
BRANCH  24  27
HETATM   27  C   UNL     1      -9.604   8.867  66.296  1.00  0.00    -0.260 C  
BRANCH  27  28
HETATM   28  N   UNL     1      -8.740   8.421  65.233  1.00  0.00    -0.315 N  
HETATM   29  O   UNL     1      -8.692  10.444  64.117  1.00  0.00    -0.181 OA 
HETATM   30  C   UNL     1      -8.356   9.274  64.224  1.00  0.00    -0.177 C  
HETATM   31  H   UNL     1      -8.407   7.457  65.229  1.00  0.00     0.000 HD 
ENDBRANCH  27  28
BRANCH  27  32
HETATM   32  C   UNL     1     -10.462   7.760  66.946  1.00  0.00    -0.388 C  
BRANCH  32  33
HETATM   33  C   UNL     1     -10.073   6.763  68.025  1.00  0.00    -0.183 A  
HETATM   34  C   UNL     1      -9.255   5.297  69.604  1.00  0.00    -0.118 A  
HETATM   35  H   UNL     1     -11.178   4.738  70.288  1.00  0.00     0.000 HD 
HETATM   36  C   UNL     1      -8.367   4.554  70.397  1.00  0.00    -0.084 A  
HETATM   37  C   UNL     1     -11.114   6.163  68.728  1.00  0.00    -0.319 A  
HETATM   38  C   UNL     1      -7.007   4.690  70.143  1.00  0.00    -0.048 A  
HETATM   39  N   UNL     1     -10.615   5.301  69.651  1.00  0.00    -0.263 NA 
HETATM   40  C   UNL     1      -6.566   5.536  69.126  1.00  0.00    -0.047 A  
HETATM   41  C   UNL     1      -7.473   6.285  68.346  1.00  0.00    -0.088 A  
HETATM   42  C   UNL     1      -8.862   6.182  68.580  1.00  0.00    -0.114 A  
ENDBRANCH  32  33
ENDBRANCH  27  32
ENDBRANCH  24  27
ENDBRANCH  11  23
ENDBRANCH   7  11
TORSDOF 8
ENDMDL
MODEL      331
REMARK 921   NORMALIZED FREE ENERGY PREDICTED BY IDOCK:   -4.90 KCAL/MOL
REMARK 922        TOTAL FREE ENERGY PREDICTED BY IDOCK:   -9.34 KCAL/MOL
REMARK 923 INTER-LIGAND FREE ENERGY PREDICTED BY IDOCK:   -8.04 KCAL/MOL
REMARK 924 INTRA-LIGAND FREE ENERGY PREDICTED BY IDOCK:   -1.30 KCAL/MOL
REMARK 927      BINDING AFFINITY PREDICTED BY RF-SCORE:    0.00 PKD
ROOT
HETATM    1  C   UNL     1     -10.921   9.690  71.808  1.00  0.00     0.021 C  
HETATM    2  C   UNL     1     -12.264  10.157  71.212  1.00  0.00    -0.398 C  
HETATM    3  C   UNL     1     -12.120  10.759  69.657  1.00  0.00    -0.289 C  
HETATM    4  N   UNL     1     -12.791  11.234  72.098  1.00  0.00    -0.230 NA 
HETATM    5  C   UNL     1     -13.219   8.942  71.378  1.00  0.00    -0.309 C  
HETATM    6  H2  UNL     1     -12.129  11.998  72.236  1.00  0.00     0.000 HD 
HETATM    7  N   UNL     1     -11.834  12.122  69.516  1.00  0.00    -0.322 N  
HETATM    8  H1  UNL     1     -13.680  11.542  71.703  1.00  0.00     0.000 HD 
HETATM    9  O   UNL     1     -12.221  10.027  68.673  1.00  0.00     0.344 OA 
HETATM   10  H   UNL     1     -11.918  12.634  70.394  1.00  0.00     0.000 HD 
ENDROOT
BRANCH   7  11
HETATM   11  C   UNL     1     -11.413  13.044  68.318  1.00  0.00    -0.312 C  
BRANCH  11  12
HETATM   12  C   UNL     1     -12.018  14.497  68.030  1.00  0.00    -0.305 C  
BRANCH  12  13
HETATM   13  C   UNL     1     -11.309  15.803  68.635  1.00  0.00    -0.369 A  
HETATM   14  C   UNL     1     -11.094  16.135  69.959  1.00  0.00    -0.363 A  
HETATM   15  C   UNL     1     -10.004  18.495  66.113  1.00  0.00    -0.341 A  
HETATM   16  C   UNL     1      -9.828  19.521  67.037  1.00  0.00    -0.469 A  
HETATM   17  C   UNL     1     -10.026  19.272  68.395  1.00  0.00    -0.502 A  
HETATM   18  N   UNL     1     -10.602  17.438  70.045  1.00  0.00    -0.042 NA 
HETATM   19  C   UNL     1     -10.457  17.222  66.521  1.00  0.00    -0.260 A  
HETATM   20  C   UNL     1     -10.735  16.948  67.886  1.00  0.00    -0.344 A  
HETATM   21  C   UNL     1     -10.442  17.971  68.789  1.00  0.00    -0.172 A  
HETATM   22  H   UNL     1     -10.392  17.924  70.916  1.00  0.00     0.000 HD 
ENDBRANCH  12  13
ENDBRANCH  11  12
BRANCH  11  23
HETATM   23  C   UNL     1     -11.309  12.136  67.063  1.00  0.00    -0.337 C  
HETATM   24  N   UNL     1     -10.113  11.477  66.855  1.00  0.00    -0.209 N  
HETATM   25  H   UNL     1      -9.396  11.489  67.580  1.00  0.00     0.000 HD 
HETATM   26  O   UNL     1     -12.238  12.087  66.252  1.00  0.00    -0.548 OA 
BRANCH  24  27
HETATM   27  C   UNL     1      -9.873  10.772  65.617  1.00  0.00    -0.245 C  
BRANCH  27  28
HETATM   28  N   UNL     1      -9.292  11.689  64.670  1.00  0.00    -0.422 N  
HETATM   29  O   UNL     1     -10.976  11.485  63.099  1.00  0.00    -0.286 OA 
HETATM   30  C   UNL     1      -9.917  11.965  63.474  1.00  0.00    -0.400 C  
HETATM   31  H   UNL     1      -8.405  12.140  64.888  1.00  0.00     0.000 HD 
ENDBRANCH  27  28
BRANCH  27  32
HETATM   32  C   UNL     1      -9.191   9.389  65.686  1.00  0.00    -0.285 C  
BRANCH  32  33
HETATM   33  C   UNL     1      -8.001   8.953  66.525  1.00  0.00    -0.103 A  
HETATM   34  C   UNL     1      -6.276   8.445  67.966  1.00  0.00    -0.052 A  
HETATM   35  H   UNL     1      -5.399   7.040  66.648  1.00  0.00     0.000 HD 
HETATM   36  C   UNL     1      -5.445   8.435  69.097  1.00  0.00    -0.031 A  
HETATM   37  C   UNL     1      -7.158   7.994  65.968  1.00  0.00    -0.062 A  
HETATM   38  C   UNL     1      -5.758   9.305  70.134  1.00  0.00    -0.031 A  
HETATM   39  N   UNL     1      -6.147   7.709  66.828  1.00  0.00    -0.046 NA 
HETATM   40  C   UNL     1      -6.860  10.153  70.029  1.00  0.00    -0.137 A  
HETATM   41  C   UNL     1      -7.692  10.140  68.889  1.00  0.00    -0.093 A  
HETATM   42  C   UNL     1      -7.413   9.263  67.818  1.00  0.00    -0.088 A  
ENDBRANCH  32  33
ENDBRANCH  27  32
ENDBRANCH  24  27
ENDBRANCH  11  23
ENDBRANCH   7  11
TORSDOF 8
ENDMDL
MODEL      332
REMARK 921   NORMALIZED FREE ENERGY PREDICTED BY IDOCK:   -4.89 KCAL/MOL
REMARK 922        TOTAL FREE ENERGY PREDICTED BY IDOCK:   -9.32 KCAL/MOL
REMARK 923 INTER-LIGAND FREE ENERGY PREDICTED BY IDOCK:   -8.60 KCAL/MOL
REMARK 924 INTRA-LIGAND FREE ENERGY PREDICTED BY IDOCK:   -0.72 KCAL/MOL
REMARK 927      BINDING AFFINITY PREDICTED BY RF-SCORE:    0.00 PKD
ROOT
HETATM    1  C   UNL     1     -13.588  15.277  70.669  1.00  0.00    -0.187 C  
HETATM    2  C   UNL     1     -12.234  15.320  71.404  1.00  0.00    -0.352 C  
HETATM    3  C   UNL     1     -10.967  15.804  70.423  1.00  0.00    -0.355 C  
HETATM    4  N   UNL     1     -11.956  13.943  71.903  1.00  0.00    -0.047 NA 
HETATM    5  C   UNL     1     -12.488  16.201  72.659  1.00  0.00    -0.535 C  
HETATM    6  H2  UNL     1     -11.988  13.237  71.166  1.00  0.00     0.000 HD 
HETATM    7  N   UNL     1     -10.295  14.812  69.699  1.00  0.00    -0.415 N  
HETATM    8  H1  UNL     1     -11.060  13.972  72.390  1.00  0.00     0.000 HD 
HETATM    9  O   UNL     1     -10.662  16.991  70.307  1.00  0.00    -0.015 OA 
HETATM   10  H   UNL     1     -10.551  13.870  69.993  1.00  0.00     0.000 HD 
ENDROOT
BRANCH   7  11
HETATM   11  C   UNL     1      -9.238  14.816  68.539  1.00  0.00    -0.194 C  
BRANCH  11  12
HETATM   12  C   UNL     1      -9.376  15.654  67.184  1.00  0.00    -0.229 C  
BRANCH  12  13
HETATM   13  C   UNL     1      -9.141  17.241  67.186  1.00  0.00    -0.234 A  
HETATM   14  C   UNL     1     -10.003  18.242  67.593  1.00  0.00    -0.338 A  
HETATM   15  C   UNL     1      -5.714  18.573  65.850  1.00  0.00    -0.212 A  
HETATM   16  C   UNL     1      -6.094  19.904  65.707  1.00  0.00    -0.208 A  
HETATM   17  C   UNL     1      -7.355  20.315  66.138  1.00  0.00    -0.276 A  
HETATM   18  N   UNL     1      -9.468  19.488  67.264  1.00  0.00    -0.318 NA 
HETATM   19  C   UNL     1      -6.616  17.611  66.352  1.00  0.00    -0.278 A  
HETATM   20  C   UNL     1      -7.933  17.976  66.737  1.00  0.00    -0.261 A  
HETATM   21  C   UNL     1      -8.234  19.338  66.679  1.00  0.00    -0.293 A  
HETATM   22  H   UNL     1      -9.928  20.382  67.434  1.00  0.00     0.000 HD 
ENDBRANCH  12  13
ENDBRANCH  11  12
BRANCH  11  23
HETATM   23  C   UNL     1      -8.783  13.345  68.337  1.00  0.00    -0.134 C  
HETATM   24  N   UNL     1      -7.627  13.133  67.612  1.00  0.00    -0.156 N  
HETATM   25  H   UNL     1      -7.039  13.925  67.353  1.00  0.00     0.000 HD 
HETATM   26  O   UNL     1      -9.488  12.416  68.741  1.00  0.00    -0.064 OA 
BRANCH  24  27
HETATM   27  C   UNL     1      -7.246  11.797  67.217  1.00  0.00    -0.142 C  
BRANCH  27  28
HETATM   28  N   UNL     1      -6.384  11.245  68.230  1.00  0.00    -0.049 N  
HETATM   29  O   UNL     1      -5.830   9.342  67.042  1.00  0.00    -0.044 OA 
HETATM   30  C   UNL     1      -5.741  10.043  68.039  1.00  0.00    -0.038 C  
HETATM   31  H   UNL     1      -6.247  11.753  69.103  1.00  0.00     0.000 HD 
ENDBRANCH  27  28
BRANCH  27  32
HETATM   32  C   UNL     1      -8.350  10.843  66.712  1.00  0.00    -0.138 C  
BRANCH  32  33
HETATM   33  C   UNL     1      -9.312  11.028  65.550  1.00  0.00    -0.242 A  
HETATM   34  C   UNL     1     -10.884  11.470  63.924  1.00  0.00    -0.401 A  
HETATM   35  H   UNL     1     -10.055  10.094  62.546  1.00  0.00     0.000 HD 
HETATM   36  C   UNL     1     -11.983  12.026  63.250  1.00  0.00    -0.477 A  
HETATM   37  C   UNL     1      -9.076  10.260  64.412  1.00  0.00    -0.239 A  
HETATM   38  C   UNL     1     -12.757  12.953  63.937  1.00  0.00    -0.223 A  
HETATM   39  N   UNL     1     -10.011  10.531  63.466  1.00  0.00    -0.284 NA 
HETATM   40  C   UNL     1     -12.438  13.298  65.250  1.00  0.00    -0.543 A  
HETATM   41  C   UNL     1     -11.321  12.738  65.907  1.00  0.00    -0.363 A  
HETATM   42  C   UNL     1     -10.504  11.800  65.240  1.00  0.00    -0.320 A  
ENDBRANCH  32  33
ENDBRANCH  27  32
ENDBRANCH  24  27
ENDBRANCH  11  23
ENDBRANCH   7  11
TORSDOF 8
ENDMDL
MODEL      333
REMARK 921   NORMALIZED FREE ENERGY PREDICTED BY IDOCK:   -4.89 KCAL/MOL
REMARK 922        TOTAL FREE ENERGY PREDICTED BY IDOCK:   -9.31 KCAL/MOL
REMARK 923 INTER-LIGAND FREE ENERGY PREDICTED BY IDOCK:   -7.73 KCAL/MOL
REMARK 924 INTRA-LIGAND FREE ENERGY PREDICTED BY IDOCK:   -1.59 KCAL/MOL
REMARK 927      BINDING AFFINITY PREDICTED BY RF-SCORE:    0.00 PKD
ROOT
HETATM    1  C   UNL     1      -8.631   7.818  72.643  1.00  0.00    -0.191 C  
HETATM    2  C   UNL     1      -9.977   7.436  71.999  1.00  0.00    -0.166 C  
HETATM    3  C   UNL     1     -10.101   7.913  70.399  1.00  0.00    -0.194 C  
HETATM    4  N   UNL     1     -11.051   8.108  72.786  1.00  0.00    -0.382 NA 
HETATM    5  C   UNL     1     -10.127   5.911  72.260  1.00  0.00    -0.210 C  
HETATM    6  H2  UNL     1     -10.918   9.117  72.863  1.00  0.00     0.000 HD 
HETATM    7  N   UNL     1     -10.593   9.199  70.145  1.00  0.00    -0.217 N  
HETATM    8  H1  UNL     1     -11.943   7.855  72.358  1.00  0.00     0.000 HD 
HETATM    9  O   UNL     1      -9.735   7.180  69.481  1.00  0.00    -0.157 OA 
HETATM   10  H   UNL     1     -10.988   9.639  70.975  1.00  0.00     0.000 HD 
ENDROOT
BRANCH   7  11
HETATM   11  C   UNL     1     -10.676  10.118  68.875  1.00  0.00    -0.223 C  
BRANCH  11  12
HETATM   12  C   UNL     1     -11.885  11.112  68.549  1.00  0.00    -0.330 C  
BRANCH  12  13
HETATM   13  C   UNL     1     -11.629  12.448  67.700  1.00  0.00    -0.421 A  
HETATM   14  C   UNL     1     -11.275  13.706  68.152  1.00  0.00    -0.275 A  
HETATM   15  C   UNL     1     -12.064  12.246  63.817  1.00  0.00    -0.624 A  
HETATM   16  C   UNL     1     -12.104  13.618  63.580  1.00  0.00    -0.341 A  
HETATM   17  C   UNL     1     -11.886  14.509  64.630  1.00  0.00    -0.462 A  
HETATM   18  N   UNL     1     -11.324  14.618  67.097  1.00  0.00    -0.345 NA 
HETATM   19  C   UNL     1     -11.883  11.742  65.122  1.00  0.00    -0.073 A  
HETATM   20  C   UNL     1     -11.726  12.617  66.229  1.00  0.00    -0.460 A  
HETATM   21  C   UNL     1     -11.664  13.979  65.929  1.00  0.00    -0.366 A  
HETATM   22  H   UNL     1     -11.135  15.616  67.182  1.00  0.00     0.000 HD 
ENDBRANCH  12  13
ENDBRANCH  11  12
BRANCH  11  23
HETATM   23  C   UNL     1     -10.208   9.263  67.667  1.00  0.00    -0.230 C  
HETATM   24  N   UNL     1      -8.847   9.156  67.456  1.00  0.00    -0.119 N  
HETATM   25  H   UNL     1      -8.197   9.511  68.156  1.00  0.00     0.000 HD 
HETATM   26  O   UNL     1     -11.036   8.780  66.889  1.00  0.00    -0.060 OA 
BRANCH  24  27
HETATM   27  C   UNL     1      -8.341   8.544  66.249  1.00  0.00    -0.116 C  
BRANCH  27  28
HETATM   28  N   UNL     1      -7.556   9.517  65.533  1.00  0.00    -0.102 N  
HETATM   29  O   UNL     1      -9.137   9.922  63.897  1.00  0.00    -0.236 OA 
HETATM   30  C   UNL     1      -8.043  10.129  64.400  1.00  0.00    -0.163 C  
HETATM   31  H   UNL     1      -6.624   9.756  65.871  1.00  0.00     0.000 HD 
ENDBRANCH  27  28
BRANCH  27  32
HETATM   32  C   UNL     1      -7.702   7.143  66.354  1.00  0.00    -0.100 C  
BRANCH  32  33
HETATM   33  C   UNL     1      -8.366   5.814  66.677  1.00  0.00    -0.109 A  
HETATM   34  C   UNL     1      -9.177   3.748  67.296  1.00  0.00    -0.183 A  
HETATM   35  H   UNL     1     -10.992   3.982  66.231  1.00  0.00     0.000 HD 
HETATM   36  C   UNL     1      -9.277   2.480  67.892  1.00  0.00    -0.250 A  
HETATM   37  C   UNL     1      -9.629   5.596  66.133  1.00  0.00    -0.120 A  
HETATM   38  C   UNL     1      -8.194   2.031  68.637  1.00  0.00    -0.073 A  
HETATM   39  N   UNL     1     -10.091   4.374  66.505  1.00  0.00    -0.229 NA 
HETATM   40  C   UNL     1      -7.056   2.827  68.769  1.00  0.00    -0.048 A  
HETATM   41  C   UNL     1      -6.978   4.104  68.174  1.00  0.00    -0.051 A  
HETATM   42  C   UNL     1      -8.062   4.600  67.416  1.00  0.00    -0.101 A  
ENDBRANCH  32  33
ENDBRANCH  27  32
ENDBRANCH  24  27
ENDBRANCH  11  23
ENDBRANCH   7  11
TORSDOF 8
ENDMDL
MODEL      334
REMARK 921   NORMALIZED FREE ENERGY PREDICTED BY IDOCK:   -4.88 KCAL/MOL
REMARK 922        TOTAL FREE ENERGY PREDICTED BY IDOCK:   -9.31 KCAL/MOL
REMARK 923 INTER-LIGAND FREE ENERGY PREDICTED BY IDOCK:   -7.77 KCAL/MOL
REMARK 924 INTRA-LIGAND FREE ENERGY PREDICTED BY IDOCK:   -1.54 KCAL/MOL
REMARK 927      BINDING AFFINITY PREDICTED BY RF-SCORE:    0.00 PKD
ROOT
HETATM    1  C   UNL     1      -8.649  10.139  64.514  1.00  0.00    -0.198 C  
HETATM    2  C   UNL     1      -9.649   9.945  65.671  1.00  0.00    -0.256 C  
HETATM    3  C   UNL     1      -9.077  10.510  67.139  1.00  0.00    -0.143 C  
HETATM    4  N   UNL     1      -9.913   8.482  65.788  1.00  0.00    -0.368 NA 
HETATM    5  C   UNL     1     -10.970  10.593  65.169  1.00  0.00     0.185 C  
HETATM    6  H2  UNL     1      -9.061   7.931  65.900  1.00  0.00     0.000 HD 
HETATM    7  N   UNL     1      -8.331   9.624  67.925  1.00  0.00    -0.117 N  
HETATM    8  H1  UNL     1     -10.575   8.354  66.553  1.00  0.00     0.000 HD 
HETATM    9  O   UNL     1      -9.266  11.672  67.497  1.00  0.00    -0.167 OA 
HETATM   10  H   UNL     1      -8.371   8.665  67.581  1.00  0.00     0.000 HD 
ENDROOT
BRANCH   7  11
HETATM   11  C   UNL     1      -7.447   9.767  69.214  1.00  0.00    -0.090 C  
BRANCH  11  12
HETATM   12  C   UNL     1      -7.938   9.422  70.697  1.00  0.00    -0.189 C  
BRANCH  12  13
HETATM   13  C   UNL     1      -8.994   8.241  70.946  1.00  0.00    -0.174 A  
HETATM   14  C   UNL     1      -8.792   6.875  70.898  1.00  0.00    -0.149 A  
HETATM   15  C   UNL     1     -12.683   9.248  71.779  1.00  0.00    -0.462 A  
HETATM   16  C   UNL     1     -13.253   7.998  71.555  1.00  0.00    -0.320 A  
HETATM   17  C   UNL     1     -12.437   6.906  71.266  1.00  0.00    -0.409 A  
HETATM   18  N   UNL     1     -10.014   6.212  71.006  1.00  0.00    -0.182 NA 
HETATM   19  C   UNL     1     -11.292   9.445  71.639  1.00  0.00    -0.452 A  
HETATM   20  C   UNL     1     -10.435   8.373  71.278  1.00  0.00    -0.273 A  
HETATM   21  C   UNL     1     -11.035   7.117  71.170  1.00  0.00    -0.248 A  
HETATM   22  H   UNL     1     -10.134   5.200  70.967  1.00  0.00     0.000 HD 
ENDBRANCH  12  13
ENDBRANCH  11  12
BRANCH  11  23
HETATM   23  C   UNL     1      -6.683  11.113  69.091  1.00  0.00    -0.092 C  
HETATM   24  N   UNL     1      -7.342  12.255  69.500  1.00  0.00    -0.298 N  
HETATM   25  H   UNL     1      -8.233  12.178  69.990  1.00  0.00     0.000 HD 
HETATM   26  O   UNL     1      -5.567  11.148  68.565  1.00  0.00    -0.043 OA 
BRANCH  24  27
HETATM   27  C   UNL     1      -6.777  13.559  69.239  1.00  0.00    -0.080 C  
BRANCH  27  28
HETATM   28  N   UNL     1      -5.431  13.588  69.751  1.00  0.00    -0.091 N  
HETATM   29  O   UNL     1      -6.029  14.066  71.931  1.00  0.00    -0.326 OA 
HETATM   30  C   UNL     1      -5.181  13.843  71.080  1.00  0.00    -0.151 C  
HETATM   31  H   UNL     1      -4.650  13.418  69.117  1.00  0.00     0.000 HD 
ENDBRANCH  27  28
BRANCH  27  32
HETATM   32  C   UNL     1      -6.950  14.159  67.827  1.00  0.00    -0.189 C  
BRANCH  32  33
HETATM   33  C   UNL     1      -7.640  15.450  67.418  1.00  0.00    -0.233 A  
HETATM   34  C   UNL     1      -8.553  17.517  66.965  1.00  0.00    -0.235 A  
HETATM   35  H   UNL     1      -9.831  16.779  65.448  1.00  0.00     0.000 HD 
HETATM   36  C   UNL     1      -8.818  18.895  67.011  1.00  0.00    -0.306 A  
HETATM   37  C   UNL     1      -8.586  15.360  66.401  1.00  0.00    -0.209 A  
HETATM   38  C   UNL     1      -8.139  19.650  67.960  1.00  0.00    -0.344 A  
HETATM   39  N   UNL     1      -9.115  16.585  66.148  1.00  0.00    -0.379 NA 
HETATM   40  C   UNL     1      -7.236  19.037  68.828  1.00  0.00    -0.358 A  
HETATM   41  C   UNL     1      -6.973  17.652  68.759  1.00  0.00    -0.245 A  
HETATM   42  C   UNL     1      -7.635  16.852  67.802  1.00  0.00    -0.180 A  
ENDBRANCH  32  33
ENDBRANCH  27  32
ENDBRANCH  24  27
ENDBRANCH  11  23
ENDBRANCH   7  11
TORSDOF 8
ENDMDL
MODEL      335
REMARK 921   NORMALIZED FREE ENERGY PREDICTED BY IDOCK:   -4.87 KCAL/MOL
REMARK 922        TOTAL FREE ENERGY PREDICTED BY IDOCK:   -9.29 KCAL/MOL
REMARK 923 INTER-LIGAND FREE ENERGY PREDICTED BY IDOCK:   -6.76 KCAL/MOL
REMARK 924 INTRA-LIGAND FREE ENERGY PREDICTED BY IDOCK:   -2.53 KCAL/MOL
REMARK 927      BINDING AFFINITY PREDICTED BY RF-SCORE:    0.00 PKD
ROOT
HETATM    1  C   UNL     1      -7.127   3.433  69.846  1.00  0.00    -0.041 C  
HETATM    2  C   UNL     1      -8.568   2.948  69.595  1.00  0.00    -0.067 C  
HETATM    3  C   UNL     1      -9.428   3.945  68.562  1.00  0.00    -0.148 C  
HETATM    4  N   UNL     1      -9.260   2.912  70.916  1.00  0.00    -0.123 NA 
HETATM    5  C   UNL     1      -8.418   1.471  69.135  1.00  0.00    -0.077 C  
HETATM    6  H2  UNL     1      -9.219   3.803  71.412  1.00  0.00     0.000 HD 
HETATM    7  N   UNL     1     -10.121   5.020  69.130  1.00  0.00    -0.204 N  
HETATM    8  H1  UNL     1     -10.213   2.591  70.749  1.00  0.00     0.000 HD 
HETATM    9  O   UNL     1      -9.419   3.768  67.344  1.00  0.00    -0.186 OA 
HETATM   10  H   UNL     1     -10.162   4.967  70.148  1.00  0.00     0.000 HD 
ENDROOT
BRANCH   7  11
HETATM   11  C   UNL     1     -10.851   6.288  68.562  1.00  0.00    -0.323 C  
BRANCH  11  12
HETATM   12  C   UNL     1     -10.819   6.746  67.030  1.00  0.00    -0.453 C  
BRANCH  12  13
HETATM   13  C   UNL     1      -9.714   7.793  66.521  1.00  0.00    -0.265 A  
HETATM   14  C   UNL     1      -9.899   8.986  65.849  1.00  0.00    -0.187 A  
HETATM   15  C   UNL     1      -5.955   6.939  67.189  1.00  0.00    -0.021 A  
HETATM   16  C   UNL     1      -5.411   7.870  66.309  1.00  0.00    -0.028 A  
HETATM   17  C   UNL     1      -6.247   8.771  65.650  1.00  0.00    -0.052 A  
HETATM   18  N   UNL     1      -8.665   9.496  65.444  1.00  0.00    -0.153 NA 
HETATM   19  C   UNL     1      -7.351   6.838  67.366  1.00  0.00    -0.095 A  
HETATM   20  C   UNL     1      -8.241   7.692  66.661  1.00  0.00    -0.124 A  
HETATM   21  C   UNL     1      -7.647   8.680  65.875  1.00  0.00    -0.089 A  
HETATM   22  H   UNL     1      -8.538  10.352  64.905  1.00  0.00     0.000 HD 
ENDBRANCH  12  13
ENDBRANCH  11  12
BRANCH  11  23
HETATM   23  C   UNL     1     -10.616   7.438  69.578  1.00  0.00    -0.237 C  
HETATM   24  N   UNL     1     -11.724   7.947  70.226  1.00  0.00    -0.474 N  
HETATM   25  H   UNL     1     -12.625   7.479  70.132  1.00  0.00     0.000 HD 
HETATM   26  O   UNL     1      -9.488   7.921  69.721  1.00  0.00    -0.163 OA 
BRANCH  24  27
HETATM   27  C   UNL     1     -11.614   9.139  71.035  1.00  0.00    -0.306 C  
BRANCH  27  28
HETATM   28  N   UNL     1     -10.409   9.055  71.818  1.00  0.00    -0.352 N  
HETATM   29  O   UNL     1     -11.220   7.490  73.313  1.00  0.00    -0.346 OA 
HETATM   30  C   UNL     1     -10.325   8.216  72.907  1.00  0.00    -0.263 C  
HETATM   31  H   UNL     1      -9.603   9.626  71.563  1.00  0.00     0.000 HD 
ENDBRANCH  27  28
BRANCH  27  32
HETATM   32  C   UNL     1     -11.856  10.505  70.358  1.00  0.00    -0.431 C  
BRANCH  32  33
HETATM   33  C   UNL     1     -10.952  11.272  69.407  1.00  0.00    -0.282 A  
HETATM   34  C   UNL     1      -9.402  12.293  68.041  1.00  0.00    -0.195 A  
HETATM   35  H   UNL     1     -10.803  13.657  67.230  1.00  0.00     0.000 HD 
HETATM   36  C   UNL     1      -8.192  12.604  67.399  1.00  0.00    -0.184 A  
HETATM   37  C   UNL     1     -11.543  12.291  68.664  1.00  0.00    -0.323 A  
HETATM   38  C   UNL     1      -7.063  11.882  67.767  1.00  0.00    -0.103 A  
HETATM   39  N   UNL     1     -10.616  12.882  67.867  1.00  0.00    -0.217 NA 
HETATM   40  C   UNL     1      -7.152  10.893  68.745  1.00  0.00    -0.083 A  
HETATM   41  C   UNL     1      -8.379  10.585  69.371  1.00  0.00    -0.117 A  
HETATM   42  C   UNL     1      -9.551  11.289  69.018  1.00  0.00    -0.048 A  
ENDBRANCH  32  33
ENDBRANCH  27  32
ENDBRANCH  24  27
ENDBRANCH  11  23
ENDBRANCH   7  11
TORSDOF 8
ENDMDL
MODEL      336
REMARK 921   NORMALIZED FREE ENERGY PREDICTED BY IDOCK:   -4.87 KCAL/MOL
REMARK 922        TOTAL FREE ENERGY PREDICTED BY IDOCK:   -9.29 KCAL/MOL
REMARK 923 INTER-LIGAND FREE ENERGY PREDICTED BY IDOCK:   -7.53 KCAL/MOL
REMARK 924 INTRA-LIGAND FREE ENERGY PREDICTED BY IDOCK:   -1.75 KCAL/MOL
REMARK 927      BINDING AFFINITY PREDICTED BY RF-SCORE:    0.00 PKD
ROOT
HETATM    1  C   UNL     1      -9.318   5.163  67.703  1.00  0.00    -0.134 C  
HETATM    2  C   UNL     1      -8.402   6.156  68.444  1.00  0.00    -0.114 C  
HETATM    3  C   UNL     1      -9.055   7.694  68.561  1.00  0.00    -0.131 C  
HETATM    4  N   UNL     1      -7.123   6.233  67.681  1.00  0.00    -0.078 NA 
HETATM    5  C   UNL     1      -8.069   5.462  69.794  1.00  0.00    -0.096 C  
HETATM    6  H2  UNL     1      -7.259   6.473  66.698  1.00  0.00     0.000 HD 
HETATM    7  N   UNL     1      -8.803   8.583  67.510  1.00  0.00    -0.135 N  
HETATM    8  H1  UNL     1      -6.517   6.891  68.173  1.00  0.00     0.000 HD 
HETATM    9  O   UNL     1      -9.763   8.019  69.513  1.00  0.00    -0.167 OA 
HETATM   10  H   UNL     1      -8.094   8.238  66.865  1.00  0.00     0.000 HD 
ENDROOT
BRANCH   7  11
HETATM   11  C   UNL     1      -9.362   9.990  67.097  1.00  0.00    -0.149 C  
BRANCH  11  12
HETATM   12  C   UNL     1      -9.628  10.458  65.591  1.00  0.00    -0.281 C  
BRANCH  12  13
HETATM   13  C   UNL     1     -10.075  11.966  65.278  1.00  0.00    -0.290 A  
HETATM   14  C   UNL     1      -9.929  12.686  64.108  1.00  0.00    -0.170 A  
HETATM   15  C   UNL     1     -11.795  13.986  68.154  1.00  0.00    -0.402 A  
HETATM   16  C   UNL     1     -11.666  15.246  67.576  1.00  0.00    -0.153 A  
HETATM   17  C   UNL     1     -11.151  15.367  66.286  1.00  0.00    -0.226 A  
HETATM   18  N   UNL     1     -10.298  14.015  64.321  1.00  0.00    -0.641 NA 
HETATM   19  C   UNL     1     -11.338  12.831  67.484  1.00  0.00    -0.361 A  
HETATM   20  C   UNL     1     -10.744  12.920  66.197  1.00  0.00    -0.290 A  
HETATM   21  C   UNL     1     -10.734  14.187  65.613  1.00  0.00    -0.313 A  
HETATM   22  H   UNL     1     -10.251  14.752  63.619  1.00  0.00     0.000 HD 
ENDBRANCH  12  13
ENDBRANCH  11  12
BRANCH  11  23
HETATM   23  C   UNL     1      -8.630  11.042  67.972  1.00  0.00    -0.134 C  
HETATM   24  N   UNL     1      -7.720  11.868  67.342  1.00  0.00    -0.149 N  
HETATM   25  H   UNL     1      -7.654  11.866  66.325  1.00  0.00     0.000 HD 
HETATM   26  O   UNL     1      -8.804  11.065  69.194  1.00  0.00    -0.110 OA 
BRANCH  24  27
HETATM   27  C   UNL     1      -6.861  12.735  68.116  1.00  0.00    -0.094 C  
BRANCH  27  28
HETATM   28  N   UNL     1      -5.660  12.015  68.452  1.00  0.00    -0.052 N  
HETATM   29  O   UNL     1      -5.998  12.068  70.737  1.00  0.00    -0.324 OA 
HETATM   30  C   UNL     1      -5.338  11.742  69.762  1.00  0.00    -0.075 C  
HETATM   31  H   UNL     1      -5.038  11.702  67.707  1.00  0.00     0.000 HD 
ENDBRANCH  27  28
BRANCH  27  32
HETATM   32  C   UNL     1      -6.636  14.177  67.612  1.00  0.00    -0.173 C  
BRANCH  32  33
HETATM   33  C   UNL     1      -7.457  15.425  67.892  1.00  0.00    -0.153 A  
HETATM   34  C   UNL     1      -8.593  17.416  68.129  1.00  0.00    -0.248 A  
HETATM   35  H   UNL     1      -9.691  16.754  69.814  1.00  0.00     0.000 HD 
HETATM   36  C   UNL     1      -9.038  18.729  67.910  1.00  0.00    -0.318 A  
HETATM   37  C   UNL     1      -8.337  15.367  68.970  1.00  0.00    -0.223 A  
HETATM   38  C   UNL     1      -8.453  19.443  66.871  1.00  0.00    -0.316 A  
HETATM   39  N   UNL     1      -8.995  16.548  69.097  1.00  0.00    -0.219 NA 
HETATM   40  C   UNL     1      -7.457  18.856  66.092  1.00  0.00    -0.292 A  
HETATM   41  C   UNL     1      -7.031  17.530  66.318  1.00  0.00    -0.332 A  
HETATM   42  C   UNL     1      -7.607  16.768  67.358  1.00  0.00    -0.188 A  
ENDBRANCH  32  33
ENDBRANCH  27  32
ENDBRANCH  24  27
ENDBRANCH  11  23
ENDBRANCH   7  11
TORSDOF 8
ENDMDL
MODEL      337
REMARK 921   NORMALIZED FREE ENERGY PREDICTED BY IDOCK:   -4.87 KCAL/MOL
REMARK 922        TOTAL FREE ENERGY PREDICTED BY IDOCK:   -9.29 KCAL/MOL
REMARK 923 INTER-LIGAND FREE ENERGY PREDICTED BY IDOCK:   -8.21 KCAL/MOL
REMARK 924 INTRA-LIGAND FREE ENERGY PREDICTED BY IDOCK:   -1.08 KCAL/MOL
REMARK 927      BINDING AFFINITY PREDICTED BY RF-SCORE:    0.00 PKD
ROOT
HETATM    1  C   UNL     1      -8.151  17.643  66.044  1.00  0.00    -0.148 C  
HETATM    2  C   UNL     1      -9.025  17.023  67.151  1.00  0.00    -0.222 C  
HETATM    3  C   UNL     1      -8.672  15.414  67.446  1.00  0.00    -0.179 C  
HETATM    4  N   UNL     1     -10.445  17.131  66.706  1.00  0.00    -0.297 NA 
HETATM    5  C   UNL     1      -8.871  17.980  68.366  1.00  0.00    -0.300 C  
HETATM    6  H2  UNL     1     -10.608  16.715  65.788  1.00  0.00     0.000 HD 
HETATM    7  N   UNL     1      -9.345  14.454  66.680  1.00  0.00    -0.270 N  
HETATM    8  H1  UNL     1     -11.024  16.720  67.439  1.00  0.00     0.000 HD 
HETATM    9  O   UNL     1      -7.824  15.084  68.274  1.00  0.00    -0.112 OA 
HETATM   10  H   UNL     1     -10.113  14.851  66.140  1.00  0.00     0.000 HD 
ENDROOT
BRANCH   7  11
HETATM   11  C   UNL     1      -9.188  12.908  66.461  1.00  0.00    -0.182 C  
BRANCH  11  12
HETATM   12  C   UNL     1      -9.664  12.121  65.153  1.00  0.00    -0.133 C  
BRANCH  12  13
HETATM   13  C   UNL     1      -8.988  10.721  64.759  1.00  0.00    -0.194 A  
HETATM   14  C   UNL     1      -9.409   9.788  63.829  1.00  0.00    -0.120 A  
HETATM   15  C   UNL     1      -5.718   9.687  66.641  1.00  0.00    -0.054 A  
HETATM   16  C   UNL     1      -5.720   8.348  66.261  1.00  0.00    -0.043 A  
HETATM   17  C   UNL     1      -6.678   7.885  65.360  1.00  0.00    -0.048 A  
HETATM   18  N   UNL     1      -8.627   8.637  63.927  1.00  0.00    -0.407 NA 
HETATM   19  C   UNL     1      -6.721  10.571  66.189  1.00  0.00    -0.127 A  
HETATM   20  C   UNL     1      -7.754  10.122  65.324  1.00  0.00    -0.144 A  
HETATM   21  C   UNL     1      -7.655   8.801  64.884  1.00  0.00    -0.099 A  
HETATM   22  H   UNL     1      -8.759   7.795  63.369  1.00  0.00     0.000 HD 
ENDBRANCH  12  13
ENDBRANCH  11  12
BRANCH  11  23
HETATM   23  C   UNL     1      -9.576  12.221  67.797  1.00  0.00    -0.200 C  
HETATM   24  N   UNL     1     -10.789  11.560  67.840  1.00  0.00    -0.198 N  
HETATM   25  H   UNL     1     -11.321  11.421  66.982  1.00  0.00     0.000 HD 
HETATM   26  O   UNL     1      -8.858  12.346  68.793  1.00  0.00    -0.014 OA 
BRANCH  24  27
HETATM   27  C   UNL     1     -11.307  11.065  69.095  1.00  0.00    -0.280 C  
BRANCH  27  28
HETATM   28  N   UNL     1     -10.207  10.583  69.890  1.00  0.00    -0.438 N  
HETATM   29  O   UNL     1     -11.316   8.727  70.707  1.00  0.00    -0.265 OA 
HETATM   30  C   UNL     1     -10.320   9.431  70.635  1.00  0.00    -0.284 C  
HETATM   31  H   UNL     1      -9.330  11.103  69.900  1.00  0.00     0.000 HD 
ENDBRANCH  27  28
BRANCH  27  32
HETATM   32  C   UNL     1     -12.328  11.936  69.857  1.00  0.00    -0.168 C  
BRANCH  32  33
HETATM   33  C   UNL     1     -12.178  13.363  70.358  1.00  0.00    -0.415 A  
HETATM   34  C   UNL     1     -12.003  15.442  71.336  1.00  0.00    -0.378 A  
HETATM   35  H   UNL     1     -11.527  16.416  69.517  1.00  0.00     0.000 HD 
HETATM   36  C   UNL     1     -11.992  16.465  72.298  1.00  0.00    -0.521 A  
HETATM   37  C   UNL     1     -11.850  14.329  69.410  1.00  0.00    -0.326 A  
HETATM   38  C   UNL     1     -12.314  16.123  73.606  1.00  0.00    -0.667 A  
HETATM   39  N   UNL     1     -11.754  15.547  70.002  1.00  0.00    -0.319 NA 
HETATM   40  C   UNL     1     -12.638  14.805  73.925  1.00  0.00    -0.365 A  
HETATM   41  C   UNL     1     -12.631  13.787  72.948  1.00  0.00     0.060 A  
HETATM   42  C   UNL     1     -12.301  14.093  71.609  1.00  0.00    -0.349 A  
ENDBRANCH  32  33
ENDBRANCH  27  32
ENDBRANCH  24  27
ENDBRANCH  11  23
ENDBRANCH   7  11
TORSDOF 8
ENDMDL
MODEL      338
REMARK 921   NORMALIZED FREE ENERGY PREDICTED BY IDOCK:   -4.87 KCAL/MOL
REMARK 922        TOTAL FREE ENERGY PREDICTED BY IDOCK:   -9.28 KCAL/MOL
REMARK 923 INTER-LIGAND FREE ENERGY PREDICTED BY IDOCK:   -7.92 KCAL/MOL
REMARK 924 INTRA-LIGAND FREE ENERGY PREDICTED BY IDOCK:   -1.36 KCAL/MOL
REMARK 927      BINDING AFFINITY PREDICTED BY RF-SCORE:    0.00 PKD
ROOT
HETATM    1  C   UNL     1      -9.423   2.621  64.883  1.00  0.00    -0.094 C  
HETATM    2  C   UNL     1      -9.868   3.971  64.290  1.00  0.00    -0.172 C  
HETATM    3  C   UNL     1      -8.982   5.269  64.867  1.00  0.00    -0.040 C  
HETATM    4  N   UNL     1     -11.300   4.166  64.658  1.00  0.00    -0.917 NA 
HETATM    5  C   UNL     1      -9.833   3.763  62.750  1.00  0.00    -0.138 C  
HETATM    6  H2  UNL     1     -11.467   4.096  65.662  1.00  0.00     0.000 HD 
HETATM    7  N   UNL     1      -9.429   5.885  66.042  1.00  0.00    -0.309 N  
HETATM    8  H1  UNL     1     -11.595   5.060  64.265  1.00  0.00     0.000 HD 
HETATM    9  O   UNL     1      -7.953   5.643  64.306  1.00  0.00    -0.112 OA 
HETATM   10  H   UNL     1     -10.359   5.573  66.319  1.00  0.00     0.000 HD 
ENDROOT
BRANCH   7  11
HETATM   11  C   UNL     1      -8.827   6.946  67.030  1.00  0.00    -0.119 C  
BRANCH  11  12
HETATM   12  C   UNL     1      -7.570   6.690  67.985  1.00  0.00    -0.107 C  
BRANCH  12  13
HETATM   13  C   UNL     1      -7.485   5.357  68.872  1.00  0.00    -0.075 A  
HETATM   14  C   UNL     1      -6.606   4.296  68.757  1.00  0.00    -0.045 A  
HETATM   15  C   UNL     1     -10.086   4.929  71.764  1.00  0.00    -0.267 A  
HETATM   16  C   UNL     1      -9.872   3.571  71.983  1.00  0.00    -0.238 A  
HETATM   17  C   UNL     1      -8.860   2.908  71.290  1.00  0.00    -0.134 A  
HETATM   18  N   UNL     1      -6.992   3.269  69.618  1.00  0.00    -0.041 NA 
HETATM   19  C   UNL     1      -9.343   5.631  70.791  1.00  0.00    -0.194 A  
HETATM   20  C   UNL     1      -8.350   4.976  70.016  1.00  0.00    -0.084 A  
HETATM   21  C   UNL     1      -8.096   3.644  70.345  1.00  0.00    -0.053 A  
HETATM   22  H   UNL     1      -6.521   2.368  69.696  1.00  0.00     0.000 HD 
ENDBRANCH  12  13
ENDBRANCH  11  12
BRANCH  11  23
HETATM   23  C   UNL     1     -10.026   7.645  67.726  1.00  0.00    -0.174 C  
HETATM   24  N   UNL     1      -9.918   9.002  67.962  1.00  0.00    -0.168 N  
HETATM   25  H   UNL     1      -9.139   9.525  67.561  1.00  0.00     0.000 HD 
HETATM   26  O   UNL     1     -10.989   6.982  68.121  1.00  0.00    -0.178 OA 
BRANCH  24  27
HETATM   27  C   UNL     1     -10.900   9.684  68.773  1.00  0.00    -0.168 C  
BRANCH  27  28
HETATM   28  N   UNL     1     -10.275  10.096  70.003  1.00  0.00    -0.359 N  
HETATM   29  O   UNL     1     -11.300   8.499  71.323  1.00  0.00    -0.251 OA 
HETATM   30  C   UNL     1     -10.540   9.447  71.187  1.00  0.00    -0.333 C  
HETATM   31  H   UNL     1      -9.626  10.883  69.997  1.00  0.00     0.000 HD 
ENDBRANCH  27  28
BRANCH  27  32
HETATM   32  C   UNL     1     -11.785  10.755  68.100  1.00  0.00    -0.173 C  
BRANCH  32  33
HETATM   33  C   UNL     1     -11.457  12.208  67.796  1.00  0.00    -0.398 A  
HETATM   34  C   UNL     1     -11.000  14.357  67.103  1.00  0.00    -0.303 A  
HETATM   35  H   UNL     1     -10.608  15.058  69.062  1.00  0.00     0.000 HD 
HETATM   36  C   UNL     1     -10.820  15.482  66.282  1.00  0.00    -0.283 A  
HETATM   37  C   UNL     1     -11.139  13.020  68.881  1.00  0.00    -0.262 A  
HETATM   38  C   UNL     1     -10.976  15.311  64.912  1.00  0.00    -0.445 A  
HETATM   39  N   UNL     1     -10.870  14.281  68.456  1.00  0.00    -0.245 NA 
HETATM   40  C   UNL     1     -11.295  14.057  64.394  1.00  0.00    -0.330 A  
HETATM   41  C   UNL     1     -11.485  12.940  65.236  1.00  0.00    -0.348 A  
HETATM   42  C   UNL     1     -11.345  13.074  66.634  1.00  0.00    -0.366 A  
ENDBRANCH  32  33
ENDBRANCH  27  32
ENDBRANCH  24  27
ENDBRANCH  11  23
ENDBRANCH   7  11
TORSDOF 8
ENDMDL
MODEL      339
REMARK 921   NORMALIZED FREE ENERGY PREDICTED BY IDOCK:   -4.85 KCAL/MOL
REMARK 922        TOTAL FREE ENERGY PREDICTED BY IDOCK:   -9.26 KCAL/MOL
REMARK 923 INTER-LIGAND FREE ENERGY PREDICTED BY IDOCK:   -7.11 KCAL/MOL
REMARK 924 INTRA-LIGAND FREE ENERGY PREDICTED BY IDOCK:   -2.15 KCAL/MOL
REMARK 927      BINDING AFFINITY PREDICTED BY RF-SCORE:    0.00 PKD
ROOT
HETATM    1  C   UNL     1      -7.411   7.532  70.105  1.00  0.00    -0.086 C  
HETATM    2  C   UNL     1      -7.961   8.849  70.687  1.00  0.00    -0.129 C  
HETATM    3  C   UNL     1      -8.446   9.938  69.512  1.00  0.00    -0.176 C  
HETATM    4  N   UNL     1      -6.869   9.467  71.494  1.00  0.00    -0.314 NA 
HETATM    5  C   UNL     1      -9.061   8.412  71.695  1.00  0.00    -0.268 C  
HETATM    6  H2  UNL     1      -6.005   9.594  70.965  1.00  0.00     0.000 HD 
HETATM    7  N   UNL     1      -7.480  10.818  69.009  1.00  0.00    -0.108 N  
HETATM    8  H1  UNL     1      -7.233  10.338  71.880  1.00  0.00     0.000 HD 
HETATM    9  O   UNL     1      -9.596   9.940  69.074  1.00  0.00    -0.169 OA 
HETATM   10  H   UNL     1      -6.618  10.807  69.553  1.00  0.00     0.000 HD 
ENDROOT
BRANCH   7  11
HETATM   11  C   UNL     1      -7.420  11.817  67.801  1.00  0.00    -0.117 C  
BRANCH  11  12
HETATM   12  C   UNL     1      -8.112  13.259  67.776  1.00  0.00    -0.166 C  
BRANCH  12  13
HETATM   13  C   UNL     1      -9.709  13.389  67.705  1.00  0.00    -0.222 A  
HETATM   14  C   UNL     1     -10.648  13.037  68.656  1.00  0.00    -0.236 A  
HETATM   15  C   UNL     1     -11.270  14.858  64.432  1.00  0.00    -0.171 A  
HETATM   16  C   UNL     1     -12.580  14.455  64.674  1.00  0.00    -0.256 A  
HETATM   17  C   UNL     1     -12.906  13.850  65.887  1.00  0.00    -0.387 A  
HETATM   18  N   UNL     1     -11.930  13.157  68.120  1.00  0.00    -0.336 NA 
HETATM   19  C   UNL     1     -10.246  14.592  65.365  1.00  0.00    -0.415 A  
HETATM   20  C   UNL     1     -10.524  13.916  66.583  1.00  0.00    -0.272 A  
HETATM   21  C   UNL     1     -11.867  13.628  66.831  1.00  0.00    -0.411 A  
HETATM   22  H   UNL     1     -12.792  12.927  68.615  1.00  0.00     0.000 HD 
ENDBRANCH  12  13
ENDBRANCH  11  12
BRANCH  11  23
HETATM   23  C   UNL     1      -7.639  10.981  66.511  1.00  0.00    -0.146 C  
HETATM   24  N   UNL     1      -8.925  10.551  66.246  1.00  0.00    -0.154 N  
HETATM   25  H   UNL     1      -9.701  10.899  66.808  1.00  0.00     0.000 HD 
HETATM   26  O   UNL     1      -6.676  10.652  65.812  1.00  0.00    -0.127 OA 
BRANCH  24  27
HETATM   27  C   UNL     1      -9.176   9.612  65.177  1.00  0.00    -0.246 C  
BRANCH  27  28
HETATM   28  N   UNL     1      -9.085  10.309  63.920  1.00  0.00    -0.231 N  
HETATM   29  O   UNL     1     -11.143  11.347  64.089  1.00  0.00    -0.362 OA 
HETATM   30  C   UNL     1     -10.101  11.131  63.489  1.00  0.00    -0.385 C  
HETATM   31  H   UNL     1      -8.254  10.192  63.340  1.00  0.00     0.000 HD 
ENDBRANCH  27  28
BRANCH  27  32
HETATM   32  C   UNL     1      -8.452   8.249  65.219  1.00  0.00    -0.179 C  
BRANCH  32  33
HETATM   33  C   UNL     1      -8.900   6.952  65.874  1.00  0.00    -0.125 A  
HETATM   34  C   UNL     1      -9.492   4.873  66.672  1.00  0.00    -0.150 A  
HETATM   35  H   UNL     1     -10.308   5.638  68.470  1.00  0.00     0.000 HD 
HETATM   36  C   UNL     1      -9.664   3.483  66.769  1.00  0.00    -0.045 A  
HETATM   37  C   UNL     1      -9.504   7.056  67.124  1.00  0.00    -0.145 A  
HETATM   38  C   UNL     1      -9.248   2.706  65.695  1.00  0.00    -0.087 A  
HETATM   39  N   UNL     1      -9.849   5.824  67.579  1.00  0.00    -0.122 NA 
HETATM   40  C   UNL     1      -8.688   3.309  64.569  1.00  0.00    -0.099 A  
HETATM   41  C   UNL     1      -8.512   4.708  64.494  1.00  0.00    -0.136 A  
HETATM   42  C   UNL     1      -8.913   5.531  65.569  1.00  0.00    -0.133 A  
ENDBRANCH  32  33
ENDBRANCH  27  32
ENDBRANCH  24  27
ENDBRANCH  11  23
ENDBRANCH   7  11
TORSDOF 8
ENDMDL
MODEL      340
REMARK 921   NORMALIZED FREE ENERGY PREDICTED BY IDOCK:   -4.85 KCAL/MOL
REMARK 922        TOTAL FREE ENERGY PREDICTED BY IDOCK:   -9.26 KCAL/MOL
REMARK 923 INTER-LIGAND FREE ENERGY PREDICTED BY IDOCK:   -6.80 KCAL/MOL
REMARK 924 INTRA-LIGAND FREE ENERGY PREDICTED BY IDOCK:   -2.47 KCAL/MOL
REMARK 927      BINDING AFFINITY PREDICTED BY RF-SCORE:    0.00 PKD
ROOT
HETATM    1  C   UNL     1      -9.845   3.981  66.185  1.00  0.00    -0.176 C  
HETATM    2  C   UNL     1      -9.257   4.391  67.550  1.00  0.00    -0.143 C  
HETATM    3  C   UNL     1      -9.948   5.782  68.174  1.00  0.00    -0.148 C  
HETATM    4  N   UNL     1      -7.798   4.626  67.351  1.00  0.00    -0.090 NA 
HETATM    5  C   UNL     1      -9.382   3.121  68.437  1.00  0.00    -0.244 C  
HETATM    6  H2  UNL     1      -7.600   5.301  66.612  1.00  0.00     0.000 HD 
HETATM    7  N   UNL     1      -9.378   7.007  67.806  1.00  0.00    -0.126 N  
HETATM    8  H1  UNL     1      -7.409   4.897  68.254  1.00  0.00     0.000 HD 
HETATM    9  O   UNL     1     -10.944   5.736  68.895  1.00  0.00    -0.286 OA 
HETATM   10  H   UNL     1      -8.484   6.896  67.328  1.00  0.00     0.000 HD 
ENDROOT
BRANCH   7  11
HETATM   11  C   UNL     1      -9.799   8.511  67.960  1.00  0.00    -0.169 C  
BRANCH  11  12
HETATM   12  C   UNL     1      -9.884   9.560  66.756  1.00  0.00    -0.277 C  
BRANCH  12  13
HETATM   13  C   UNL     1     -10.840  10.844  66.866  1.00  0.00    -0.307 A  
HETATM   14  C   UNL     1     -11.537  11.311  67.964  1.00  0.00    -0.272 A  
HETATM   15  C   UNL     1     -11.368  13.000  63.644  1.00  0.00    -0.392 A  
HETATM   16  C   UNL     1     -12.473  13.714  64.098  1.00  0.00    -0.292 A  
HETATM   17  C   UNL     1     -12.911  13.552  65.412  1.00  0.00    -0.420 A  
HETATM   18  N   UNL     1     -12.381  12.353  67.580  1.00  0.00    -0.168 NA 
HETATM   19  C   UNL     1     -10.728  12.052  64.471  1.00  0.00    -0.358 A  
HETATM   20  C   UNL     1     -11.186  11.808  65.793  1.00  0.00    -0.337 A  
HETATM   21  C   UNL     1     -12.226  12.623  66.241  1.00  0.00    -0.155 A  
HETATM   22  H   UNL     1     -13.021  12.844  68.203  1.00  0.00     0.000 HD 
ENDBRANCH  12  13
ENDBRANCH  11  12
BRANCH  11  23
HETATM   23  C   UNL     1      -9.088   9.051  69.230  1.00  0.00    -0.145 C  
HETATM   24  N   UNL     1      -7.921   9.767  69.046  1.00  0.00    -0.091 N  
HETATM   25  H   UNL     1      -7.635  10.037  68.106  1.00  0.00     0.000 HD 
HETATM   26  O   UNL     1      -9.518   8.768  70.351  1.00  0.00    -0.162 OA 
BRANCH  24  27
HETATM   27  C   UNL     1      -7.103  10.134  70.179  1.00  0.00    -0.157 C  
BRANCH  27  28
HETATM   28  N   UNL     1      -6.309   8.995  70.562  1.00  0.00    -0.043 N  
HETATM   29  O   UNL     1      -6.934   9.022  72.787  1.00  0.00    -0.323 OA 
HETATM   30  C   UNL     1      -6.303   8.537  71.860  1.00  0.00    -0.069 C  
HETATM   31  H   UNL     1      -5.741   8.520  69.860  1.00  0.00     0.000 HD 
ENDBRANCH  27  28
BRANCH  27  32
HETATM   32  C   UNL     1      -6.336  11.472  70.122  1.00  0.00    -0.078 C  
BRANCH  32  33
HETATM   33  C   UNL     1      -6.488  12.617  69.134  1.00  0.00    -0.106 A  
HETATM   34  C   UNL     1      -6.951  14.355  67.694  1.00  0.00    -0.184 A  
HETATM   35  H   UNL     1      -4.950  14.523  67.025  1.00  0.00     0.000 HD 
HETATM   36  C   UNL     1      -7.645  15.351  66.988  1.00  0.00    -0.195 A  
HETATM   37  C   UNL     1      -5.336  13.030  68.471  1.00  0.00    -0.063 A  
HETATM   38  C   UNL     1      -9.015  15.454  67.199  1.00  0.00    -0.236 A  
HETATM   39  N   UNL     1      -5.626  14.052  67.625  1.00  0.00    -0.338 NA 
HETATM   40  C   UNL     1      -9.656  14.584  68.079  1.00  0.00    -0.217 A  
HETATM   41  C   UNL     1      -8.940  13.596  68.789  1.00  0.00     0.073 A  
HETATM   42  C   UNL     1      -7.546  13.466  68.610  1.00  0.00    -0.101 A  
ENDBRANCH  32  33
ENDBRANCH  27  32
ENDBRANCH  24  27
ENDBRANCH  11  23
ENDBRANCH   7  11
TORSDOF 8
ENDMDL
MODEL      341
REMARK 921   NORMALIZED FREE ENERGY PREDICTED BY IDOCK:   -4.84 KCAL/MOL
REMARK 922        TOTAL FREE ENERGY PREDICTED BY IDOCK:   -9.25 KCAL/MOL
REMARK 923 INTER-LIGAND FREE ENERGY PREDICTED BY IDOCK:   -7.40 KCAL/MOL
REMARK 924 INTRA-LIGAND FREE ENERGY PREDICTED BY IDOCK:   -1.86 KCAL/MOL
REMARK 927      BINDING AFFINITY PREDICTED BY RF-SCORE:    0.00 PKD
ROOT
HETATM    1  C   UNL     1     -11.546  15.507  66.866  1.00  0.00     0.099 C  
HETATM    2  C   UNL     1     -11.348  14.315  65.909  1.00  0.00    -0.328 C  
HETATM    3  C   UNL     1     -10.457  13.069  66.584  1.00  0.00    -0.264 C  
HETATM    4  N   UNL     1     -10.625  14.827  64.709  1.00  0.00    -0.563 NA 
HETATM    5  C   UNL     1     -12.779  13.940  65.435  1.00  0.00    -0.525 C  
HETATM    6  H2  UNL     1      -9.753  15.303  64.941  1.00  0.00     0.000 HD 
HETATM    7  N   UNL     1      -9.065  13.126  66.453  1.00  0.00    -0.447 N  
HETATM    8  H1  UNL     1     -10.494  14.038  64.076  1.00  0.00     0.000 HD 
HETATM    9  O   UNL     1     -11.000  12.159  67.209  1.00  0.00    -0.237 OA 
HETATM   10  H   UNL     1      -8.761  13.846  65.799  1.00  0.00     0.000 HD 
ENDROOT
BRANCH   7  11
HETATM   11  C   UNL     1      -7.863  12.335  67.082  1.00  0.00    -0.149 C  
BRANCH  11  12
HETATM   12  C   UNL     1      -6.502  13.002  67.592  1.00  0.00    -0.162 C  
BRANCH  12  13
HETATM   13  C   UNL     1      -6.523  14.437  68.309  1.00  0.00    -0.115 A  
HETATM   14  C   UNL     1      -6.072  14.780  69.570  1.00  0.00    -0.112 A  
HETATM   15  C   UNL     1      -8.061  17.439  66.326  1.00  0.00    -0.298 A  
HETATM   16  C   UNL     1      -8.189  18.307  67.407  1.00  0.00    -0.237 A  
HETATM   17  C   UNL     1      -7.689  17.938  68.655  1.00  0.00    -0.293 A  
HETATM   18  N   UNL     1      -6.438  16.095  69.861  1.00  0.00    -0.157 NA 
HETATM   19  C   UNL     1      -7.503  16.154  66.491  1.00  0.00    -0.110 A  
HETATM   20  C   UNL     1      -7.044  15.714  67.762  1.00  0.00    -0.174 A  
HETATM   21  C   UNL     1      -7.093  16.656  68.790  1.00  0.00    -0.194 A  
HETATM   22  H   UNL     1      -6.248  16.571  70.742  1.00  0.00     0.000 HD 
ENDBRANCH  12  13
ENDBRANCH  11  12
BRANCH  11  23
HETATM   23  C   UNL     1      -7.666  11.057  66.225  1.00  0.00    -0.132 C  
HETATM   24  N   UNL     1      -8.802  10.386  65.815  1.00  0.00    -0.163 N  
HETATM   25  H   UNL     1      -9.719  10.809  65.959  1.00  0.00     0.000 HD 
HETATM   26  O   UNL     1      -6.530  10.626  66.003  1.00  0.00    -0.114 OA 
BRANCH  24  27
HETATM   27  C   UNL     1      -8.699   9.091  65.183  1.00  0.00    -0.189 C  
BRANCH  27  28
HETATM   28  N   UNL     1      -7.910   9.224  63.986  1.00  0.00    -0.119 N  
HETATM   29  O   UNL     1      -9.595  10.159  62.709  1.00  0.00    -0.302 OA 
HETATM   30  C   UNL     1      -8.447   9.760  62.837  1.00  0.00    -0.177 C  
HETATM   31  H   UNL     1      -6.939   8.915  63.988  1.00  0.00     0.000 HD 
ENDBRANCH  27  28
BRANCH  27  32
HETATM   32  C   UNL     1      -8.344   7.875  66.066  1.00  0.00    -0.128 C  
BRANCH  32  33
HETATM   33  C   UNL     1      -9.199   7.167  67.103  1.00  0.00    -0.153 A  
HETATM   34  C   UNL     1     -10.291   6.029  68.783  1.00  0.00    -0.214 A  
HETATM   35  H   UNL     1     -12.218   6.474  68.027  1.00  0.00     0.000 HD 
HETATM   36  C   UNL     1     -10.532   5.269  69.939  1.00  0.00    -0.351 A  
HETATM   37  C   UNL     1     -10.579   7.244  66.936  1.00  0.00    -0.305 A  
HETATM   38  C   UNL     1      -9.429   4.794  70.638  1.00  0.00    -0.238 A  
HETATM   39  N   UNL     1     -11.207   6.567  67.931  1.00  0.00    -0.248 NA 
HETATM   40  C   UNL     1      -8.140   5.070  70.185  1.00  0.00    -0.081 A  
HETATM   41  C   UNL     1      -7.917   5.847  69.027  1.00  0.00    -0.099 A  
HETATM   42  C   UNL     1      -9.011   6.356  68.295  1.00  0.00    -0.116 A  
ENDBRANCH  32  33
ENDBRANCH  27  32
ENDBRANCH  24  27
ENDBRANCH  11  23
ENDBRANCH   7  11
TORSDOF 8
ENDMDL
MODEL      342
REMARK 921   NORMALIZED FREE ENERGY PREDICTED BY IDOCK:   -4.84 KCAL/MOL
REMARK 922        TOTAL FREE ENERGY PREDICTED BY IDOCK:   -9.24 KCAL/MOL
REMARK 923 INTER-LIGAND FREE ENERGY PREDICTED BY IDOCK:   -7.84 KCAL/MOL
REMARK 924 INTRA-LIGAND FREE ENERGY PREDICTED BY IDOCK:   -1.40 KCAL/MOL
REMARK 927      BINDING AFFINITY PREDICTED BY RF-SCORE:    0.00 PKD
ROOT
HETATM    1  C   UNL     1     -12.325  11.862  69.747  1.00  0.00    -0.136 C  
HETATM    2  C   UNL     1     -12.567  10.640  70.654  1.00  0.00    -0.365 C  
HETATM    3  C   UNL     1     -11.224   9.650  70.797  1.00  0.00    -0.336 C  
HETATM    4  N   UNL     1     -13.682   9.854  70.051  1.00  0.00     0.144 NA 
HETATM    5  C   UNL     1     -13.113  11.230  71.984  1.00  0.00    -0.431 C  
HETATM    6  H2  UNL     1     -13.510   9.601  69.077  1.00  0.00     0.000 HD 
HETATM    7  N   UNL     1     -11.064   8.637  69.844  1.00  0.00    -0.410 N  
HETATM    8  H1  UNL     1     -13.841   9.045  70.651  1.00  0.00     0.000 HD 
HETATM    9  O   UNL     1     -10.387   9.829  71.680  1.00  0.00     0.074 OA 
HETATM   10  H   UNL     1     -11.893   8.511  69.263  1.00  0.00     0.000 HD 
ENDROOT
BRANCH   7  11
HETATM   11  C   UNL     1      -9.903   7.652  69.464  1.00  0.00    -0.178 C  
BRANCH  11  12
HETATM   12  C   UNL     1      -9.041   6.812  70.517  1.00  0.00    -0.156 C  
BRANCH  12  13
HETATM   13  C   UNL     1      -9.433   5.294  70.856  1.00  0.00    -0.216 A  
HETATM   14  C   UNL     1      -9.817   4.749  72.067  1.00  0.00    -0.176 A  
HETATM   15  C   UNL     1      -9.286   2.684  67.944  1.00  0.00    -0.244 A  
HETATM   16  C   UNL     1      -9.337   1.542  68.738  1.00  0.00    -0.217 A  
HETATM   17  C   UNL     1      -9.521   1.663  70.115  1.00  0.00    -0.146 A  
HETATM   18  N   UNL     1      -9.897   3.361  71.956  1.00  0.00    -0.163 NA 
HETATM   19  C   UNL     1      -9.339   3.971  68.521  1.00  0.00    -0.221 A  
HETATM   20  C   UNL     1      -9.458   4.138  69.926  1.00  0.00    -0.265 A  
HETATM   21  C   UNL     1      -9.614   2.967  70.671  1.00  0.00    -0.131 A  
HETATM   22  H   UNL     1     -10.132   2.729  72.721  1.00  0.00     0.000 HD 
ENDBRANCH  12  13
ENDBRANCH  11  12
BRANCH  11  23
HETATM   23  C   UNL     1      -9.062   8.349  68.361  1.00  0.00    -0.135 C  
HETATM   24  N   UNL     1      -9.665   8.546  67.134  1.00  0.00    -0.175 N  
HETATM   25  H   UNL     1     -10.662   8.364  67.025  1.00  0.00     0.000 HD 
HETATM   26  O   UNL     1      -7.877   8.629  68.566  1.00  0.00    -0.104 OA 
BRANCH  24  27
HETATM   27  C   UNL     1      -8.890   9.009  66.005  1.00  0.00    -0.175 C  
BRANCH  27  28
HETATM   28  N   UNL     1      -8.003   7.952  65.592  1.00  0.00    -0.109 N  
HETATM   29  O   UNL     1      -9.489   6.233  66.010  1.00  0.00    -0.109 OA 
HETATM   30  C   UNL     1      -8.399   6.635  65.632  1.00  0.00    -0.144 C  
HETATM   31  H   UNL     1      -7.066   8.184  65.263  1.00  0.00     0.000 HD 
ENDBRANCH  27  28
BRANCH  27  32
HETATM   32  C   UNL     1      -9.632   9.723  64.856  1.00  0.00    -0.316 C  
BRANCH  32  33
HETATM   33  C   UNL     1     -10.047  11.182  64.750  1.00  0.00    -0.351 A  
HETATM   34  C   UNL     1     -10.566  13.426  64.799  1.00  0.00    -0.405 A  
HETATM   35  H   UNL     1     -11.599  13.375  62.952  1.00  0.00     0.000 HD 
HETATM   36  C   UNL     1     -10.648  14.765  65.213  1.00  0.00    -0.414 A  
HETATM   37  C   UNL     1     -10.773  11.546  63.618  1.00  0.00    -0.424 A  
HETATM   38  C   UNL     1     -10.080  15.097  66.437  1.00  0.00    -0.286 A  
HETATM   39  N   UNL     1     -11.072  12.870  63.664  1.00  0.00    -0.388 NA 
HETATM   40  C   UNL     1      -9.460  14.116  67.211  1.00  0.00    -0.229 A  
HETATM   41  C   UNL     1      -9.375  12.777  66.772  1.00  0.00    -0.241 A  
HETATM   42  C   UNL     1      -9.932  12.402  65.531  1.00  0.00    -0.260 A  
ENDBRANCH  32  33
ENDBRANCH  27  32
ENDBRANCH  24  27
ENDBRANCH  11  23
ENDBRANCH   7  11
TORSDOF 8
ENDMDL
MODEL      343
REMARK 921   NORMALIZED FREE ENERGY PREDICTED BY IDOCK:   -4.83 KCAL/MOL
REMARK 922        TOTAL FREE ENERGY PREDICTED BY IDOCK:   -9.24 KCAL/MOL
REMARK 923 INTER-LIGAND FREE ENERGY PREDICTED BY IDOCK:   -8.03 KCAL/MOL
REMARK 924 INTRA-LIGAND FREE ENERGY PREDICTED BY IDOCK:   -1.21 KCAL/MOL
REMARK 927      BINDING AFFINITY PREDICTED BY RF-SCORE:    0.00 PKD
ROOT
HETATM    1  C   UNL     1     -10.293   5.283  74.454  1.00  0.00    -0.302 C  
HETATM    2  C   UNL     1     -10.894   4.854  73.101  1.00  0.00    -0.282 C  
HETATM    3  C   UNL     1      -9.992   5.367  71.787  1.00  0.00    -0.183 C  
HETATM    4  N   UNL     1     -12.257   5.455  73.012  1.00  0.00    -0.442 NA 
HETATM    5  C   UNL     1     -11.096   3.318  73.221  1.00  0.00    -0.230 C  
HETATM    6  H2  UNL     1     -12.257   6.466  73.146  1.00  0.00     0.000 HD 
HETATM    7  N   UNL     1     -10.274   6.634  71.264  1.00  0.00    -0.199 N  
HETATM    8  H1  UNL     1     -12.654   5.171  72.116  1.00  0.00     0.000 HD 
HETATM    9  O   UNL     1      -9.086   4.676  71.323  1.00  0.00    -0.126 OA 
HETATM   10  H   UNL     1     -11.131   7.034  71.645  1.00  0.00     0.000 HD 
ENDROOT
BRANCH   7  11
HETATM   11  C   UNL     1      -9.575   7.581  70.226  1.00  0.00    -0.165 C  
BRANCH  11  12
HETATM   12  C   UNL     1      -7.999   7.843  70.150  1.00  0.00    -0.107 C  
BRANCH  12  13
HETATM   13  C   UNL     1      -7.007   6.675  69.677  1.00  0.00    -0.067 A  
HETATM   14  C   UNL     1      -5.982   6.073  70.382  1.00  0.00    -0.029 A  
HETATM   15  C   UNL     1      -7.431   5.288  66.043  1.00  0.00    -0.082 A  
HETATM   16  C   UNL     1      -6.211   4.620  65.974  1.00  0.00    -0.032 A  
HETATM   17  C   UNL     1      -5.390   4.559  67.099  1.00  0.00    -0.012 A  
HETATM   18  N   UNL     1      -5.260   5.228  69.539  1.00  0.00    -0.003 NA 
HETATM   19  C   UNL     1      -7.816   5.973  67.215  1.00  0.00    -0.102 A  
HETATM   20  C   UNL     1      -6.977   5.992  68.360  1.00  0.00    -0.076 A  
HETATM   21  C   UNL     1      -5.816   5.221  68.282  1.00  0.00    -0.017 A  
HETATM   22  H   UNL     1      -4.438   4.693  69.815  1.00  0.00     0.000 HD 
ENDBRANCH  12  13
ENDBRANCH  11  12
BRANCH  11  23
HETATM   23  C   UNL     1     -10.442   8.865  70.132  1.00  0.00    -0.214 C  
HETATM   24  N   UNL     1     -11.702   8.822  70.694  1.00  0.00    -0.431 N  
HETATM   25  H   UNL     1     -11.975   8.022  71.265  1.00  0.00     0.000 HD 
HETATM   26  O   UNL     1     -10.035   9.845  69.499  1.00  0.00    -0.195 OA 
BRANCH  24  27
HETATM   27  C   UNL     1     -12.636   9.903  70.479  1.00  0.00    -0.085 C  
BRANCH  27  28
HETATM   28  N   UNL     1     -13.924   9.509  70.990  1.00  0.00    -0.386 N  
HETATM   29  O   UNL     1     -13.108   8.490  72.897  1.00  0.00    -0.193 OA 
HETATM   30  C   UNL     1     -14.038   8.826  72.179  1.00  0.00    -0.450 C  
HETATM   31  H   UNL     1     -14.765   9.738  70.461  1.00  0.00     0.000 HD 
ENDBRANCH  27  28
BRANCH  27  32
HETATM   32  C   UNL     1     -12.196  11.334  70.859  1.00  0.00    -0.460 C  
BRANCH  32  33
HETATM   33  C   UNL     1     -12.065  12.559  69.969  1.00  0.00    -0.337 A  
HETATM   34  C   UNL     1     -11.831  14.264  68.437  1.00  0.00    -0.338 A  
HETATM   35  H   UNL     1     -12.109  15.790  69.878  1.00  0.00     0.000 HD 
HETATM   36  C   UNL     1     -11.641  14.951  67.228  1.00  0.00    -0.337 A  
HETATM   37  C   UNL     1     -12.198  13.800  70.587  1.00  0.00    -0.363 A  
HETATM   38  C   UNL     1     -11.392  14.193  66.089  1.00  0.00    -0.337 A  
HETATM   39  N   UNL     1     -12.056  14.792  69.671  1.00  0.00    -0.311 NA 
HETATM   40  C   UNL     1     -11.331  12.803  66.172  1.00  0.00    -0.371 A  
HETATM   41  C   UNL     1     -11.537  12.129  67.395  1.00  0.00    -0.410 A  
HETATM   42  C   UNL     1     -11.802  12.862  68.572  1.00  0.00    -0.350 A  
ENDBRANCH  32  33
ENDBRANCH  27  32
ENDBRANCH  24  27
ENDBRANCH  11  23
ENDBRANCH   7  11
TORSDOF 8
ENDMDL
MODEL      344
REMARK 921   NORMALIZED FREE ENERGY PREDICTED BY IDOCK:   -4.82 KCAL/MOL
REMARK 922        TOTAL FREE ENERGY PREDICTED BY IDOCK:   -9.21 KCAL/MOL
REMARK 923 INTER-LIGAND FREE ENERGY PREDICTED BY IDOCK:   -7.32 KCAL/MOL
REMARK 924 INTRA-LIGAND FREE ENERGY PREDICTED BY IDOCK:   -1.89 KCAL/MOL
REMARK 927      BINDING AFFINITY PREDICTED BY RF-SCORE:    0.00 PKD
ROOT
HETATM    1  C   UNL     1      -8.703   5.550  71.363  1.00  0.00    -0.135 C  
HETATM    2  C   UNL     1      -9.788   6.598  71.677  1.00  0.00    -0.166 C  
HETATM    3  C   UNL     1     -10.700   7.024  70.340  1.00  0.00    -0.234 C  
HETATM    4  N   UNL     1      -9.094   7.813  72.194  1.00  0.00    -0.135 NA 
HETATM    5  C   UNL     1     -10.584   6.003  72.872  1.00  0.00    -0.262 C  
HETATM    6  H2  UNL     1      -8.375   8.161  71.560  1.00  0.00     0.000 HD 
HETATM    7  N   UNL     1     -10.226   8.074  69.543  1.00  0.00    -0.205 N  
HETATM    8  H1  UNL     1      -9.813   8.506  72.402  1.00  0.00     0.000 HD 
HETATM    9  O   UNL     1     -11.725   6.414  70.041  1.00  0.00    -0.429 OA 
HETATM   10  H   UNL     1      -9.454   8.579  69.978  1.00  0.00     0.000 HD 
ENDROOT
BRANCH   7  11
HETATM   11  C   UNL     1     -10.610   8.652  68.136  1.00  0.00    -0.133 C  
BRANCH  11  12
HETATM   12  C   UNL     1     -10.409   7.880  66.749  1.00  0.00    -0.357 C  
BRANCH  12  13
HETATM   13  C   UNL     1      -8.983   7.249  66.372  1.00  0.00    -0.184 A  
HETATM   14  C   UNL     1      -7.925   7.840  65.707  1.00  0.00    -0.114 A  
HETATM   15  C   UNL     1      -8.309   3.534  67.398  1.00  0.00    -0.094 A  
HETATM   16  C   UNL     1      -7.190   3.337  66.594  1.00  0.00    -0.066 A  
HETATM   17  C   UNL     1      -6.660   4.405  65.871  1.00  0.00    -0.044 A  
HETATM   18  N   UNL     1      -6.945   6.885  65.437  1.00  0.00    -0.058 NA 
HETATM   19  C   UNL     1      -8.966   4.782  67.433  1.00  0.00    -0.115 A  
HETATM   20  C   UNL     1      -8.498   5.877  66.658  1.00  0.00    -0.111 A  
HETATM   21  C   UNL     1      -7.312   5.665  65.953  1.00  0.00    -0.073 A  
HETATM   22  H   UNL     1      -6.080   7.066  64.929  1.00  0.00     0.000 HD 
ENDBRANCH  12  13
ENDBRANCH  11  12
BRANCH  11  23
HETATM   23  C   UNL     1     -10.147  10.133  68.114  1.00  0.00    -0.152 C  
HETATM   24  N   UNL     1      -9.897  10.702  66.881  1.00  0.00    -0.182 N  
HETATM   25  H   UNL     1     -10.148  10.197  66.031  1.00  0.00     0.000 HD 
HETATM   26  O   UNL     1      -9.935  10.734  69.172  1.00  0.00    -0.208 OA 
BRANCH  24  27
HETATM   27  C   UNL     1      -9.282  12.005  66.787  1.00  0.00    -0.201 C  
BRANCH  27  28
HETATM   28  N   UNL     1      -8.013  11.869  66.119  1.00  0.00    -0.351 N  
HETATM   29  O   UNL     1      -6.867  11.091  67.969  1.00  0.00    -0.066 OA 
HETATM   30  C   UNL     1      -6.902  11.411  66.791  1.00  0.00    -0.132 C  
HETATM   31  H   UNL     1      -7.936  12.116  65.133  1.00  0.00     0.000 HD 
ENDBRANCH  27  28
BRANCH  27  32
HETATM   32  C   UNL     1     -10.148  13.188  66.304  1.00  0.00    -0.285 C  
BRANCH  32  33
HETATM   33  C   UNL     1      -9.772  14.655  66.175  1.00  0.00    -0.344 A  
HETATM   34  C   UNL     1      -8.999  16.824  66.095  1.00  0.00    -0.260 A  
HETATM   35  H   UNL     1     -10.705  17.546  65.069  1.00  0.00     0.000 HD 
HETATM   36  C   UNL     1      -8.180  17.953  66.257  1.00  0.00    -0.246 A  
HETATM   37  C   UNL     1     -10.685  15.482  65.525  1.00  0.00    -0.381 A  
HETATM   38  C   UNL     1      -6.984  17.788  66.945  1.00  0.00    -0.212 A  
HETATM   39  N   UNL     1     -10.216  16.755  65.489  1.00  0.00    -0.607 NA 
HETATM   40  C   UNL     1      -6.635  16.537  67.452  1.00  0.00    -0.195 A  
HETATM   41  C   UNL     1      -7.465  15.410  67.269  1.00  0.00    -0.242 A  
HETATM   42  C   UNL     1      -8.683  15.535  66.567  1.00  0.00    -0.340 A  
ENDBRANCH  32  33
ENDBRANCH  27  32
ENDBRANCH  24  27
ENDBRANCH  11  23
ENDBRANCH   7  11
TORSDOF 8
ENDMDL
MODEL      345
REMARK 921   NORMALIZED FREE ENERGY PREDICTED BY IDOCK:   -4.80 KCAL/MOL
REMARK 922        TOTAL FREE ENERGY PREDICTED BY IDOCK:   -9.18 KCAL/MOL
REMARK 923 INTER-LIGAND FREE ENERGY PREDICTED BY IDOCK:   -7.79 KCAL/MOL
REMARK 924 INTRA-LIGAND FREE ENERGY PREDICTED BY IDOCK:   -1.39 KCAL/MOL
REMARK 927      BINDING AFFINITY PREDICTED BY RF-SCORE:    0.00 PKD
ROOT
HETATM    1  C   UNL     1      -9.147   6.277  72.751  1.00  0.00    -0.131 C  
HETATM    2  C   UNL     1     -10.610   6.603  72.391  1.00  0.00    -0.214 C  
HETATM    3  C   UNL     1     -10.752   7.622  71.070  1.00  0.00    -0.228 C  
HETATM    4  N   UNL     1     -11.221   7.267  73.579  1.00  0.00    -0.570 NA 
HETATM    5  C   UNL     1     -11.305   5.220  72.252  1.00  0.00    -0.135 C  
HETATM    6  H2  UNL     1     -10.696   8.083  73.894  1.00  0.00     0.000 HD 
HETATM    7  N   UNL     1     -10.734   9.000  71.313  1.00  0.00    -0.281 N  
HETATM    8  H1  UNL     1     -12.189   7.482  73.340  1.00  0.00     0.000 HD 
HETATM    9  O   UNL     1     -10.828   7.180  69.925  1.00  0.00    -0.243 OA 
HETATM   10  H   UNL     1     -10.811   9.225  72.305  1.00  0.00     0.000 HD 
ENDROOT
BRANCH   7  11
HETATM   11  C   UNL     1     -10.623  10.279  70.411  1.00  0.00    -0.147 C  
BRANCH  11  12
HETATM   12  C   UNL     1     -11.723  10.740  69.346  1.00  0.00    -0.378 C  
BRANCH  12  13
HETATM   13  C   UNL     1     -11.902  12.293  68.987  1.00  0.00    -0.358 A  
HETATM   14  C   UNL     1     -11.876  12.903  67.746  1.00  0.00    -0.339 A  
HETATM   15  C   UNL     1     -12.460  14.792  71.946  1.00  0.00    -0.410 A  
HETATM   16  C   UNL     1     -12.203  15.959  71.232  1.00  0.00    -0.473 A  
HETATM   17  C   UNL     1     -11.979  15.895  69.857  1.00  0.00    -0.283 A  
HETATM   18  N   UNL     1     -11.899  14.289  67.900  1.00  0.00    -0.408 NA 
HETATM   19  C   UNL     1     -12.420  13.531  71.312  1.00  0.00    -0.388 A  
HETATM   20  C   UNL     1     -12.128  13.418  69.927  1.00  0.00    -0.389 A  
HETATM   21  C   UNL     1     -11.984  14.620  69.231  1.00  0.00    -0.302 A  
HETATM   22  H   UNL     1     -11.857  14.961  67.135  1.00  0.00     0.000 HD 
ENDBRANCH  12  13
ENDBRANCH  11  12
BRANCH  11  23
HETATM   23  C   UNL     1      -9.163  10.336  69.886  1.00  0.00     0.022 C  
HETATM   24  N   UNL     1      -8.977  10.704  68.567  1.00  0.00    -0.148 N  
HETATM   25  H   UNL     1      -9.765  11.055  68.024  1.00  0.00     0.000 HD 
HETATM   26  O   UNL     1      -8.228   9.980  70.609  1.00  0.00    -0.126 OA 
BRANCH  24  27
HETATM   27  C   UNL     1      -7.674  10.593  67.954  1.00  0.00    -0.100 C  
BRANCH  27  28
HETATM   28  N   UNL     1      -7.793   9.799  66.758  1.00  0.00    -0.102 N  
HETATM   29  O   UNL     1      -7.675   7.756  67.832  1.00  0.00    -0.116 OA 
HETATM   30  C   UNL     1      -7.784   8.424  66.814  1.00  0.00    -0.091 C  
HETATM   31  H   UNL     1      -7.885  10.264  65.855  1.00  0.00     0.000 HD 
ENDBRANCH  27  28
BRANCH  27  32
HETATM   32  C   UNL     1      -6.828  11.875  67.803  1.00  0.00    -0.094 C  
BRANCH  32  33
HETATM   33  C   UNL     1      -7.278  13.326  67.852  1.00  0.00    -0.137 A  
HETATM   34  C   UNL     1      -7.727  15.585  67.932  1.00  0.00    -0.130 A  
HETATM   35  H   UNL     1      -9.826  15.314  67.891  1.00  0.00     0.000 HD 
HETATM   36  C   UNL     1      -7.551  16.977  67.981  1.00  0.00    -0.183 A  
HETATM   37  C   UNL     1      -8.651  13.558  67.837  1.00  0.00    -0.182 A  
HETATM   38  C   UNL     1      -6.250  17.459  68.056  1.00  0.00    -0.149 A  
HETATM   39  N   UNL     1      -8.898  14.892  67.887  1.00  0.00    -0.162 NA 
HETATM   40  C   UNL     1      -5.175  16.573  68.086  1.00  0.00    -0.110 A  
HETATM   41  C   UNL     1      -5.370  15.176  68.023  1.00  0.00    -0.131 A  
HETATM   42  C   UNL     1      -6.676  14.647  67.937  1.00  0.00    -0.175 A  
ENDBRANCH  32  33
ENDBRANCH  27  32
ENDBRANCH  24  27
ENDBRANCH  11  23
ENDBRANCH   7  11
TORSDOF 8
ENDMDL
MODEL      346
REMARK 921   NORMALIZED FREE ENERGY PREDICTED BY IDOCK:   -4.79 KCAL/MOL
REMARK 922        TOTAL FREE ENERGY PREDICTED BY IDOCK:   -9.18 KCAL/MOL
REMARK 923 INTER-LIGAND FREE ENERGY PREDICTED BY IDOCK:   -7.29 KCAL/MOL
REMARK 924 INTRA-LIGAND FREE ENERGY PREDICTED BY IDOCK:   -1.89 KCAL/MOL
REMARK 927      BINDING AFFINITY PREDICTED BY RF-SCORE:    0.00 PKD
ROOT
HETATM    1  C   UNL     1      -8.686   5.552  71.676  1.00  0.00    -0.137 C  
HETATM    2  C   UNL     1      -9.671   6.720  71.877  1.00  0.00    -0.155 C  
HETATM    3  C   UNL     1     -10.685   6.960  70.567  1.00  0.00    -0.235 C  
HETATM    4  N   UNL     1      -8.858   7.953  72.088  1.00  0.00    -0.133 NA 
HETATM    5  C   UNL     1     -10.376   6.421  73.229  1.00  0.00    -0.251 C  
HETATM    6  H2  UNL     1      -8.187   8.122  71.339  1.00  0.00     0.000 HD 
HETATM    7  N   UNL     1     -10.232   7.804  69.546  1.00  0.00    -0.202 N  
HETATM    8  H1  UNL     1      -9.510   8.726  72.222  1.00  0.00     0.000 HD 
HETATM    9  O   UNL     1     -11.770   6.385  70.482  1.00  0.00    -0.386 OA 
HETATM   10  H   UNL     1      -9.393   8.320  69.807  1.00  0.00     0.000 HD 
ENDROOT
BRANCH   7  11
HETATM   11  C   UNL     1     -10.721   8.138  68.093  1.00  0.00    -0.029 C  
BRANCH  11  12
HETATM   12  C   UNL     1     -10.770   7.090  66.885  1.00  0.00    -0.376 C  
BRANCH  12  13
HETATM   13  C   UNL     1      -9.607   6.000  66.711  1.00  0.00    -0.171 A  
HETATM   14  C   UNL     1      -9.440   4.800  67.376  1.00  0.00    -0.146 A  
HETATM   15  C   UNL     1      -6.789   6.748  64.101  1.00  0.00    -0.050 A  
HETATM   16  C   UNL     1      -5.889   5.783  64.543  1.00  0.00    -0.024 A  
HETATM   17  C   UNL     1      -6.264   4.896  65.552  1.00  0.00    -0.034 A  
HETATM   18  N   UNL     1      -8.204   4.244  67.044  1.00  0.00    -0.101 NA 
HETATM   19  C   UNL     1      -8.052   6.896  64.714  1.00  0.00    -0.095 A  
HETATM   20  C   UNL     1      -8.445   6.057  65.790  1.00  0.00    -0.146 A  
HETATM   21  C   UNL     1      -7.556   5.035  66.127  1.00  0.00    -0.087 A  
HETATM   22  H   UNL     1      -7.835   3.374  67.427  1.00  0.00     0.000 HD 
ENDBRANCH  12  13
ENDBRANCH  11  12
BRANCH  11  23
HETATM   23  C   UNL     1     -10.112   9.516  67.717  1.00  0.00    -0.198 C  
HETATM   24  N   UNL     1      -9.995   9.812  66.373  1.00  0.00    -0.233 N  
HETATM   25  H   UNL     1     -10.426   9.201  65.681  1.00  0.00     0.000 HD 
HETATM   26  O   UNL     1      -9.677  10.264  68.598  1.00  0.00    -0.155 OA 
BRANCH  24  27
HETATM   27  C   UNL     1      -9.266  10.983  65.944  1.00  0.00    -0.199 C  
BRANCH  27  28
HETATM   28  N   UNL     1      -8.150  10.561  65.137  1.00  0.00    -0.239 N  
HETATM   29  O   UNL     1      -6.760  10.068  66.916  1.00  0.00    -0.076 OA 
HETATM   30  C   UNL     1      -6.978  10.132  65.715  1.00  0.00    -0.123 C  
HETATM   31  H   UNL     1      -8.230  10.581  64.121  1.00  0.00     0.000 HD 
ENDBRANCH  27  28
BRANCH  27  32
HETATM   32  C   UNL     1     -10.068  12.174  65.374  1.00  0.00    -0.282 C  
BRANCH  32  33
HETATM   33  C   UNL     1     -10.459  13.474  66.057  1.00  0.00    -0.299 A  
HETATM   34  C   UNL     1     -11.095  15.314  67.290  1.00  0.00    -0.325 A  
HETATM   35  H   UNL     1     -10.794  16.668  65.691  1.00  0.00     0.000 HD 
HETATM   36  C   UNL     1     -11.527  16.117  68.357  1.00  0.00    -0.298 A  
HETATM   37  C   UNL     1     -10.383  14.633  65.290  1.00  0.00    -0.399 A  
HETATM   38  C   UNL     1     -11.845  15.484  69.553  1.00  0.00    -0.390 A  
HETATM   39  N   UNL     1     -10.763  15.706  66.030  1.00  0.00    -0.324 NA 
HETATM   40  C   UNL     1     -11.736  14.098  69.662  1.00  0.00    -0.372 A  
HETATM   41  C   UNL     1     -11.287  13.308  68.583  1.00  0.00    -0.324 A  
HETATM   42  C   UNL     1     -10.946  13.914  67.354  1.00  0.00    -0.299 A  
ENDBRANCH  32  33
ENDBRANCH  27  32
ENDBRANCH  24  27
ENDBRANCH  11  23
ENDBRANCH   7  11
TORSDOF 8
ENDMDL
MODEL      347
REMARK 921   NORMALIZED FREE ENERGY PREDICTED BY IDOCK:   -4.79 KCAL/MOL
REMARK 922        TOTAL FREE ENERGY PREDICTED BY IDOCK:   -9.17 KCAL/MOL
REMARK 923 INTER-LIGAND FREE ENERGY PREDICTED BY IDOCK:   -6.76 KCAL/MOL
REMARK 924 INTRA-LIGAND FREE ENERGY PREDICTED BY IDOCK:   -2.41 KCAL/MOL
REMARK 927      BINDING AFFINITY PREDICTED BY RF-SCORE:    0.00 PKD
ROOT
HETATM    1  C   UNL     1      -9.068   4.477  74.182  1.00  0.00    -0.108 C  
HETATM    2  C   UNL     1     -10.304   3.961  73.420  1.00  0.00    -0.162 C  
HETATM    3  C   UNL     1     -10.026   3.740  71.784  1.00  0.00    -0.157 C  
HETATM    4  N   UNL     1     -11.384   4.975  73.591  1.00  0.00    -0.424 NA 
HETATM    5  C   UNL     1     -10.758   2.698  74.203  1.00  0.00    -0.239 C  
HETATM    6  H2  UNL     1     -11.101   5.912  73.304  1.00  0.00     0.000 HD 
HETATM    7  N   UNL     1     -10.234   4.836  70.940  1.00  0.00    -0.209 N  
HETATM    8  H1  UNL     1     -12.203   4.633  73.088  1.00  0.00     0.000 HD 
HETATM    9  O   UNL     1      -9.614   2.667  71.343  1.00  0.00    -0.136 OA 
HETATM   10  H   UNL     1     -10.706   5.609  71.409  1.00  0.00     0.000 HD 
ENDROOT
BRANCH   7  11
HETATM   11  C   UNL     1      -9.908   5.150  69.437  1.00  0.00    -0.199 C  
BRANCH  11  12
HETATM   12  C   UNL     1      -8.489   4.901  68.742  1.00  0.00    -0.089 C  
BRANCH  12  13
HETATM   13  C   UNL     1      -7.970   5.884  67.586  1.00  0.00    -0.102 A  
HETATM   14  C   UNL     1      -7.956   5.679  66.219  1.00  0.00    -0.102 A  
HETATM   15  C   UNL     1      -6.498   9.345  68.665  1.00  0.00    -0.052 A  
HETATM   16  C   UNL     1      -5.889   9.655  67.453  1.00  0.00    -0.044 A  
HETATM   17  C   UNL     1      -6.068   8.817  66.353  1.00  0.00    -0.060 A  
HETATM   18  N   UNL     1      -7.262   6.715  65.594  1.00  0.00    -0.068 NA 
HETATM   19  C   UNL     1      -7.233   8.151  68.823  1.00  0.00    -0.083 A  
HETATM   20  C   UNL     1      -7.383   7.237  67.746  1.00  0.00    -0.093 A  
HETATM   21  C   UNL     1      -6.847   7.640  66.521  1.00  0.00    -0.062 A  
HETATM   22  H   UNL     1      -7.088   6.777  64.591  1.00  0.00     0.000 HD 
ENDBRANCH  12  13
ENDBRANCH  11  12
BRANCH  11  23
HETATM   23  C   UNL     1     -10.544   6.529  69.115  1.00  0.00    -0.243 C  
HETATM   24  N   UNL     1     -10.481   7.500  70.096  1.00  0.00    -0.217 N  
HETATM   25  H   UNL     1      -9.914   7.343  70.928  1.00  0.00     0.000 HD 
HETATM   26  O   UNL     1     -11.151   6.702  68.054  1.00  0.00    -0.262 OA 
BRANCH  24  27
HETATM   27  C   UNL     1     -11.215   8.736  69.948  1.00  0.00    -0.051 C  
BRANCH  27  28
HETATM   28  N   UNL     1     -12.409   8.662  70.750  1.00  0.00    -0.489 N  
HETATM   29  O   UNL     1     -11.319   8.206  72.736  1.00  0.00    -0.397 OA 
HETATM   30  C   UNL     1     -12.344   8.400  72.100  1.00  0.00    -0.370 C  
HETATM   31  H   UNL     1     -13.318   8.806  70.310  1.00  0.00     0.000 HD 
ENDBRANCH  27  28
BRANCH  27  32
HETATM   32  C   UNL     1     -10.436  10.064  70.062  1.00  0.00    -0.337 C  
BRANCH  32  33
HETATM   33  C   UNL     1     -10.650  11.363  69.301  1.00  0.00    -0.148 A  
HETATM   34  C   UNL     1     -10.743  13.316  68.083  1.00  0.00    -0.249 A  
HETATM   35  H   UNL     1     -12.783  13.665  68.529  1.00  0.00     0.000 HD 
HETATM   36  C   UNL     1     -10.371  14.393  67.263  1.00  0.00    -0.260 A  
HETATM   37  C   UNL     1     -11.924  11.920  69.358  1.00  0.00    -0.289 A  
HETATM   38  C   UNL     1      -9.049  14.453  66.837  1.00  0.00    -0.269 A  
HETATM   39  N   UNL     1     -11.961  13.070  68.638  1.00  0.00    -0.308 NA 
HETATM   40  C   UNL     1      -8.143  13.469  67.229  1.00  0.00    -0.141 A  
HETATM   41  C   UNL     1      -8.537  12.386  68.044  1.00  0.00    -0.180 A  
HETATM   42  C   UNL     1      -9.873  12.285  68.489  1.00  0.00    -0.157 A  
ENDBRANCH  32  33
ENDBRANCH  27  32
ENDBRANCH  24  27
ENDBRANCH  11  23
ENDBRANCH   7  11
TORSDOF 8
ENDMDL
MODEL      348
REMARK 921   NORMALIZED FREE ENERGY PREDICTED BY IDOCK:   -4.77 KCAL/MOL
REMARK 922        TOTAL FREE ENERGY PREDICTED BY IDOCK:   -9.14 KCAL/MOL
REMARK 923 INTER-LIGAND FREE ENERGY PREDICTED BY IDOCK:   -6.97 KCAL/MOL
REMARK 924 INTRA-LIGAND FREE ENERGY PREDICTED BY IDOCK:   -2.18 KCAL/MOL
REMARK 927      BINDING AFFINITY PREDICTED BY RF-SCORE:    0.00 PKD
ROOT
HETATM    1  C   UNL     1      -7.353   7.529  74.431  1.00  0.00    -0.150 C  
HETATM    2  C   UNL     1      -8.113   6.346  73.802  1.00  0.00    -0.104 C  
HETATM    3  C   UNL     1      -7.989   6.295  72.133  1.00  0.00    -0.108 C  
HETATM    4  N   UNL     1      -9.550   6.495  74.173  1.00  0.00    -0.209 NA 
HETATM    5  C   UNL     1      -7.592   5.090  74.554  1.00  0.00    -0.089 C  
HETATM    6  H2  UNL     1      -9.938   7.402  73.912  1.00  0.00     0.000 HD 
HETATM    7  N   UNL     1      -8.936   7.014  71.393  1.00  0.00    -0.140 N  
HETATM    8  H1  UNL     1     -10.053   5.711  73.756  1.00  0.00     0.000 HD 
HETATM    9  O   UNL     1      -7.078   5.685  71.576  1.00  0.00    -0.068 OA 
HETATM   10  H   UNL     1      -9.709   7.351  71.967  1.00  0.00     0.000 HD 
ENDROOT
BRANCH   7  11
HETATM   11  C   UNL     1      -9.081   7.420  69.884  1.00  0.00    -0.141 C  
BRANCH  11  12
HETATM   12  C   UNL     1      -7.984   7.135  68.756  1.00  0.00    -0.123 C  
BRANCH  12  13
HETATM   13  C   UNL     1      -8.383   7.206  67.204  1.00  0.00    -0.118 A  
HETATM   14  C   UNL     1      -9.013   6.252  66.428  1.00  0.00    -0.152 A  
HETATM   15  C   UNL     1      -7.468  10.464  65.239  1.00  0.00    -0.113 A  
HETATM   16  C   UNL     1      -7.655   9.948  63.960  1.00  0.00    -0.138 A  
HETATM   17  C   UNL     1      -8.155   8.656  63.800  1.00  0.00    -0.163 A  
HETATM   18  N   UNL     1      -9.011   6.652  65.092  1.00  0.00    -0.344 NA 
HETATM   19  C   UNL     1      -7.703   9.671  66.382  1.00  0.00    -0.101 A  
HETATM   20  C   UNL     1      -8.148   8.327  66.260  1.00  0.00    -0.109 A  
HETATM   21  C   UNL     1      -8.425   7.888  64.965  1.00  0.00    -0.055 A  
HETATM   22  H   UNL     1      -9.390   6.105  64.319  1.00  0.00     0.000 HD 
ENDBRANCH  12  13
ENDBRANCH  11  12
BRANCH  11  23
HETATM   23  C   UNL     1      -9.666   8.858  69.858  1.00  0.00    -0.177 C  
HETATM   24  N   UNL     1     -10.949   9.011  69.370  1.00  0.00    -0.408 N  
HETATM   25  H   UNL     1     -11.519   8.187  69.177  1.00  0.00     0.000 HD 
HETATM   26  O   UNL     1      -8.965   9.821  70.182  1.00  0.00    -0.226 OA 
BRANCH  24  27
HETATM   27  C   UNL     1     -11.489  10.330  69.134  1.00  0.00    -0.147 C  
BRANCH  27  28
HETATM   28  N   UNL     1     -11.480  11.061  70.374  1.00  0.00    -0.439 N  
HETATM   29  O   UNL     1     -13.091   9.767  71.409  1.00  0.00    -0.357 OA 
HETATM   30  C   UNL     1     -12.300  10.698  71.419  1.00  0.00    -0.350 C  
HETATM   31  H   UNL     1     -10.856  11.860  70.481  1.00  0.00     0.000 HD 
ENDBRANCH  27  28
BRANCH  27  32
HETATM   32  C   UNL     1     -10.976  11.119  67.910  1.00  0.00    -0.307 C  
BRANCH  32  33
HETATM   33  C   UNL     1     -10.783  12.618  67.755  1.00  0.00    -0.239 A  
HETATM   34  C   UNL     1     -10.255  14.851  67.542  1.00  0.00    -0.233 A  
HETATM   35  H   UNL     1     -12.271  15.454  67.317  1.00  0.00     0.000 HD 
HETATM   36  C   UNL     1      -9.517  16.043  67.457  1.00  0.00    -0.223 A  
HETATM   37  C   UNL     1     -11.933  13.383  67.575  1.00  0.00    -0.339 A  
HETATM   38  C   UNL     1      -8.139  15.960  67.612  1.00  0.00    -0.160 A  
HETATM   39  N   UNL     1     -11.604  14.695  67.454  1.00  0.00    -0.378 NA 
HETATM   40  C   UNL     1      -7.533  14.727  67.848  1.00  0.00    -0.156 A  
HETATM   41  C   UNL     1      -8.289  13.537  67.918  1.00  0.00    -0.175 A  
HETATM   42  C   UNL     1      -9.691  13.578  67.757  1.00  0.00    -0.226 A  
ENDBRANCH  32  33
ENDBRANCH  27  32
ENDBRANCH  24  27
ENDBRANCH  11  23
ENDBRANCH   7  11
TORSDOF 8
ENDMDL
MODEL      349
REMARK 921   NORMALIZED FREE ENERGY PREDICTED BY IDOCK:   -4.77 KCAL/MOL
REMARK 922        TOTAL FREE ENERGY PREDICTED BY IDOCK:   -9.14 KCAL/MOL
REMARK 923 INTER-LIGAND FREE ENERGY PREDICTED BY IDOCK:   -7.09 KCAL/MOL
REMARK 924 INTRA-LIGAND FREE ENERGY PREDICTED BY IDOCK:   -2.05 KCAL/MOL
REMARK 927      BINDING AFFINITY PREDICTED BY RF-SCORE:    0.00 PKD
ROOT
HETATM    1  C   UNL     1      -7.707  13.909  68.228  1.00  0.00    -0.136 C  
HETATM    2  C   UNL     1      -6.539  13.084  68.805  1.00  0.00    -0.096 C  
HETATM    3  C   UNL     1      -6.872  11.446  68.898  1.00  0.00    -0.089 C  
HETATM    4  N   UNL     1      -6.270  13.599  70.179  1.00  0.00    -0.291 NA 
HETATM    5  C   UNL     1      -5.309  13.473  67.939  1.00  0.00    -0.095 C  
HETATM    6  H2  UNL     1      -7.097  13.593  70.777  1.00  0.00     0.000 HD 
HETATM    7  N   UNL     1      -7.491  10.979  70.063  1.00  0.00    -0.249 N  
HETATM    8  H1  UNL     1      -5.497  13.053  70.560  1.00  0.00     0.000 HD 
HETATM    9  O   UNL     1      -6.621  10.687  67.963  1.00  0.00    -0.062 OA 
HETATM   10  H   UNL     1      -7.511  11.678  70.805  1.00  0.00     0.000 HD 
ENDROOT
BRANCH   7  11
HETATM   11  C   UNL     1      -8.162   9.625  70.490  1.00  0.00    -0.098 C  
BRANCH  11  12
HETATM   12  C   UNL     1      -7.445   8.197  70.434  1.00  0.00    -0.067 C  
BRANCH  12  13
HETATM   13  C   UNL     1      -7.881   7.032  71.447  1.00  0.00    -0.095 A  
HETATM   14  C   UNL     1      -8.989   6.973  72.272  1.00  0.00    -0.133 A  
HETATM   15  C   UNL     1      -5.555   3.899  71.727  1.00  0.00    -0.008 A  
HETATM   16  C   UNL     1      -6.101   3.387  72.901  1.00  0.00    -0.009 A  
HETATM   17  C   UNL     1      -7.223   3.993  73.464  1.00  0.00    -0.069 A  
HETATM   18  N   UNL     1      -8.894   5.864  73.112  1.00  0.00    -0.122 NA 
HETATM   19  C   UNL     1      -6.072   5.072  71.138  1.00  0.00    -0.022 A  
HETATM   20  C   UNL     1      -7.172   5.758  71.719  1.00  0.00    -0.091 A  
HETATM   21  C   UNL     1      -7.754   5.149  72.832  1.00  0.00    -0.098 A  
HETATM   22  H   UNL     1      -9.573   5.619  73.832  1.00  0.00     0.000 HD 
ENDBRANCH  12  13
ENDBRANCH  11  12
BRANCH  11  23
HETATM   23  C   UNL     1      -9.606   9.638  69.921  1.00  0.00    -0.230 C  
HETATM   24  N   UNL     1     -10.472  10.595  70.411  1.00  0.00    -0.323 N  
HETATM   25  H   UNL     1     -10.117  11.339  71.012  1.00  0.00     0.000 HD 
HETATM   26  O   UNL     1      -9.970   8.764  69.128  1.00  0.00    -0.181 OA 
BRANCH  24  27
HETATM   27  C   UNL     1     -11.877  10.550  70.078  1.00  0.00    -0.308 C  
BRANCH  27  28
HETATM   28  N   UNL     1     -12.643  10.790  71.274  1.00  0.00    -0.403 N  
HETATM   29  O   UNL     1     -12.390   8.659  72.133  1.00  0.00    -0.342 OA 
HETATM   30  C   UNL     1     -12.827   9.798  72.210  1.00  0.00    -0.295 C  
HETATM   31  H   UNL     1     -13.055  11.709  71.430  1.00  0.00     0.000 HD 
ENDBRANCH  27  28
BRANCH  27  32
HETATM   32  C   UNL     1     -12.357  11.325  68.832  1.00  0.00     0.037 C  
BRANCH  32  33
HETATM   33  C   UNL     1     -11.907  12.685  68.323  1.00  0.00    -0.354 A  
HETATM   34  C   UNL     1     -11.198  14.642  67.336  1.00  0.00    -0.342 A  
HETATM   35  H   UNL     1     -11.351  15.766  69.123  1.00  0.00     0.000 HD 
HETATM   36  C   UNL     1     -10.755  15.565  66.375  1.00  0.00    -0.303 A  
HETATM   37  C   UNL     1     -11.879  13.723  69.250  1.00  0.00    -0.344 A  
HETATM   38  C   UNL     1     -10.524  15.094  65.088  1.00  0.00    -0.437 A  
HETATM   39  N   UNL     1     -11.458  14.868  68.653  1.00  0.00    -0.291 NA 
HETATM   40  C   UNL     1     -10.727  13.747  64.788  1.00  0.00    -0.429 A  
HETATM   41  C   UNL     1     -11.186  12.837  65.764  1.00  0.00    -0.341 A  
HETATM   42  C   UNL     1     -11.441  13.278  67.080  1.00  0.00    -0.380 A  
ENDBRANCH  32  33
ENDBRANCH  27  32
ENDBRANCH  24  27
ENDBRANCH  11  23
ENDBRANCH   7  11
TORSDOF 8
ENDMDL
MODEL      350
REMARK 921   NORMALIZED FREE ENERGY PREDICTED BY IDOCK:   -4.75 KCAL/MOL
REMARK 922        TOTAL FREE ENERGY PREDICTED BY IDOCK:   -9.12 KCAL/MOL
REMARK 923 INTER-LIGAND FREE ENERGY PREDICTED BY IDOCK:   -7.12 KCAL/MOL
REMARK 924 INTRA-LIGAND FREE ENERGY PREDICTED BY IDOCK:   -2.00 KCAL/MOL
REMARK 927      BINDING AFFINITY PREDICTED BY RF-SCORE:    0.00 PKD
ROOT
HETATM    1  C   UNL     1      -6.821   6.933  64.907  1.00  0.00    -0.050 C  
HETATM    2  C   UNL     1      -7.046   8.453  64.795  1.00  0.00    -0.080 C  
HETATM    3  C   UNL     1      -7.966   9.076  66.048  1.00  0.00    -0.103 C  
HETATM    4  N   UNL     1      -7.756   8.702  63.507  1.00  0.00    -0.128 NA 
HETATM    5  C   UNL     1      -5.623   9.058  64.639  1.00  0.00    -0.062 C  
HETATM    6  H2  UNL     1      -8.618   8.163  63.416  1.00  0.00     0.000 HD 
HETATM    7  N   UNL     1      -9.356   9.079  65.889  1.00  0.00    -0.229 N  
HETATM    8  H1  UNL     1      -7.905   9.709  63.434  1.00  0.00     0.000 HD 
HETATM    9  O   UNL     1      -7.444   9.480  67.087  1.00  0.00    -0.090 OA 
HETATM   10  H   UNL     1      -9.643   8.854  64.937  1.00  0.00     0.000 HD 
ENDROOT
BRANCH   7  11
HETATM   11  C   UNL     1     -10.576   9.348  66.840  1.00  0.00    -0.167 C  
BRANCH  11  12
HETATM   12  C   UNL     1     -10.884  10.748  67.550  1.00  0.00    -0.342 C  
BRANCH  12  13
HETATM   13  C   UNL     1     -11.020  12.086  66.676  1.00  0.00    -0.330 A  
HETATM   14  C   UNL     1     -11.307  12.216  65.331  1.00  0.00    -0.338 A  
HETATM   15  C   UNL     1     -10.448  15.506  68.489  1.00  0.00    -0.238 A  
HETATM   16  C   UNL     1     -10.309  16.284  67.343  1.00  0.00    -0.285 A  
HETATM   17  C   UNL     1     -10.509  15.710  66.088  1.00  0.00    -0.327 A  
HETATM   18  N   UNL     1     -11.158  13.547  64.941  1.00  0.00    -0.330 NA 
HETATM   19  C   UNL     1     -10.712  14.123  68.399  1.00  0.00    -0.264 A  
HETATM   20  C   UNL     1     -10.855  13.487  67.137  1.00  0.00    -0.291 A  
HETATM   21  C   UNL     1     -10.815  14.324  66.021  1.00  0.00    -0.303 A  
HETATM   22  H   UNL     1     -11.284  13.893  63.991  1.00  0.00     0.000 HD 
ENDBRANCH  12  13
ENDBRANCH  11  12
BRANCH  11  23
HETATM   23  C   UNL     1     -10.700   8.116  67.775  1.00  0.00    -0.096 C  
HETATM   24  N   UNL     1     -10.282   8.269  69.083  1.00  0.00    -0.214 N  
HETATM   25  H   UNL     1     -10.041   9.196  69.433  1.00  0.00     0.000 HD 
HETATM   26  O   UNL     1     -11.078   7.030  67.326  1.00  0.00    -0.318 OA 
BRANCH  24  27
HETATM   27  C   UNL     1     -10.185   7.123  69.958  1.00  0.00    -0.196 C  
BRANCH  27  28
HETATM   28  N   UNL     1     -11.478   6.492  70.036  1.00  0.00    -0.456 N  
HETATM   29  O   UNL     1     -12.354   7.963  71.588  1.00  0.00    -0.296 OA 
HETATM   30  C   UNL     1     -12.462   6.986  70.861  1.00  0.00    -0.272 C  
HETATM   31  H   UNL     1     -11.667   5.665  69.470  1.00  0.00     0.000 HD 
ENDBRANCH  27  28
BRANCH  27  32
HETATM   32  C   UNL     1      -8.999   6.155  69.763  1.00  0.00    -0.138 C  
BRANCH  32  33
HETATM   33  C   UNL     1      -9.016   4.706  69.306  1.00  0.00    -0.140 A  
HETATM   34  C   UNL     1      -9.028   2.592  68.387  1.00  0.00    -0.143 A  
HETATM   35  H   UNL     1      -9.147   1.622  70.265  1.00  0.00     0.000 HD 
HETATM   36  C   UNL     1      -9.002   1.548  67.450  1.00  0.00    -0.152 A  
HETATM   37  C   UNL     1      -9.088   3.735  70.301  1.00  0.00    -0.123 A  
HETATM   38  C   UNL     1      -8.964   1.891  66.104  1.00  0.00    -0.097 A  
HETATM   39  N   UNL     1      -9.096   2.497  69.743  1.00  0.00    -0.105 NA 
HETATM   40  C   UNL     1      -8.957   3.232  65.722  1.00  0.00    -0.145 A  
HETATM   41  C   UNL     1      -8.970   4.269  66.679  1.00  0.00    -0.122 A  
HETATM   42  C   UNL     1      -9.000   3.962  68.057  1.00  0.00    -0.155 A  
ENDBRANCH  32  33
ENDBRANCH  27  32
ENDBRANCH  24  27
ENDBRANCH  11  23
ENDBRANCH   7  11
TORSDOF 8
ENDMDL
MODEL      351
REMARK 921   NORMALIZED FREE ENERGY PREDICTED BY IDOCK:   -4.75 KCAL/MOL
REMARK 922        TOTAL FREE ENERGY PREDICTED BY IDOCK:   -9.11 KCAL/MOL
REMARK 923 INTER-LIGAND FREE ENERGY PREDICTED BY IDOCK:   -7.44 KCAL/MOL
REMARK 924 INTRA-LIGAND FREE ENERGY PREDICTED BY IDOCK:   -1.67 KCAL/MOL
REMARK 927      BINDING AFFINITY PREDICTED BY RF-SCORE:    0.00 PKD
ROOT
HETATM    1  C   UNL     1     -12.453  12.361  64.240  1.00  0.00    -0.529 C  
HETATM    2  C   UNL     1     -12.334  13.772  64.849  1.00  0.00    -0.405 C  
HETATM    3  C   UNL     1     -11.027  13.936  65.881  1.00  0.00    -0.284 C  
HETATM    4  N   UNL     1     -13.588  14.029  65.616  1.00  0.00    -0.441 NA 
HETATM    5  C   UNL     1     -12.357  14.737  63.632  1.00  0.00     0.444 C  
HETATM    6  H2  UNL     1     -13.785  13.309  66.312  1.00  0.00     0.000 HD 
HETATM    7  N   UNL     1     -11.221  13.608  67.228  1.00  0.00    -0.300 N  
HETATM    8  H1  UNL     1     -13.509  14.963  66.019  1.00  0.00     0.000 HD 
HETATM    9  O   UNL     1      -9.924  14.292  65.467  1.00  0.00    -0.334 OA 
HETATM   10  H   UNL     1     -12.204  13.469  67.460  1.00  0.00     0.000 HD 
ENDROOT
BRANCH   7  11
HETATM   11  C   UNL     1     -10.275  13.406  68.463  1.00  0.00    -0.223 C  
BRANCH  11  12
HETATM   12  C   UNL     1      -9.256  14.506  69.019  1.00  0.00    -0.059 C  
BRANCH  12  13
HETATM   13  C   UNL     1      -8.628  15.602  68.030  1.00  0.00    -0.155 A  
HETATM   14  C   UNL     1      -7.409  15.581  67.378  1.00  0.00    -0.210 A  
HETATM   15  C   UNL     1     -10.728  18.825  67.317  1.00  0.00    -0.490 A  
HETATM   16  C   UNL     1      -9.699  19.577  66.759  1.00  0.00    -0.464 A  
HETATM   17  C   UNL     1      -8.451  18.993  66.545  1.00  0.00    -0.320 A  
HETATM   18  N   UNL     1      -7.185  16.809  66.756  1.00  0.00    -0.211 NA 
HETATM   19  C   UNL     1     -10.507  17.499  67.745  1.00  0.00    -0.381 A  
HETATM   20  C   UNL     1      -9.231  16.889  67.607  1.00  0.00    -0.228 A  
HETATM   21  C   UNL     1      -8.261  17.643  66.945  1.00  0.00    -0.225 A  
HETATM   22  H   UNL     1      -6.343  17.053  66.236  1.00  0.00     0.000 HD 
ENDBRANCH  12  13
ENDBRANCH  11  12
BRANCH  11  23
HETATM   23  C   UNL     1      -9.672  11.981  68.342  1.00  0.00    -0.199 C  
HETATM   24  N   UNL     1     -10.539  10.950  68.036  1.00  0.00    -0.188 N  
HETATM   25  H   UNL     1     -11.499  11.160  67.766  1.00  0.00     0.000 HD 
HETATM   26  O   UNL     1      -8.480  11.786  68.597  1.00  0.00    -0.142 OA 
BRANCH  24  27
HETATM   27  C   UNL     1     -10.092   9.577  68.096  1.00  0.00    -0.182 C  
BRANCH  27  28
HETATM   28  N   UNL     1     -10.991   8.837  68.945  1.00  0.00    -0.440 N  
HETATM   29  O   UNL     1     -10.116   9.620  70.936  1.00  0.00    -0.279 OA 
HETATM   30  C   UNL     1     -10.915   8.935  70.316  1.00  0.00    -0.241 C  
HETATM   31  H   UNL     1     -11.694   8.231  68.523  1.00  0.00     0.000 HD 
ENDBRANCH  27  28
BRANCH  27  32
HETATM   32  C   UNL     1      -9.718   8.873  66.775  1.00  0.00    -0.282 C  
BRANCH  32  33
HETATM   33  C   UNL     1      -8.398   8.233  66.376  1.00  0.00    -0.117 A  
HETATM   34  C   UNL     1      -6.527   7.082  65.680  1.00  0.00    -0.047 A  
HETATM   35  H   UNL     1      -5.181   8.540  66.418  1.00  0.00     0.000 HD 
HETATM   36  C   UNL     1      -5.705   6.099  65.106  1.00  0.00    -0.021 A  
HETATM   37  C   UNL     1      -7.238   8.930  66.705  1.00  0.00    -0.085 A  
HETATM   38  C   UNL     1      -6.323   4.978  64.565  1.00  0.00    -0.034 A  
HETATM   39  N   UNL     1      -6.146   8.238  66.290  1.00  0.00    -0.044 NA 
HETATM   40  C   UNL     1      -7.711   4.854  64.607  1.00  0.00    -0.079 A  
HETATM   41  C   UNL     1      -8.522   5.859  65.176  1.00  0.00    -0.130 A  
HETATM   42  C   UNL     1      -7.934   7.017  65.728  1.00  0.00    -0.116 A  
ENDBRANCH  32  33
ENDBRANCH  27  32
ENDBRANCH  24  27
ENDBRANCH  11  23
ENDBRANCH   7  11
TORSDOF 8
ENDMDL
MODEL      352
REMARK 921   NORMALIZED FREE ENERGY PREDICTED BY IDOCK:   -4.73 KCAL/MOL
REMARK 922        TOTAL FREE ENERGY PREDICTED BY IDOCK:   -9.08 KCAL/MOL
REMARK 923 INTER-LIGAND FREE ENERGY PREDICTED BY IDOCK:   -7.08 KCAL/MOL
REMARK 924 INTRA-LIGAND FREE ENERGY PREDICTED BY IDOCK:   -2.00 KCAL/MOL
REMARK 927      BINDING AFFINITY PREDICTED BY RF-SCORE:    0.00 PKD
ROOT
HETATM    1  C   UNL     1     -11.320   7.261  70.616  1.00  0.00    -0.311 C  
HETATM    2  C   UNL     1     -11.338   8.739  71.050  1.00  0.00    -0.278 C  
HETATM    3  C   UNL     1     -10.697   9.772  69.900  1.00  0.00    -0.268 C  
HETATM    4  N   UNL     1     -10.526   8.845  72.297  1.00  0.00    -0.259 NA 
HETATM    5  C   UNL     1     -12.812   9.018  71.459  1.00  0.00    -0.394 C  
HETATM    6  H2  UNL     1      -9.582   8.472  72.191  1.00  0.00     0.000 HD 
HETATM    7  N   UNL     1      -9.317  10.005  69.938  1.00  0.00    -0.348 N  
HETATM    8  H1  UNL     1     -10.539   9.824  72.584  1.00  0.00     0.000 HD 
HETATM    9  O   UNL     1     -11.402  10.277  69.027  1.00  0.00    -0.231 OA 
HETATM   10  H   UNL     1      -8.882   9.645  70.787  1.00  0.00     0.000 HD 
ENDROOT
BRANCH   7  11
HETATM   11  C   UNL     1      -8.287  10.693  68.975  1.00  0.00    -0.152 C  
BRANCH  11  12
HETATM   12  C   UNL     1      -8.662  11.789  67.873  1.00  0.00    -0.164 C  
BRANCH  12  13
HETATM   13  C   UNL     1      -9.231  11.338  66.443  1.00  0.00    -0.206 A  
HETATM   14  C   UNL     1      -8.704  10.421  65.553  1.00  0.00    -0.177 A  
HETATM   15  C   UNL     1     -12.533  13.019  65.186  1.00  0.00    -0.552 A  
HETATM   16  C   UNL     1     -12.430  12.621  63.857  1.00  0.00    -0.498 A  
HETATM   17  C   UNL     1     -11.398  11.769  63.467  1.00  0.00    -0.496 A  
HETATM   18  N   UNL     1      -9.420  10.459  64.356  1.00  0.00    -0.261 NA 
HETATM   19  C   UNL     1     -11.561  12.637  66.135  1.00  0.00    -0.445 A  
HETATM   20  C   UNL     1     -10.456  11.825  65.763  1.00  0.00    -0.302 A  
HETATM   21  C   UNL     1     -10.453  11.362  64.446  1.00  0.00    -0.330 A  
HETATM   22  H   UNL     1      -9.208   9.897  63.533  1.00  0.00     0.000 HD 
ENDBRANCH  12  13
ENDBRANCH  11  12
BRANCH  11  23
HETATM   23  C   UNL     1      -7.330   9.580  68.469  1.00  0.00    -0.079 C  
HETATM   24  N   UNL     1      -7.725   8.270  68.657  1.00  0.00    -0.112 N  
HETATM   25  H   UNL     1      -8.669   8.068  68.986  1.00  0.00     0.000 HD 
HETATM   26  O   UNL     1      -6.227   9.875  67.999  1.00  0.00    -0.054 OA 
BRANCH  24  27
HETATM   27  C   UNL     1      -6.809   7.185  68.392  1.00  0.00    -0.073 C  
BRANCH  27  28
HETATM   28  N   UNL     1      -5.835   7.134  69.453  1.00  0.00    -0.025 N  
HETATM   29  O   UNL     1      -7.374   7.209  71.175  1.00  0.00    -0.073 OA 
HETATM   30  C   UNL     1      -6.222   7.148  70.773  1.00  0.00    -0.036 C  
HETATM   31  H   UNL     1      -4.843   7.085  69.221  1.00  0.00     0.000 HD 
ENDBRANCH  27  28
BRANCH  27  32
HETATM   32  C   UNL     1      -7.397   5.818  67.981  1.00  0.00    -0.073 C  
BRANCH  32  33
HETATM   33  C   UNL     1      -7.827   5.340  66.604  1.00  0.00    -0.100 A  
HETATM   34  C   UNL     1      -8.364   4.806  64.428  1.00  0.00    -0.126 A  
HETATM   35  H   UNL     1      -9.434   3.061  64.969  1.00  0.00     0.000 HD 
HETATM   36  C   UNL     1      -8.451   4.854  63.028  1.00  0.00    -0.119 A  
HETATM   37  C   UNL     1      -8.578   4.168  66.554  1.00  0.00    -0.113 A  
HETATM   38  C   UNL     1      -7.861   5.935  62.382  1.00  0.00    -0.083 A  
HETATM   39  N   UNL     1      -8.888   3.870  65.266  1.00  0.00    -0.122 NA 
HETATM   40  C   UNL     1      -7.217   6.926  63.122  1.00  0.00    -0.069 A  
HETATM   41  C   UNL     1      -7.129   6.855  64.529  1.00  0.00    -0.061 A  
HETATM   42  C   UNL     1      -7.707   5.768  65.220  1.00  0.00    -0.093 A  
ENDBRANCH  32  33
ENDBRANCH  27  32
ENDBRANCH  24  27
ENDBRANCH  11  23
ENDBRANCH   7  11
TORSDOF 8
ENDMDL
MODEL      353
REMARK 921   NORMALIZED FREE ENERGY PREDICTED BY IDOCK:   -4.73 KCAL/MOL
REMARK 922        TOTAL FREE ENERGY PREDICTED BY IDOCK:   -9.08 KCAL/MOL
REMARK 923 INTER-LIGAND FREE ENERGY PREDICTED BY IDOCK:   -7.83 KCAL/MOL
REMARK 924 INTRA-LIGAND FREE ENERGY PREDICTED BY IDOCK:   -1.25 KCAL/MOL
REMARK 927      BINDING AFFINITY PREDICTED BY RF-SCORE:    0.00 PKD
ROOT
HETATM    1  C   UNL     1     -10.648  18.342  67.256  1.00  0.00    -0.406 C  
HETATM    2  C   UNL     1      -9.940  17.224  66.466  1.00  0.00    -0.305 C  
HETATM    3  C   UNL     1      -9.505  15.918  67.418  1.00  0.00    -0.219 C  
HETATM    4  N   UNL     1      -8.708  17.815  65.869  1.00  0.00    -0.511 NA 
HETATM    5  C   UNL     1     -10.895  16.905  65.282  1.00  0.00    -0.113 C  
HETATM    6  H2  UNL     1      -8.103  18.260  66.561  1.00  0.00     0.000 HD 
HETATM    7  N   UNL     1      -8.256  15.965  68.047  1.00  0.00    -0.147 N  
HETATM    8  H1  UNL     1      -8.240  17.075  65.346  1.00  0.00     0.000 HD 
HETATM    9  O   UNL     1     -10.270  14.970  67.595  1.00  0.00    -0.234 OA 
HETATM   10  H   UNL     1      -7.673  16.729  67.706  1.00  0.00     0.000 HD 
ENDROOT
BRANCH   7  11
HETATM   11  C   UNL     1      -7.545  15.112  69.157  1.00  0.00    -0.188 C  
BRANCH  11  12
HETATM   12  C   UNL     1      -6.262  15.585  69.986  1.00  0.00    -0.139 C  
BRANCH  12  13
HETATM   13  C   UNL     1      -5.752  17.103  69.892  1.00  0.00    -0.227 A  
HETATM   14  C   UNL     1      -5.479  17.988  70.918  1.00  0.00    -0.140 A  
HETATM   15  C   UNL     1      -5.200  18.620  66.328  1.00  0.00    -0.169 A  
HETATM   16  C   UNL     1      -5.130  19.954  66.722  1.00  0.00    -0.161 A  
HETATM   17  C   UNL     1      -5.152  20.278  68.077  1.00  0.00    -0.201 A  
HETATM   18  N   UNL     1      -5.228  19.256  70.394  1.00  0.00    -0.198 NA 
HETATM   19  C   UNL     1      -5.373  17.592  67.279  1.00  0.00    -0.148 A  
HETATM   20  C   UNL     1      -5.468  17.887  68.665  1.00  0.00    -0.165 A  
HETATM   21  C   UNL     1      -5.285  19.225  69.021  1.00  0.00    -0.196 A  
HETATM   22  H   UNL     1      -5.030  20.087  70.950  1.00  0.00     0.000 HD 
ENDBRANCH  12  13
ENDBRANCH  11  12
BRANCH  11  23
HETATM   23  C   UNL     1      -7.461  13.657  68.624  1.00  0.00    -0.113 C  
HETATM   24  N   UNL     1      -8.602  12.884  68.707  1.00  0.00    -0.370 N  
HETATM   25  H   UNL     1      -9.486  13.315  68.978  1.00  0.00     0.000 HD 
HETATM   26  O   UNL     1      -6.384  13.202  68.226  1.00  0.00    -0.077 OA 
BRANCH  24  27
HETATM   27  C   UNL     1      -8.552  11.470  68.414  1.00  0.00    -0.159 C  
BRANCH  27  28
HETATM   28  N   UNL     1      -7.859  11.284  67.165  1.00  0.00    -0.143 N  
HETATM   29  O   UNL     1      -9.197   9.551  66.423  1.00  0.00    -0.150 OA 
HETATM   30  C   UNL     1      -8.260  10.320  66.267  1.00  0.00    -0.131 C  
HETATM   31  H   UNL     1      -7.059  11.875  66.942  1.00  0.00     0.000 HD 
ENDBRANCH  27  28
BRANCH  27  32
HETATM   32  C   UNL     1      -8.130  10.506  69.543  1.00  0.00    -0.105 C  
BRANCH  32  33
HETATM   33  C   UNL     1      -8.968   9.472  70.277  1.00  0.00    -0.288 A  
HETATM   34  C   UNL     1     -10.423   8.058  71.369  1.00  0.00    -0.215 A  
HETATM   35  H   UNL     1      -8.962   6.555  71.670  1.00  0.00     0.000 HD 
HETATM   36  C   UNL     1     -11.592   7.535  71.945  1.00  0.00    -0.312 A  
HETATM   37  C   UNL     1      -8.325   8.295  70.651  1.00  0.00    -0.121 A  
HETATM   38  C   UNL     1     -12.729   8.334  71.931  1.00  0.00    -0.373 A  
HETATM   39  N   UNL     1      -9.195   7.475  71.295  1.00  0.00    -0.149 NA 
HETATM   40  C   UNL     1     -12.684   9.607  71.366  1.00  0.00    -0.466 A  
HETATM   41  C   UNL     1     -11.503  10.111  70.780  1.00  0.00    -0.442 A  
HETATM   42  C   UNL     1     -10.329   9.327  70.765  1.00  0.00    -0.348 A  
ENDBRANCH  32  33
ENDBRANCH  27  32
ENDBRANCH  24  27
ENDBRANCH  11  23
ENDBRANCH   7  11
TORSDOF 8
ENDMDL
MODEL      354
REMARK 921   NORMALIZED FREE ENERGY PREDICTED BY IDOCK:   -4.71 KCAL/MOL
REMARK 922        TOTAL FREE ENERGY PREDICTED BY IDOCK:   -9.06 KCAL/MOL
REMARK 923 INTER-LIGAND FREE ENERGY PREDICTED BY IDOCK:   -9.82 KCAL/MOL
REMARK 924 INTRA-LIGAND FREE ENERGY PREDICTED BY IDOCK:    0.76 KCAL/MOL
REMARK 927      BINDING AFFINITY PREDICTED BY RF-SCORE:    0.00 PKD
ROOT
HETATM    1  C   UNL     1     -11.926  15.861  72.265  1.00  0.00    -0.617 C  
HETATM    2  C   UNL     1     -13.106  15.125  71.601  1.00  0.00    -0.388 C  
HETATM    3  C   UNL     1     -12.867  13.473  71.477  1.00  0.00    -0.352 C  
HETATM    4  N   UNL     1     -13.265  15.692  70.230  1.00  0.00    -0.713 NA 
HETATM    5  C   UNL     1     -14.358  15.565  72.408  1.00  0.00    -0.475 C  
HETATM    6  H2  UNL     1     -12.407  15.651  69.679  1.00  0.00     0.000 HD 
HETATM    7  N   UNL     1     -12.211  12.999  70.334  1.00  0.00    -0.363 N  
HETATM    8  H1  UNL     1     -14.046  15.205  69.790  1.00  0.00     0.000 HD 
HETATM    9  O   UNL     1     -13.215  12.705  72.373  1.00  0.00    -0.448 OA 
HETATM   10  H   UNL     1     -12.107  13.715  69.616  1.00  0.00     0.000 HD 
ENDROOT
BRANCH   7  11
HETATM   11  C   UNL     1     -11.599  11.619  69.905  1.00  0.00    -0.288 C  
BRANCH  11  12
HETATM   12  C   UNL     1     -11.281  11.194  68.396  1.00  0.00    -0.325 C  
BRANCH  12  13
HETATM   13  C   UNL     1     -11.526  12.228  67.195  1.00  0.00    -0.419 A  
HETATM   14  C   UNL     1     -12.007  13.523  67.253  1.00  0.00    -0.365 A  
HETATM   15  C   UNL     1     -10.721  11.020  63.562  1.00  0.00    -0.230 A  
HETATM   16  C   UNL     1     -11.393  12.039  62.892  1.00  0.00     0.200 A  
HETATM   17  C   UNL     1     -11.958  13.089  63.616  1.00  0.00    -0.608 A  
HETATM   18  N   UNL     1     -12.228  14.004  65.963  1.00  0.00    -0.436 NA 
HETATM   19  C   UNL     1     -10.670  10.990  64.972  1.00  0.00    -0.264 A  
HETATM   20  C   UNL     1     -11.292  12.005  65.747  1.00  0.00    -0.384 A  
HETATM   21  C   UNL     1     -11.859  13.061  65.033  1.00  0.00    -0.362 A  
HETATM   22  H   UNL     1     -12.609  14.923  65.741  1.00  0.00     0.000 HD 
ENDBRANCH  12  13
ENDBRANCH  11  12
BRANCH  11  23
HETATM   23  C   UNL     1     -12.321  10.526  70.738  1.00  0.00    -0.378 C  
HETATM   24  N   UNL     1     -11.545   9.758  71.583  1.00  0.00    -0.351 N  
HETATM   25  H   UNL     1     -10.570  10.009  71.744  1.00  0.00     0.000 HD 
HETATM   26  O   UNL     1     -13.525  10.311  70.571  1.00  0.00    -0.175 OA 
BRANCH  24  27
HETATM   27  C   UNL     1     -12.107   8.600  72.241  1.00  0.00    -0.373 C  
BRANCH  27  28
HETATM   28  N   UNL     1     -12.954   7.905  71.307  1.00  0.00    -0.505 N  
HETATM   29  O   UNL     1     -13.111   5.962  72.549  1.00  0.00     0.180 OA 
HETATM   30  C   UNL     1     -13.386   6.622  71.559  1.00  0.00     0.048 C  
HETATM   31  H   UNL     1     -13.238   8.369  70.445  1.00  0.00     0.000 HD 
ENDBRANCH  27  28
BRANCH  27  32
HETATM   32  C   UNL     1     -11.161   7.696  73.061  1.00  0.00    -0.388 C  
BRANCH  32  33
HETATM   33  C   UNL     1      -9.931   6.934  72.596  1.00  0.00    -0.191 A  
HETATM   34  C   UNL     1      -8.076   5.660  72.101  1.00  0.00    -0.108 A  
HETATM   35  H   UNL     1      -7.777   6.571  70.213  1.00  0.00     0.000 HD 
HETATM   36  C   UNL     1      -7.047   4.710  72.202  1.00  0.00    -0.066 A  
HETATM   37  C   UNL     1      -9.422   7.269  71.344  1.00  0.00    -0.160 A  
HETATM   38  C   UNL     1      -6.967   3.970  73.375  1.00  0.00    -0.058 A  
HETATM   39  N   UNL     1      -8.329   6.511  71.069  1.00  0.00    -0.125 NA 
HETATM   40  C   UNL     1      -7.882   4.186  74.404  1.00  0.00    -0.087 A  
HETATM   41  C   UNL     1      -8.918   5.137  74.280  1.00  0.00    -0.114 A  
HETATM   42  C   UNL     1      -9.040   5.902  73.099  1.00  0.00    -0.130 A  
ENDBRANCH  32  33
ENDBRANCH  27  32
ENDBRANCH  24  27
ENDBRANCH  11  23
ENDBRANCH   7  11
TORSDOF 8
ENDMDL
MODEL      355
REMARK 921   NORMALIZED FREE ENERGY PREDICTED BY IDOCK:   -4.71 KCAL/MOL
REMARK 922        TOTAL FREE ENERGY PREDICTED BY IDOCK:   -9.06 KCAL/MOL
REMARK 923 INTER-LIGAND FREE ENERGY PREDICTED BY IDOCK:   -7.70 KCAL/MOL
REMARK 924 INTRA-LIGAND FREE ENERGY PREDICTED BY IDOCK:   -1.36 KCAL/MOL
REMARK 927      BINDING AFFINITY PREDICTED BY RF-SCORE:    0.00 PKD
ROOT
HETATM    1  C   UNL     1      -7.124   8.382  63.479  1.00  0.00    -0.090 C  
HETATM    2  C   UNL     1      -7.261   9.655  64.336  1.00  0.00    -0.122 C  
HETATM    3  C   UNL     1      -7.894   9.360  65.858  1.00  0.00    -0.099 C  
HETATM    4  N   UNL     1      -8.173  10.583  63.608  1.00  0.00    -0.299 NA 
HETATM    5  C   UNL     1      -5.852  10.310  64.308  1.00  0.00    -0.142 C  
HETATM    6  H2  UNL     1      -9.072  10.159  63.376  1.00  0.00     0.000 HD 
HETATM    7  N   UNL     1      -9.287   9.382  65.993  1.00  0.00    -0.200 N  
HETATM    8  H1  UNL     1      -8.264  11.426  64.175  1.00  0.00     0.000 HD 
HETATM    9  O   UNL     1      -7.167   9.093  66.814  1.00  0.00    -0.084 OA 
HETATM   10  H   UNL     1      -9.756   9.753  65.167  1.00  0.00     0.000 HD 
ENDROOT
BRANCH   7  11
HETATM   11  C   UNL     1     -10.293   8.967  67.124  1.00  0.00    -0.272 C  
BRANCH  11  12
HETATM   12  C   UNL     1     -10.379   9.658  68.564  1.00  0.00    -0.231 C  
BRANCH  12  13
HETATM   13  C   UNL     1     -10.911  11.164  68.708  1.00  0.00    -0.268 A  
HETATM   14  C   UNL     1     -11.662  11.722  69.726  1.00  0.00    -0.335 A  
HETATM   15  C   UNL     1     -10.055  13.679  65.836  1.00  0.00    -0.320 A  
HETATM   16  C   UNL     1     -10.970  14.665  66.196  1.00  0.00    -0.329 A  
HETATM   17  C   UNL     1     -11.713  14.525  67.367  1.00  0.00    -0.425 A  
HETATM   18  N   UNL     1     -12.053  13.014  69.371  1.00  0.00    -0.255 NA 
HETATM   19  C   UNL     1      -9.923  12.500  66.599  1.00  0.00    -0.243 A  
HETATM   20  C   UNL     1     -10.711  12.289  67.761  1.00  0.00    -0.246 A  
HETATM   21  C   UNL     1     -11.535  13.348  68.143  1.00  0.00    -0.304 A  
HETATM   22  H   UNL     1     -12.639  13.622  69.942  1.00  0.00     0.000 HD 
ENDBRANCH  12  13
ENDBRANCH  11  12
BRANCH  11  23
HETATM   23  C   UNL     1     -10.320   7.415  67.158  1.00  0.00    -0.307 C  
HETATM   24  N   UNL     1      -9.207   6.773  67.662  1.00  0.00    -0.119 N  
HETATM   25  H   UNL     1      -8.473   7.314  68.118  1.00  0.00     0.000 HD 
HETATM   26  O   UNL     1     -11.271   6.799  66.668  1.00  0.00    -0.205 OA 
BRANCH  24  27
HETATM   27  C   UNL     1      -9.076   5.339  67.549  1.00  0.00    -0.109 C  
BRANCH  27  28
HETATM   28  N   UNL     1      -7.772   5.035  67.018  1.00  0.00    -0.091 N  
HETATM   29  O   UNL     1      -6.593   6.141  68.669  1.00  0.00    -0.053 OA 
HETATM   30  C   UNL     1      -6.629   5.474  67.646  1.00  0.00    -0.053 C  
HETATM   31  H   UNL     1      -7.695   4.486  66.162  1.00  0.00     0.000 HD 
ENDBRANCH  27  28
BRANCH  27  32
HETATM   32  C   UNL     1      -9.508   4.469  68.749  1.00  0.00    -0.221 C  
BRANCH  32  33
HETATM   33  C   UNL     1     -10.046   4.909  70.101  1.00  0.00    -0.332 A  
HETATM   34  C   UNL     1     -10.718   5.411  72.247  1.00  0.00    -0.231 A  
HETATM   35  H   UNL     1     -12.064   6.922  71.625  1.00  0.00     0.000 HD 
HETATM   36  C   UNL     1     -10.826   5.395  73.647  1.00  0.00    -0.321 A  
HETATM   37  C   UNL     1     -10.992   5.931  70.096  1.00  0.00    -0.342 A  
HETATM   38  C   UNL     1     -10.070   4.457  74.340  1.00  0.00    -0.247 A  
HETATM   39  N   UNL     1     -11.378   6.213  71.367  1.00  0.00    -0.290 NA 
HETATM   40  C   UNL     1      -9.246   3.571  73.648  1.00  0.00    -0.102 A  
HETATM   41  C   UNL     1      -9.141   3.610  72.241  1.00  0.00    -0.149 A  
HETATM   42  C   UNL     1      -9.885   4.554  71.501  1.00  0.00    -0.260 A  
ENDBRANCH  32  33
ENDBRANCH  27  32
ENDBRANCH  24  27
ENDBRANCH  11  23
ENDBRANCH   7  11
TORSDOF 8
ENDMDL
MODEL      356
REMARK 921   NORMALIZED FREE ENERGY PREDICTED BY IDOCK:   -4.70 KCAL/MOL
REMARK 922        TOTAL FREE ENERGY PREDICTED BY IDOCK:   -9.04 KCAL/MOL
REMARK 923 INTER-LIGAND FREE ENERGY PREDICTED BY IDOCK:   -8.07 KCAL/MOL
REMARK 924 INTRA-LIGAND FREE ENERGY PREDICTED BY IDOCK:   -0.97 KCAL/MOL
REMARK 927      BINDING AFFINITY PREDICTED BY RF-SCORE:    0.00 PKD
ROOT
HETATM    1  C   UNL     1     -11.335  11.736  70.171  1.00  0.00    -0.037 C  
HETATM    2  C   UNL     1     -12.359  10.742  70.754  1.00  0.00    -0.383 C  
HETATM    3  C   UNL     1     -11.693   9.251  71.123  1.00  0.00    -0.325 C  
HETATM    4  N   UNL     1     -13.425  10.552  69.728  1.00  0.00    -0.108 NA 
HETATM    5  C   UNL     1     -13.018  11.497  71.941  1.00  0.00    -0.453 C  
HETATM    6  H2  UNL     1     -13.058  10.262  68.821  1.00  0.00     0.000 HD 
HETATM    7  N   UNL     1     -11.663   8.288  70.107  1.00  0.00    -0.452 N  
HETATM    8  H1  UNL     1     -14.102   9.894  70.114  1.00  0.00     0.000 HD 
HETATM    9  O   UNL     1     -11.210   9.021  72.231  1.00  0.00    -0.306 OA 
HETATM   10  H   UNL     1     -12.218   8.557  69.295  1.00  0.00     0.000 HD 
ENDROOT
BRANCH   7  11
HETATM   11  C   UNL     1     -10.971   6.890  69.931  1.00  0.00    -0.277 C  
BRANCH  11  12
HETATM   12  C   UNL     1     -10.855   5.782  71.077  1.00  0.00    -0.316 C  
BRANCH  12  13
HETATM   13  C   UNL     1      -9.428   5.427  71.719  1.00  0.00    -0.177 A  
HETATM   14  C   UNL     1      -8.707   4.252  71.629  1.00  0.00    -0.113 A  
HETATM   15  C   UNL     1      -7.672   8.178  73.878  1.00  0.00    -0.245 A  
HETATM   16  C   UNL     1      -6.730   7.346  74.477  1.00  0.00    -0.103 A  
HETATM   17  C   UNL     1      -6.637   6.011  74.088  1.00  0.00    -0.075 A  
HETATM   18  N   UNL     1      -7.602   4.309  72.478  1.00  0.00    -0.077 NA 
HETATM   19  C   UNL     1      -8.592   7.670  72.936  1.00  0.00    -0.190 A  
HETATM   20  C   UNL     1      -8.575   6.300  72.563  1.00  0.00    -0.120 A  
HETATM   21  C   UNL     1      -7.546   5.530  73.107  1.00  0.00    -0.097 A  
HETATM   22  H   UNL     1      -6.931   3.553  72.613  1.00  0.00     0.000 HD 
ENDBRANCH  12  13
ENDBRANCH  11  12
BRANCH  11  23
HETATM   23  C   UNL     1      -9.657   7.133  69.141  1.00  0.00    -0.154 C  
HETATM   24  N   UNL     1      -9.659   8.148  68.204  1.00  0.00    -0.147 N  
HETATM   25  H   UNL     1     -10.451   8.788  68.153  1.00  0.00     0.000 HD 
HETATM   26  O   UNL     1      -8.690   6.382  69.296  1.00  0.00    -0.124 OA 
BRANCH  24  27
HETATM   27  C   UNL     1      -8.546   8.309  67.298  1.00  0.00    -0.124 C  
BRANCH  27  28
HETATM   28  N   UNL     1      -8.486   7.159  66.432  1.00  0.00    -0.123 N  
HETATM   29  O   UNL     1      -6.198   6.878  66.588  1.00  0.00    -0.038 OA 
HETATM   30  C   UNL     1      -7.289   6.539  66.156  1.00  0.00    -0.080 C  
HETATM   31  H   UNL     1      -9.345   6.799  66.017  1.00  0.00     0.000 HD 
ENDBRANCH  27  28
BRANCH  27  32
HETATM   32  C   UNL     1      -8.374   9.669  66.587  1.00  0.00    -0.123 C  
BRANCH  32  33
HETATM   33  C   UNL     1      -9.291  10.339  65.578  1.00  0.00    -0.250 A  
HETATM   34  C   UNL     1     -10.785  11.467  64.234  1.00  0.00    -0.356 A  
HETATM   35  H   UNL     1     -10.037  10.618  62.445  1.00  0.00     0.000 HD 
HETATM   36  C   UNL     1     -11.820  12.318  63.815  1.00  0.00    -0.587 A  
HETATM   37  C   UNL     1      -9.091  10.017  64.238  1.00  0.00    -0.255 A  
HETATM   38  C   UNL     1     -12.534  12.995  64.797  1.00  0.00    -0.485 A  
HETATM   39  N   UNL     1      -9.980  10.688  63.461  1.00  0.00    -0.321 NA 
HETATM   40  C   UNL     1     -12.218  12.815  66.142  1.00  0.00    -0.340 A  
HETATM   41  C   UNL     1     -11.165  11.965  66.544  1.00  0.00    -0.383 A  
HETATM   42  C   UNL     1     -10.410  11.267  65.577  1.00  0.00    -0.321 A  
ENDBRANCH  32  33
ENDBRANCH  27  32
ENDBRANCH  24  27
ENDBRANCH  11  23
ENDBRANCH   7  11
TORSDOF 8
ENDMDL
MODEL      357
REMARK 921   NORMALIZED FREE ENERGY PREDICTED BY IDOCK:   -4.68 KCAL/MOL
REMARK 922        TOTAL FREE ENERGY PREDICTED BY IDOCK:   -9.02 KCAL/MOL
REMARK 923 INTER-LIGAND FREE ENERGY PREDICTED BY IDOCK:   -7.63 KCAL/MOL
REMARK 924 INTRA-LIGAND FREE ENERGY PREDICTED BY IDOCK:   -1.39 KCAL/MOL
REMARK 927      BINDING AFFINITY PREDICTED BY RF-SCORE:    0.00 PKD
ROOT
HETATM    1  C   UNL     1      -9.142   9.789  63.115  1.00  0.00    -0.270 C  
HETATM    2  C   UNL     1      -7.860   9.171  63.706  1.00  0.00    -0.133 C  
HETATM    3  C   UNL     1      -8.167   8.000  64.863  1.00  0.00    -0.134 C  
HETATM    4  N   UNL     1      -7.084  10.277  64.336  1.00  0.00    -0.272 NA 
HETATM    5  C   UNL     1      -7.038   8.701  62.474  1.00  0.00    -0.097 C  
HETATM    6  H2  UNL     1      -7.626  10.805  65.022  1.00  0.00     0.000 HD 
HETATM    7  N   UNL     1      -8.312   8.424  66.189  1.00  0.00    -0.119 N  
HETATM    8  H1  UNL     1      -6.236   9.867  64.727  1.00  0.00     0.000 HD 
HETATM    9  O   UNL     1      -8.301   6.815  64.556  1.00  0.00    -0.054 OA 
HETATM   10  H   UNL     1      -8.038   9.397  66.322  1.00  0.00     0.000 HD 
ENDROOT
BRANCH   7  11
HETATM   11  C   UNL     1      -8.800   7.746  67.517  1.00  0.00    -0.124 C  
BRANCH  11  12
HETATM   12  C   UNL     1      -9.796   6.497  67.590  1.00  0.00    -0.146 C  
BRANCH  12  13
HETATM   13  C   UNL     1     -10.295   5.940  69.009  1.00  0.00    -0.297 A  
HETATM   14  C   UNL     1     -11.294   6.432  69.828  1.00  0.00    -0.427 A  
HETATM   15  C   UNL     1      -8.492   2.786  70.462  1.00  0.00    -0.093 A  
HETATM   16  C   UNL     1      -8.974   2.901  71.763  1.00  0.00    -0.136 A  
HETATM   17  C   UNL     1      -9.909   3.888  72.071  1.00  0.00    -0.245 A  
HETATM   18  N   UNL     1     -11.283   5.753  71.046  1.00  0.00    -0.204 NA 
HETATM   19  C   UNL     1      -8.877   3.706  69.463  1.00  0.00    -0.152 A  
HETATM   20  C   UNL     1      -9.775   4.767  69.753  1.00  0.00    -0.272 A  
HETATM   21  C   UNL     1     -10.315   4.778  71.040  1.00  0.00    -0.118 A  
HETATM   22  H   UNL     1     -11.904   5.952  71.829  1.00  0.00     0.000 HD 
ENDBRANCH  12  13
ENDBRANCH  11  12
BRANCH  11  23
HETATM   23  C   UNL     1      -9.138   8.891  68.510  1.00  0.00    -0.137 C  
HETATM   24  N   UNL     1     -10.300   9.604  68.284  1.00  0.00    -0.195 N  
HETATM   25  H   UNL     1     -10.961   9.283  67.576  1.00  0.00     0.000 HD 
HETATM   26  O   UNL     1      -8.345   9.191  69.407  1.00  0.00    -0.115 OA 
BRANCH  24  27
HETATM   27  C   UNL     1     -10.583  10.800  69.042  1.00  0.00    -0.219 C  
BRANCH  27  28
HETATM   28  N   UNL     1     -10.648  10.455  70.439  1.00  0.00    -0.437 N  
HETATM   29  O   UNL     1     -12.948  10.250  70.515  1.00  0.00    -0.320 OA 
HETATM   30  C   UNL     1     -11.853  10.205  71.055  1.00  0.00    -0.383 C  
HETATM   31  H   UNL     1      -9.786  10.395  70.982  1.00  0.00     0.000 HD 
ENDBRANCH  27  28
BRANCH  27  32
HETATM   32  C   UNL     1      -9.774  12.075  68.724  1.00  0.00    -0.029 C  
BRANCH  32  33
HETATM   33  C   UNL     1     -10.271  13.418  68.214  1.00  0.00    -0.250 A  
HETATM   34  C   UNL     1     -10.831  15.550  67.542  1.00  0.00    -0.306 A  
HETATM   35  H   UNL     1     -12.609  14.932  66.574  1.00  0.00     0.000 HD 
HETATM   36  C   UNL     1     -10.783  16.938  67.343  1.00  0.00    -0.241 A  
HETATM   37  C   UNL     1     -11.464  13.412  67.495  1.00  0.00    -0.323 A  
HETATM   38  C   UNL     1      -9.724  17.635  67.912  1.00  0.00    -0.295 A  
HETATM   39  N   UNL     1     -11.780  14.675  67.109  1.00  0.00    -0.385 NA 
HETATM   40  C   UNL     1      -8.759  16.958  68.655  1.00  0.00    -0.267 A  
HETATM   41  C   UNL     1      -8.815  15.559  68.834  1.00  0.00    -0.217 A  
HETATM   42  C   UNL     1      -9.870  14.814  68.264  1.00  0.00    -0.222 A  
ENDBRANCH  32  33
ENDBRANCH  27  32
ENDBRANCH  24  27
ENDBRANCH  11  23
ENDBRANCH   7  11
TORSDOF 8
ENDMDL
MODEL      358
REMARK 921   NORMALIZED FREE ENERGY PREDICTED BY IDOCK:   -4.64 KCAL/MOL
REMARK 922        TOTAL FREE ENERGY PREDICTED BY IDOCK:   -8.95 KCAL/MOL
REMARK 923 INTER-LIGAND FREE ENERGY PREDICTED BY IDOCK:   -7.74 KCAL/MOL
REMARK 924 INTRA-LIGAND FREE ENERGY PREDICTED BY IDOCK:   -1.21 KCAL/MOL
REMARK 927      BINDING AFFINITY PREDICTED BY RF-SCORE:    0.00 PKD
ROOT
HETATM    1  C   UNL     1      -8.083   3.220  69.470  1.00  0.00    -0.061 C  
HETATM    2  C   UNL     1      -8.745   4.049  70.588  1.00  0.00    -0.076 C  
HETATM    3  C   UNL     1      -9.578   5.383  70.015  1.00  0.00    -0.169 C  
HETATM    4  N   UNL     1      -7.657   4.515  71.496  1.00  0.00    -0.078 NA 
HETATM    5  C   UNL     1      -9.588   3.026  71.399  1.00  0.00    -0.227 C  
HETATM    6  H2  UNL     1      -6.918   5.022  71.007  1.00  0.00     0.000 HD 
HETATM    7  N   UNL     1      -8.859   6.574  69.857  1.00  0.00    -0.143 N  
HETATM    8  H1  UNL     1      -8.095   5.063  72.237  1.00  0.00     0.000 HD 
HETATM    9  O   UNL     1     -10.766   5.312  69.705  1.00  0.00    -0.273 OA 
HETATM   10  H   UNL     1      -7.933   6.533  70.281  1.00  0.00     0.000 HD 
ENDROOT
BRANCH   7  11
HETATM   11  C   UNL     1      -9.151   7.958  69.177  1.00  0.00    -0.145 C  
BRANCH  11  12
HETATM   12  C   UNL     1      -8.043   8.892  68.500  1.00  0.00    -0.108 C  
BRANCH  12  13
HETATM   13  C   UNL     1      -8.350   9.639  67.114  1.00  0.00    -0.121 A  
HETATM   14  C   UNL     1      -9.136  10.753  66.888  1.00  0.00    -0.149 A  
HETATM   15  C   UNL     1      -6.733   8.178  63.865  1.00  0.00    -0.071 A  
HETATM   16  C   UNL     1      -7.524   8.873  62.955  1.00  0.00    -0.100 A  
HETATM   17  C   UNL     1      -8.432   9.827  63.414  1.00  0.00    -0.186 A  
HETATM   18  N   UNL     1      -9.270  10.965  65.516  1.00  0.00    -0.202 NA 
HETATM   19  C   UNL     1      -6.890   8.366  65.254  1.00  0.00    -0.067 A  
HETATM   20  C   UNL     1      -7.851   9.279  65.764  1.00  0.00    -0.098 A  
HETATM   21  C   UNL     1      -8.545  10.031  64.815  1.00  0.00    -0.177 A  
HETATM   22  H   UNL     1      -9.826  11.708  65.093  1.00  0.00     0.000 HD 
ENDBRANCH  12  13
ENDBRANCH  11  12
BRANCH  11  23
HETATM   23  C   UNL     1     -10.148   8.712  70.097  1.00  0.00    -0.185 C  
HETATM   24  N   UNL     1     -11.487   8.649  69.768  1.00  0.00    -0.432 N  
HETATM   25  H   UNL     1     -11.799   8.013  69.034  1.00  0.00     0.000 HD 
HETATM   26  O   UNL     1      -9.730   9.406  71.029  1.00  0.00    -0.275 OA 
BRANCH  24  27
HETATM   27  C   UNL     1     -12.450   9.478  70.457  1.00  0.00     0.069 C  
BRANCH  27  28
HETATM   28  N   UNL     1     -12.245   9.339  71.876  1.00  0.00    -0.374 N  
HETATM   29  O   UNL     1     -13.270   7.275  72.050  1.00  0.00    -0.241 OA 
HETATM   30  C   UNL     1     -12.684   8.223  72.551  1.00  0.00    -0.177 C  
HETATM   31  H   UNL     1     -11.768  10.080  72.388  1.00  0.00     0.000 HD 
ENDBRANCH  27  28
BRANCH  27  32
HETATM   32  C   UNL     1     -12.647  10.928  69.966  1.00  0.00    -0.253 C  
BRANCH  32  33
HETATM   33  C   UNL     1     -12.755  12.205  70.783  1.00  0.00    -0.220 A  
HETATM   34  C   UNL     1     -12.787  14.246  71.852  1.00  0.00    -0.348 A  
HETATM   35  H   UNL     1     -13.953  13.541  73.472  1.00  0.00     0.000 HD 
HETATM   36  C   UNL     1     -12.566  15.602  72.139  1.00  0.00    -0.504 A  
HETATM   37  C   UNL     1     -13.483  12.131  71.968  1.00  0.00    -0.286 A  
HETATM   38  C   UNL     1     -11.782  16.330  71.252  1.00  0.00    -0.396 A  
HETATM   39  N   UNL     1     -13.489  13.340  72.586  1.00  0.00    -0.594 NA 
HETATM   40  C   UNL     1     -11.240  15.710  70.126  1.00  0.00    -0.346 A  
HETATM   41  C   UNL     1     -11.483  14.348  69.847  1.00  0.00    -0.314 A  
HETATM   42  C   UNL     1     -12.282  13.578  70.719  1.00  0.00    -0.417 A  
ENDBRANCH  32  33
ENDBRANCH  27  32
ENDBRANCH  24  27
ENDBRANCH  11  23
ENDBRANCH   7  11
TORSDOF 8
ENDMDL
MODEL      359
REMARK 921   NORMALIZED FREE ENERGY PREDICTED BY IDOCK:   -4.61 KCAL/MOL
REMARK 922        TOTAL FREE ENERGY PREDICTED BY IDOCK:   -8.91 KCAL/MOL
REMARK 923 INTER-LIGAND FREE ENERGY PREDICTED BY IDOCK:   -7.36 KCAL/MOL
REMARK 924 INTRA-LIGAND FREE ENERGY PREDICTED BY IDOCK:   -1.55 KCAL/MOL
REMARK 927      BINDING AFFINITY PREDICTED BY RF-SCORE:    0.00 PKD
ROOT
HETATM    1  C   UNL     1     -12.514  12.348  64.229  1.00  0.00    -0.529 C  
HETATM    2  C   UNL     1     -12.360  13.775  64.790  1.00  0.00    -0.386 C  
HETATM    3  C   UNL     1     -11.041  13.945  65.806  1.00  0.00    -0.294 C  
HETATM    4  N   UNL     1     -13.602  14.086  65.556  1.00  0.00    -0.448 NA 
HETATM    5  C   UNL     1     -12.371  14.699  63.540  1.00  0.00     0.595 C  
HETATM    6  H2  UNL     1     -13.809  13.394  66.277  1.00  0.00     0.000 HD 
HETATM    7  N   UNL     1     -11.233  13.666  67.165  1.00  0.00    -0.300 N  
HETATM    8  H1  UNL     1     -13.499  15.031  65.927  1.00  0.00     0.000 HD 
HETATM    9  O   UNL     1      -9.934  14.261  65.373  1.00  0.00    -0.343 OA 
HETATM   10  H   UNL     1     -12.217  13.556  67.408  1.00  0.00     0.000 HD 
ENDROOT
BRANCH   7  11
HETATM   11  C   UNL     1     -10.282  13.483  68.400  1.00  0.00    -0.245 C  
BRANCH  11  12
HETATM   12  C   UNL     1      -9.273  14.599  68.944  1.00  0.00    -0.151 C  
BRANCH  12  13
HETATM   13  C   UNL     1      -8.493  15.555  67.919  1.00  0.00    -0.146 A  
HETATM   14  C   UNL     1      -7.251  15.372  67.340  1.00  0.00    -0.209 A  
HETATM   15  C   UNL     1     -10.233  18.898  66.868  1.00  0.00    -0.443 A  
HETATM   16  C   UNL     1      -9.110  19.508  66.318  1.00  0.00    -0.403 A  
HETATM   17  C   UNL     1      -7.915  18.796  66.216  1.00  0.00    -0.285 A  
HETATM   18  N   UNL     1      -6.879  16.525  66.648  1.00  0.00    -0.217 NA 
HETATM   19  C   UNL     1     -10.163  17.592  67.398  1.00  0.00    -0.337 A  
HETATM   20  C   UNL     1      -8.947  16.858  67.375  1.00  0.00    -0.215 A  
HETATM   21  C   UNL     1      -7.877  17.467  66.718  1.00  0.00    -0.238 A  
HETATM   22  H   UNL     1      -5.992  16.651  66.161  1.00  0.00     0.000 HD 
ENDBRANCH  12  13
ENDBRANCH  11  12
BRANCH  11  23
HETATM   23  C   UNL     1      -9.665  12.063  68.289  1.00  0.00    -0.205 C  
HETATM   24  N   UNL     1      -9.357  11.412  69.467  1.00  0.00    -0.076 N  
HETATM   25  H   UNL     1      -9.661  11.806  70.358  1.00  0.00     0.000 HD 
HETATM   26  O   UNL     1      -9.389  11.590  67.183  1.00  0.00    -0.168 OA 
BRANCH  24  27
HETATM   27  C   UNL     1      -8.607  10.178  69.447  1.00  0.00    -0.174 C  
BRANCH  27  28
HETATM   28  N   UNL     1      -7.452  10.326  70.294  1.00  0.00    -0.265 N  
HETATM   29  O   UNL     1      -6.218  11.561  68.780  1.00  0.00    -0.048 OA 
HETATM   30  C   UNL     1      -6.343  11.023  69.869  1.00  0.00    -0.137 C  
HETATM   31  H   UNL     1      -7.455   9.908  71.224  1.00  0.00     0.000 HD 
ENDBRANCH  27  28
BRANCH  27  32
HETATM   32  C   UNL     1      -9.378   8.852  69.623  1.00  0.00    -0.163 C  
BRANCH  32  33
HETATM   33  C   UNL     1      -9.457   7.662  68.681  1.00  0.00    -0.151 A  
HETATM   34  C   UNL     1      -9.543   5.719  67.446  1.00  0.00    -0.115 A  
HETATM   35  H   UNL     1      -9.848   6.729  65.611  1.00  0.00     0.000 HD 
HETATM   36  C   UNL     1      -9.537   4.357  67.104  1.00  0.00    -0.221 A  
HETATM   37  C   UNL     1      -9.664   7.942  67.333  1.00  0.00    -0.161 A  
HETATM   38  C   UNL     1      -9.313   3.438  68.121  1.00  0.00    -0.240 A  
HETATM   39  N   UNL     1      -9.709   6.788  66.620  1.00  0.00    -0.173 NA 
HETATM   40  C   UNL     1      -9.099   3.876  69.427  1.00  0.00    -0.196 A  
HETATM   41  C   UNL     1      -9.122   5.249  69.756  1.00  0.00    -0.150 A  
HETATM   42  C   UNL     1      -9.355   6.214  68.752  1.00  0.00    -0.123 A  
ENDBRANCH  32  33
ENDBRANCH  27  32
ENDBRANCH  24  27
ENDBRANCH  11  23
ENDBRANCH   7  11
TORSDOF 8
ENDMDL
MODEL      360
REMARK 921   NORMALIZED FREE ENERGY PREDICTED BY IDOCK:   -4.59 KCAL/MOL
REMARK 922        TOTAL FREE ENERGY PREDICTED BY IDOCK:   -8.88 KCAL/MOL
REMARK 923 INTER-LIGAND FREE ENERGY PREDICTED BY IDOCK:   -5.62 KCAL/MOL
REMARK 924 INTRA-LIGAND FREE ENERGY PREDICTED BY IDOCK:   -3.26 KCAL/MOL
REMARK 927      BINDING AFFINITY PREDICTED BY RF-SCORE:    0.00 PKD
ROOT
HETATM    1  C   UNL     1     -11.745  11.379  68.081  1.00  0.00    -0.355 C  
HETATM    2  C   UNL     1     -10.731  12.497  67.770  1.00  0.00    -0.219 C  
HETATM    3  C   UNL     1      -9.439  11.976  66.841  1.00  0.00    -0.203 C  
HETATM    4  N   UNL     1     -10.212  13.000  69.075  1.00  0.00    -0.431 NA 
HETATM    5  C   UNL     1     -11.578  13.648  67.160  1.00  0.00    -0.392 C  
HETATM    6  H2  UNL     1      -9.824  12.260  69.662  1.00  0.00     0.000 HD 
HETATM    7  N   UNL     1      -8.328  11.455  67.514  1.00  0.00    -0.133 N  
HETATM    8  H1  UNL     1      -9.541  13.740  68.869  1.00  0.00     0.000 HD 
HETATM    9  O   UNL     1      -9.479  12.010  65.612  1.00  0.00    -0.221 OA 
HETATM   10  H   UNL     1      -8.367  11.616  68.520  1.00  0.00     0.000 HD 
ENDROOT
BRANCH   7  11
HETATM   11  C   UNL     1      -7.036  10.679  67.076  1.00  0.00    -0.100 C  
BRANCH  11  12
HETATM   12  C   UNL     1      -6.502  10.576  65.573  1.00  0.00    -0.106 C  
BRANCH  12  13
HETATM   13  C   UNL     1      -7.105   9.477  64.572  1.00  0.00    -0.107 A  
HETATM   14  C   UNL     1      -8.073   9.633  63.598  1.00  0.00    -0.151 A  
HETATM   15  C   UNL     1      -5.749   5.817  64.858  1.00  0.00    -0.024 A  
HETATM   16  C   UNL     1      -6.754   5.206  64.114  1.00  0.00    -0.046 A  
HETATM   17  C   UNL     1      -7.723   5.987  63.485  1.00  0.00    -0.097 A  
HETATM   18  N   UNL     1      -8.425   8.387  63.078  1.00  0.00    -0.399 NA 
HETATM   19  C   UNL     1      -5.740   7.215  65.054  1.00  0.00    -0.033 A  
HETATM   20  C   UNL     1      -6.749   8.039  64.487  1.00  0.00    -0.060 A  
HETATM   21  C   UNL     1      -7.672   7.397  63.661  1.00  0.00    -0.125 A  
HETATM   22  H   UNL     1      -9.140   8.234  62.367  1.00  0.00     0.000 HD 
ENDBRANCH  12  13
ENDBRANCH  11  12
BRANCH  11  23
HETATM   23  C   UNL     1      -7.035   9.332  67.848  1.00  0.00    -0.077 C  
HETATM   24  N   UNL     1      -8.259   8.747  68.104  1.00  0.00    -0.114 N  
HETATM   25  H   UNL     1      -9.102   9.126  67.672  1.00  0.00     0.000 HD 
HETATM   26  O   UNL     1      -5.978   8.865  68.282  1.00  0.00    -0.041 OA 
BRANCH  24  27
HETATM   27  C   UNL     1      -8.354   7.601  68.980  1.00  0.00    -0.128 C  
BRANCH  27  28
HETATM   28  N   UNL     1      -8.215   8.049  70.341  1.00  0.00    -0.116 N  
HETATM   29  O   UNL     1      -9.709   9.803  70.155  1.00  0.00    -0.242 OA 
HETATM   30  C   UNL     1      -8.925   9.131  70.810  1.00  0.00    -0.242 C  
HETATM   31  H   UNL     1      -7.580   7.556  70.969  1.00  0.00     0.000 HD 
ENDBRANCH  27  28
BRANCH  27  32
HETATM   32  C   UNL     1      -9.497   6.592  68.740  1.00  0.00    -0.129 C  
BRANCH  32  33
HETATM   33  C   UNL     1      -9.640   5.558  67.635  1.00  0.00    -0.133 A  
HETATM   34  C   UNL     1      -9.659   3.887  66.048  1.00  0.00    -0.182 A  
HETATM   35  H   UNL     1     -11.404   4.614  65.096  1.00  0.00     0.000 HD 
HETATM   36  C   UNL     1      -9.307   2.743  65.315  1.00  0.00    -0.097 A  
HETATM   37  C   UNL     1     -10.721   5.709  66.771  1.00  0.00    -0.284 A  
HETATM   38  C   UNL     1      -8.155   2.064  65.695  1.00  0.00    -0.084 A  
HETATM   39  N   UNL     1     -10.716   4.719  65.842  1.00  0.00    -0.281 NA 
HETATM   40  C   UNL     1      -7.390   2.526  66.764  1.00  0.00    -0.065 A  
HETATM   41  C   UNL     1      -7.766   3.672  67.498  1.00  0.00    -0.078 A  
HETATM   42  C   UNL     1      -8.934   4.383  67.150  1.00  0.00    -0.127 A  
ENDBRANCH  32  33
ENDBRANCH  27  32
ENDBRANCH  24  27
ENDBRANCH  11  23
ENDBRANCH   7  11
TORSDOF 8
ENDMDL
MODEL      361
REMARK 921   NORMALIZED FREE ENERGY PREDICTED BY IDOCK:   -4.58 KCAL/MOL
REMARK 922        TOTAL FREE ENERGY PREDICTED BY IDOCK:   -8.86 KCAL/MOL
REMARK 923 INTER-LIGAND FREE ENERGY PREDICTED BY IDOCK:   -7.25 KCAL/MOL
REMARK 924 INTRA-LIGAND FREE ENERGY PREDICTED BY IDOCK:   -1.61 KCAL/MOL
REMARK 927      BINDING AFFINITY PREDICTED BY RF-SCORE:    0.00 PKD
ROOT
HETATM    1  C   UNL     1      -9.050   2.114  66.928  1.00  0.00    -0.107 C  
HETATM    2  C   UNL     1      -8.831   3.426  66.150  1.00  0.00    -0.137 C  
HETATM    3  C   UNL     1      -8.714   4.769  67.142  1.00  0.00    -0.103 C  
HETATM    4  N   UNL     1      -9.998   3.601  65.238  1.00  0.00    -0.370 NA 
HETATM    5  C   UNL     1      -7.600   3.151  65.242  1.00  0.00    -0.080 C  
HETATM    6  H2  UNL     1     -10.894   3.571  65.727  1.00  0.00     0.000 HD 
HETATM    7  N   UNL     1      -9.903   5.425  67.483  1.00  0.00    -0.140 N  
HETATM    8  H1  UNL     1      -9.852   4.469  64.723  1.00  0.00     0.000 HD 
HETATM    9  O   UNL     1      -7.632   5.143  67.591  1.00  0.00    -0.085 OA 
HETATM   10  H   UNL     1     -10.700   5.102  66.935  1.00  0.00     0.000 HD 
ENDROOT
BRANCH   7  11
HETATM   11  C   UNL     1     -10.291   6.542  68.514  1.00  0.00    -0.192 C  
BRANCH  11  12
HETATM   12  C   UNL     1     -11.641   6.561  69.371  1.00  0.00    -0.249 C  
BRANCH  12  13
HETATM   13  C   UNL     1     -11.595   6.850  70.948  1.00  0.00    -0.384 A  
HETATM   14  C   UNL     1     -12.205   7.865  71.660  1.00  0.00    -0.308 A  
HETATM   15  C   UNL     1      -9.470   4.436  73.177  1.00  0.00    -0.139 A  
HETATM   16  C   UNL     1      -9.433   5.242  74.311  1.00  0.00    -0.139 A  
HETATM   17  C   UNL     1     -10.160   6.431  74.340  1.00  0.00    -0.367 A  
HETATM   18  N   UNL     1     -11.763   7.847  72.983  1.00  0.00    -0.614 NA 
HETATM   19  C   UNL     1     -10.172   4.841  72.022  1.00  0.00    -0.261 A  
HETATM   20  C   UNL     1     -10.869   6.078  71.988  1.00  0.00    -0.300 A  
HETATM   21  C   UNL     1     -10.894   6.801  73.181  1.00  0.00    -0.284 A  
HETATM   22  H   UNL     1     -12.045   8.514  73.700  1.00  0.00     0.000 HD 
ENDBRANCH  12  13
ENDBRANCH  11  12
BRANCH  11  23
HETATM   23  C   UNL     1      -9.930   7.904  67.862  1.00  0.00    -0.178 C  
HETATM   24  N   UNL     1      -8.714   7.992  67.212  1.00  0.00    -0.130 N  
HETATM   25  H   UNL     1      -8.161   7.150  67.057  1.00  0.00     0.000 HD 
HETATM   26  O   UNL     1     -10.673   8.879  68.005  1.00  0.00    -0.200 OA 
BRANCH  24  27
HETATM   27  C   UNL     1      -8.223   9.271  66.751  1.00  0.00    -0.115 C  
BRANCH  27  28
HETATM   28  N   UNL     1      -9.183   9.830  65.834  1.00  0.00    -0.172 N  
HETATM   29  O   UNL     1      -8.396   8.707  63.973  1.00  0.00    -0.168 OA 
HETATM   30  C   UNL     1      -9.178   9.483  64.502  1.00  0.00    -0.162 C  
HETATM   31  H   UNL     1      -9.877  10.493  66.177  1.00  0.00     0.000 HD 
ENDBRANCH  27  28
BRANCH  27  32
HETATM   32  C   UNL     1      -7.670  10.261  67.798  1.00  0.00    -0.090 C  
BRANCH  32  33
HETATM   33  C   UNL     1      -7.455  11.760  67.673  1.00  0.00    -0.123 A  
HETATM   34  C   UNL     1      -7.365  14.057  67.519  1.00  0.00    -0.170 A  
HETATM   35  H   UNL     1      -5.276  14.095  67.178  1.00  0.00     0.000 HD 
HETATM   36  C   UNL     1      -7.749  15.407  67.507  1.00  0.00    -0.205 A  
HETATM   37  C   UNL     1      -6.151  12.189  67.439  1.00  0.00    -0.143 A  
HETATM   38  C   UNL     1      -9.100  15.694  67.671  1.00  0.00    -0.193 A  
HETATM   39  N   UNL     1      -6.116  13.543  67.349  1.00  0.00    -0.336 NA 
HETATM   40  C   UNL     1     -10.020  14.660  67.833  1.00  0.00    -0.221 A  
HETATM   41  C   UNL     1      -9.614  13.308  67.855  1.00  0.00    -0.217 A  
HETATM   42  C   UNL     1      -8.250  12.977  67.702  1.00  0.00    -0.171 A  
ENDBRANCH  32  33
ENDBRANCH  27  32
ENDBRANCH  24  27
ENDBRANCH  11  23
ENDBRANCH   7  11
TORSDOF 8
ENDMDL
MODEL      362
REMARK 921   NORMALIZED FREE ENERGY PREDICTED BY IDOCK:   -4.57 KCAL/MOL
REMARK 922        TOTAL FREE ENERGY PREDICTED BY IDOCK:   -8.86 KCAL/MOL
REMARK 923 INTER-LIGAND FREE ENERGY PREDICTED BY IDOCK:   -7.38 KCAL/MOL
REMARK 924 INTRA-LIGAND FREE ENERGY PREDICTED BY IDOCK:   -1.47 KCAL/MOL
REMARK 927      BINDING AFFINITY PREDICTED BY RF-SCORE:    0.00 PKD
ROOT
HETATM    1  C   UNL     1      -7.988   2.962  69.385  1.00  0.00    -0.055 C  
HETATM    2  C   UNL     1      -8.565   3.866  70.491  1.00  0.00    -0.070 C  
HETATM    3  C   UNL     1      -9.332   5.230  69.895  1.00  0.00    -0.141 C  
HETATM    4  N   UNL     1      -7.426   4.294  71.353  1.00  0.00    -0.058 NA 
HETATM    5  C   UNL     1      -9.445   2.925  71.360  1.00  0.00    -0.216 C  
HETATM    6  H2  UNL     1      -6.672   4.738  70.827  1.00  0.00     0.000 HD 
HETATM    7  N   UNL     1      -8.548   6.368  69.676  1.00  0.00    -0.133 N  
HETATM    8  H1  UNL     1      -7.808   4.893  72.086  1.00  0.00     0.000 HD 
HETATM    9  O   UNL     1     -10.531   5.222  69.619  1.00  0.00    -0.281 OA 
HETATM   10  H   UNL     1      -7.614   6.284  70.076  1.00  0.00     0.000 HD 
ENDROOT
BRANCH   7  11
HETATM   11  C   UNL     1      -8.775   7.744  68.956  1.00  0.00    -0.135 C  
BRANCH  11  12
HETATM   12  C   UNL     1      -7.620   8.620  68.281  1.00  0.00    -0.097 C  
BRANCH  12  13
HETATM   13  C   UNL     1      -7.322  10.107  68.802  1.00  0.00    -0.084 A  
HETATM   14  C   UNL     1      -6.676  10.506  69.957  1.00  0.00    -0.151 A  
HETATM   15  C   UNL     1      -8.575  13.090  66.601  1.00  0.00     0.027 A  
HETATM   16  C   UNL     1      -8.431  14.084  67.566  1.00  0.00    -0.201 A  
HETATM   17  C   UNL     1      -7.855  13.775  68.797  1.00  0.00    -0.059 A  
HETATM   18  N   UNL     1      -6.787  11.888  70.107  1.00  0.00    -0.405 NA 
HETATM   19  C   UNL     1      -8.217  11.754  66.879  1.00  0.00    -0.166 A  
HETATM   20  C   UNL     1      -7.690  11.386  68.145  1.00  0.00    -0.118 A  
HETATM   21  C   UNL     1      -7.463  12.431  69.041  1.00  0.00     0.075 A  
HETATM   22  H   UNL     1      -6.419  12.419  70.896  1.00  0.00     0.000 HD 
ENDBRANCH  12  13
ENDBRANCH  11  12
BRANCH  11  23
HETATM   23  C   UNL     1      -9.761   8.557  69.836  1.00  0.00    -0.179 C  
HETATM   24  N   UNL     1     -11.086   8.585  69.444  1.00  0.00    -0.432 N  
HETATM   25  H   UNL     1     -11.403   7.976  68.690  1.00  0.00     0.000 HD 
HETATM   26  O   UNL     1      -9.343   9.216  70.793  1.00  0.00    -0.223 OA 
BRANCH  24  27
HETATM   27  C   UNL     1     -12.022   9.471  70.095  1.00  0.00     0.092 C  
BRANCH  27  28
HETATM   28  N   UNL     1     -12.028   9.180  71.506  1.00  0.00    -0.328 N  
HETATM   29  O   UNL     1     -13.013   7.100  71.303  1.00  0.00    -0.383 OA 
HETATM   30  C   UNL     1     -12.533   7.993  71.984  1.00  0.00    -0.320 C  
HETATM   31  H   UNL     1     -11.652   9.866  72.160  1.00  0.00     0.000 HD 
ENDBRANCH  27  28
BRANCH  27  32
HETATM   32  C   UNL     1     -11.973  10.973  69.740  1.00  0.00    -0.428 C  
BRANCH  32  33
HETATM   33  C   UNL     1     -12.414  12.165  70.574  1.00  0.00    -0.282 A  
HETATM   34  C   UNL     1     -12.927  14.102  71.711  1.00  0.00    -0.348 A  
HETATM   35  H   UNL     1     -14.352  13.161  72.961  1.00  0.00     0.000 HD 
HETATM   36  C   UNL     1     -12.935  15.447  72.115  1.00  0.00    -0.480 A  
HETATM   37  C   UNL     1     -13.386  11.927  71.543  1.00  0.00    -0.033 A  
HETATM   38  C   UNL     1     -12.052  16.315  71.483  1.00  0.00    -0.294 A  
HETATM   39  N   UNL     1     -13.674  13.077  72.204  1.00  0.00    -0.501 NA 
HETATM   40  C   UNL     1     -11.195  15.842  70.491  1.00  0.00    -0.392 A  
HETATM   41  C   UNL     1     -11.209  14.489  70.089  1.00  0.00    -0.196 A  
HETATM   42  C   UNL     1     -12.098  13.578  70.700  1.00  0.00    -0.386 A  
ENDBRANCH  32  33
ENDBRANCH  27  32
ENDBRANCH  24  27
ENDBRANCH  11  23
ENDBRANCH   7  11
TORSDOF 8
ENDMDL
MODEL      363
REMARK 921   NORMALIZED FREE ENERGY PREDICTED BY IDOCK:   -4.57 KCAL/MOL
REMARK 922        TOTAL FREE ENERGY PREDICTED BY IDOCK:   -8.85 KCAL/MOL
REMARK 923 INTER-LIGAND FREE ENERGY PREDICTED BY IDOCK:   -7.79 KCAL/MOL
REMARK 924 INTRA-LIGAND FREE ENERGY PREDICTED BY IDOCK:   -1.06 KCAL/MOL
REMARK 927      BINDING AFFINITY PREDICTED BY RF-SCORE:    0.00 PKD
ROOT
HETATM    1  C   UNL     1      -8.550   2.776  65.508  1.00  0.00    -0.110 C  
HETATM    2  C   UNL     1      -8.886   4.226  65.109  1.00  0.00    -0.134 C  
HETATM    3  C   UNL     1      -8.255   5.363  66.163  1.00  0.00    -0.111 C  
HETATM    4  N   UNL     1     -10.373   4.350  65.102  1.00  0.00    -0.423 NA 
HETATM    5  C   UNL     1      -8.426   4.351  63.630  1.00  0.00    -0.110 C  
HETATM    6  H2  UNL     1     -10.801   4.069  65.985  1.00  0.00     0.000 HD 
HETATM    7  N   UNL     1      -9.033   5.719  67.271  1.00  0.00    -0.113 N  
HETATM    8  H1  UNL     1     -10.595   5.310  64.837  1.00  0.00     0.000 HD 
HETATM    9  O   UNL     1      -7.133   5.839  65.996  1.00  0.00    -0.068 OA 
HETATM   10  H   UNL     1      -9.987   5.363  67.212  1.00  0.00     0.000 HD 
ENDROOT
BRANCH   7  11
HETATM   11  C   UNL     1      -8.775   6.539  68.584  1.00  0.00    -0.123 C  
BRANCH  11  12
HETATM   12  C   UNL     1      -7.867   6.044  69.803  1.00  0.00    -0.101 C  
BRANCH  12  13
HETATM   13  C   UNL     1      -8.213   4.677  70.568  1.00  0.00    -0.085 A  
HETATM   14  C   UNL     1      -7.583   3.451  70.474  1.00  0.00    -0.040 A  
HETATM   15  C   UNL     1     -11.252   4.692  73.033  1.00  0.00    -0.312 A  
HETATM   16  C   UNL     1     -11.379   3.311  73.152  1.00  0.00    -0.047 A  
HETATM   17  C   UNL     1     -10.444   2.474  72.543  1.00  0.00    -0.168 A  
HETATM   18  N   UNL     1      -8.311   2.491  71.177  1.00  0.00    -0.056 NA 
HETATM   19  C   UNL     1     -10.234   5.260  72.237  1.00  0.00    -0.250 A  
HETATM   20  C   UNL     1      -9.304   4.440  71.545  1.00  0.00    -0.203 A  
HETATM   21  C   UNL     1      -9.403   3.067  71.781  1.00  0.00    -0.126 A  
HETATM   22  H   UNL     1      -8.068   1.502  71.234  1.00  0.00     0.000 HD 
ENDBRANCH  12  13
ENDBRANCH  11  12
BRANCH  11  23
HETATM   23  C   UNL     1     -10.137   7.151  69.009  1.00  0.00    -0.183 C  
HETATM   24  N   UNL     1     -10.106   8.336  69.718  1.00  0.00    -0.193 N  
HETATM   25  H   UNL     1      -9.226   8.841  69.821  1.00  0.00     0.000 HD 
HETATM   26  O   UNL     1     -11.188   6.543  68.788  1.00  0.00    -0.293 OA 
BRANCH  24  27
HETATM   27  C   UNL     1     -11.311   8.864  70.313  1.00  0.00    -0.159 C  
BRANCH  27  28
HETATM   28  N   UNL     1     -11.314   8.537  71.716  1.00  0.00    -0.285 N  
HETATM   29  O   UNL     1      -9.078   9.008  72.062  1.00  0.00    -0.375 OA 
HETATM   30  C   UNL     1     -10.170   8.646  72.473  1.00  0.00    -0.168 C  
HETATM   31  H   UNL     1     -12.178   8.219  72.155  1.00  0.00     0.000 HD 
ENDBRANCH  27  28
BRANCH  27  32
HETATM   32  C   UNL     1     -11.712  10.318  69.983  1.00  0.00    -0.330 C  
BRANCH  32  33
HETATM   33  C   UNL     1     -12.476  11.314  70.840  1.00  0.00    -0.493 A  
HETATM   34  C   UNL     1     -13.515  12.998  72.021  1.00  0.00    -0.492 A  
HETATM   35  H   UNL     1     -14.671  11.661  73.187  1.00  0.00     0.000 HD 
HETATM   36  C   UNL     1     -13.892  14.274  72.469  1.00  0.00    -0.575 A  
HETATM   37  C   UNL     1     -13.374  10.788  71.764  1.00  0.00    -0.326 A  
HETATM   38  C   UNL     1     -13.256  15.370  71.899  1.00  0.00    -0.534 A  
HETATM   39  N   UNL     1     -13.976  11.792  72.453  1.00  0.00     0.339 NA 
HETATM   40  C   UNL     1     -12.278  15.184  70.923  1.00  0.00    -0.398 A  
HETATM   41  C   UNL     1     -11.921  13.893  70.476  1.00  0.00    -0.384 A  
HETATM   42  C   UNL     1     -12.551  12.755  71.023  1.00  0.00    -0.362 A  
ENDBRANCH  32  33
ENDBRANCH  27  32
ENDBRANCH  24  27
ENDBRANCH  11  23
ENDBRANCH   7  11
TORSDOF 8
ENDMDL
MODEL      364
REMARK 921   NORMALIZED FREE ENERGY PREDICTED BY IDOCK:   -4.52 KCAL/MOL
REMARK 922        TOTAL FREE ENERGY PREDICTED BY IDOCK:   -8.77 KCAL/MOL
REMARK 923 INTER-LIGAND FREE ENERGY PREDICTED BY IDOCK:   -7.17 KCAL/MOL
REMARK 924 INTRA-LIGAND FREE ENERGY PREDICTED BY IDOCK:   -1.60 KCAL/MOL
REMARK 927      BINDING AFFINITY PREDICTED BY RF-SCORE:    0.00 PKD
ROOT
HETATM    1  C   UNL     1      -7.481   7.307  65.003  1.00  0.00    -0.089 C  
HETATM    2  C   UNL     1      -7.086   8.793  64.891  1.00  0.00    -0.077 C  
HETATM    3  C   UNL     1      -8.017   9.796  65.855  1.00  0.00    -0.111 C  
HETATM    4  N   UNL     1      -7.267   9.193  63.465  1.00  0.00    -0.092 NA 
HETATM    5  C   UNL     1      -5.557   8.822  65.166  1.00  0.00    -0.047 C  
HETATM    6  H2  UNL     1      -8.206   9.002  63.113  1.00  0.00     0.000 HD 
HETATM    7  N   UNL     1      -9.205  10.296  65.310  1.00  0.00    -0.183 N  
HETATM    8  H1  UNL     1      -7.006  10.176  63.392  1.00  0.00     0.000 HD 
HETATM    9  O   UNL     1      -7.692  10.053  67.014  1.00  0.00    -0.095 OA 
HETATM   10  H   UNL     1      -9.279  10.125  64.308  1.00  0.00     0.000 HD 
ENDROOT
BRANCH   7  11
HETATM   11  C   UNL     1     -10.449  11.060  65.887  1.00  0.00    -0.240 C  
BRANCH  11  12
HETATM   12  C   UNL     1     -10.625  12.650  65.879  1.00  0.00    -0.297 C  
BRANCH  12  13
HETATM   13  C   UNL     1      -9.565  13.585  66.636  1.00  0.00    -0.282 A  
HETATM   14  C   UNL     1      -8.244  13.320  66.947  1.00  0.00     0.047 A  
HETATM   15  C   UNL     1     -10.777  17.106  67.837  1.00  0.00    -0.355 A  
HETATM   16  C   UNL     1      -9.713  17.368  68.695  1.00  0.00    -0.308 A  
HETATM   17  C   UNL     1      -8.640  16.480  68.758  1.00  0.00    -0.262 A  
HETATM   18  N   UNL     1      -7.737  14.334  67.759  1.00  0.00    -0.146 NA 
HETATM   19  C   UNL     1     -10.826  15.913  67.086  1.00  0.00    -0.267 A  
HETATM   20  C   UNL     1      -9.786  14.950  67.174  1.00  0.00    -0.229 A  
HETATM   21  C   UNL     1      -8.689  15.304  67.962  1.00  0.00    -0.160 A  
HETATM   22  H   UNL     1      -6.794  14.353  68.146  1.00  0.00     0.000 HD 
ENDBRANCH  12  13
ENDBRANCH  11  12
BRANCH  11  23
HETATM   23  C   UNL     1     -10.808  10.384  67.237  1.00  0.00    -0.264 C  
HETATM   24  N   UNL     1     -10.714  11.158  68.378  1.00  0.00    -0.185 N  
HETATM   25  H   UNL     1     -10.554  12.162  68.297  1.00  0.00     0.000 HD 
HETATM   26  O   UNL     1     -11.079   9.180  67.278  1.00  0.00    -0.030 OA 
BRANCH  24  27
HETATM   27  C   UNL     1     -10.843  10.553  69.684  1.00  0.00    -0.274 C  
BRANCH  27  28
HETATM   28  N   UNL     1     -12.143   9.942  69.783  1.00  0.00    -0.460 N  
HETATM   29  O   UNL     1     -12.483  10.495  72.001  1.00  0.00    -0.260 OA 
HETATM   30  C   UNL     1     -12.856   9.976  70.960  1.00  0.00    -0.365 C  
HETATM   31  H   UNL     1     -12.542   9.477  68.968  1.00  0.00     0.000 HD 
ENDBRANCH  27  28
BRANCH  27  32
HETATM   32  C   UNL     1      -9.675   9.688  70.205  1.00  0.00    -0.314 C  
BRANCH  32  33
HETATM   33  C   UNL     1      -9.609   8.180  70.377  1.00  0.00    -0.171 A  
HETATM   34  C   UNL     1      -9.668   5.918  70.816  1.00  0.00    -0.172 A  
HETATM   35  H   UNL     1      -8.275   5.442  69.294  1.00  0.00     0.000 HD 
HETATM   36  C   UNL     1     -10.001   4.681  71.390  1.00  0.00    -0.267 A  
HETATM   37  C   UNL     1      -8.764   7.487  69.514  1.00  0.00    -0.137 A  
HETATM   38  C   UNL     1     -10.885   4.686  72.463  1.00  0.00    -0.180 A  
HETATM   39  N   UNL     1      -8.809   6.157  69.787  1.00  0.00    -0.134 NA 
HETATM   40  C   UNL     1     -11.404   5.890  72.937  1.00  0.00    -0.266 A  
HETATM   41  C   UNL     1     -11.068   7.124  72.338  1.00  0.00    -0.302 A  
HETATM   42  C   UNL     1     -10.181   7.160  71.241  1.00  0.00    -0.199 A  
ENDBRANCH  32  33
ENDBRANCH  27  32
ENDBRANCH  24  27
ENDBRANCH  11  23
ENDBRANCH   7  11
TORSDOF 8
ENDMDL
MODEL      365
REMARK 921   NORMALIZED FREE ENERGY PREDICTED BY IDOCK:   -4.49 KCAL/MOL
REMARK 922        TOTAL FREE ENERGY PREDICTED BY IDOCK:   -8.74 KCAL/MOL
REMARK 923 INTER-LIGAND FREE ENERGY PREDICTED BY IDOCK:   -5.71 KCAL/MOL
REMARK 924 INTRA-LIGAND FREE ENERGY PREDICTED BY IDOCK:   -3.03 KCAL/MOL
REMARK 927      BINDING AFFINITY PREDICTED BY RF-SCORE:    0.00 PKD
ROOT
HETATM    1  C   UNL     1      -9.330  12.004  64.736  1.00  0.00     0.205 C  
HETATM    2  C   UNL     1     -10.630  11.180  64.678  1.00  0.00    -0.318 C  
HETATM    3  C   UNL     1     -10.958  10.364  66.102  1.00  0.00     0.195 C  
HETATM    4  N   UNL     1     -10.475  10.185  63.578  1.00  0.00    -0.096 NA 
HETATM    5  C   UNL     1     -11.720  12.185  64.212  1.00  0.00    -0.451 C  
HETATM    6  H2  UNL     1      -9.640   9.606  63.678  1.00  0.00     0.000 HD 
HETATM    7  N   UNL     1     -10.411   9.085  66.254  1.00  0.00    -0.275 N  
HETATM    8  H1  UNL     1     -11.336   9.639  63.540  1.00  0.00     0.000 HD 
HETATM    9  O   UNL     1     -11.619  10.883  67.001  1.00  0.00    -0.383 OA 
HETATM   10  H   UNL     1     -10.011   8.723  65.388  1.00  0.00     0.000 HD 
ENDROOT
BRANCH   7  11
HETATM   11  C   UNL     1     -10.271   8.078  67.450  1.00  0.00    -0.261 C  
BRANCH  11  12
HETATM   12  C   UNL     1      -9.408   8.346  68.769  1.00  0.00    -0.143 C  
BRANCH  12  13
HETATM   13  C   UNL     1     -10.095   8.267  70.216  1.00  0.00    -0.195 A  
HETATM   14  C   UNL     1     -10.512   9.302  71.033  1.00  0.00    -0.314 A  
HETATM   15  C   UNL     1     -10.694   4.720  71.755  1.00  0.00    -0.045 A  
HETATM   16  C   UNL     1     -10.940   5.141  73.059  1.00  0.00    -0.355 A  
HETATM   17  C   UNL     1     -11.009   6.504  73.346  1.00  0.00    -0.175 A  
HETATM   18  N   UNL     1     -10.895   8.797  72.276  1.00  0.00    -0.324 NA 
HETATM   19  C   UNL     1     -10.433   5.653  70.730  1.00  0.00    -0.335 A  
HETATM   20  C   UNL     1     -10.426   7.048  70.995  1.00  0.00    -0.231 A  
HETATM   21  C   UNL     1     -10.784   7.428  72.290  1.00  0.00    -0.235 A  
HETATM   22  H   UNL     1     -11.213   9.364  73.061  1.00  0.00     0.000 HD 
ENDBRANCH  12  13
ENDBRANCH  11  12
BRANCH  11  23
HETATM   23  C   UNL     1     -10.074   6.667  66.832  1.00  0.00    -0.195 C  
HETATM   24  N   UNL     1      -9.066   6.520  65.900  1.00  0.00    -0.325 N  
HETATM   25  H   UNL     1      -8.403   7.279  65.745  1.00  0.00     0.000 HD 
HETATM   26  O   UNL     1     -10.852   5.751  67.113  1.00  0.00    -0.280 OA 
BRANCH  24  27
HETATM   27  C   UNL     1      -8.945   5.296  65.142  1.00  0.00    -0.101 C  
BRANCH  27  28
HETATM   28  N   UNL     1      -8.619   5.628  63.779  1.00  0.00    -0.334 N  
HETATM   29  O   UNL     1      -6.845   7.013  64.303  1.00  0.00    -0.044 OA 
HETATM   30  C   UNL     1      -7.573   6.473  63.484  1.00  0.00    -0.092 C  
HETATM   31  H   UNL     1      -9.171   5.230  63.020  1.00  0.00     0.000 HD 
ENDBRANCH  27  28
BRANCH  27  32
HETATM   32  C   UNL     1      -8.117   4.142  65.747  1.00  0.00    -0.101 C  
BRANCH  32  33
HETATM   33  C   UNL     1      -7.888   3.797  67.209  1.00  0.00    -0.079 A  
HETATM   34  C   UNL     1      -7.480   3.505  69.458  1.00  0.00    -0.048 A  
HETATM   35  H   UNL     1      -7.963   1.444  69.424  1.00  0.00     0.000 HD 
HETATM   36  C   UNL     1      -7.145   3.767  70.796  1.00  0.00    -0.033 A  
HETATM   37  C   UNL     1      -8.117   2.476  67.585  1.00  0.00    -0.068 A  
HETATM   38  C   UNL     1      -6.741   5.057  71.118  1.00  0.00    -0.039 A  
HETATM   39  N   UNL     1      -7.870   2.321  68.911  1.00  0.00    -0.049 NA 
HETATM   40  C   UNL     1      -6.672   6.037  70.128  1.00  0.00    -0.052 A  
HETATM   41  C   UNL     1      -7.025   5.758  68.790  1.00  0.00    -0.068 A  
HETATM   42  C   UNL     1      -7.451   4.462  68.425  1.00  0.00    -0.064 A  
ENDBRANCH  32  33
ENDBRANCH  27  32
ENDBRANCH  24  27
ENDBRANCH  11  23
ENDBRANCH   7  11
TORSDOF 8
ENDMDL
MODEL      366
REMARK 921   NORMALIZED FREE ENERGY PREDICTED BY IDOCK:   -4.43 KCAL/MOL
REMARK 922        TOTAL FREE ENERGY PREDICTED BY IDOCK:   -8.64 KCAL/MOL
REMARK 923 INTER-LIGAND FREE ENERGY PREDICTED BY IDOCK:   -7.22 KCAL/MOL
REMARK 924 INTRA-LIGAND FREE ENERGY PREDICTED BY IDOCK:   -1.42 KCAL/MOL
REMARK 927      BINDING AFFINITY PREDICTED BY RF-SCORE:    0.00 PKD
ROOT
HETATM    1  C   UNL     1     -13.890   9.455  70.699  1.00  0.00     0.365 C  
HETATM    2  C   UNL     1     -12.658  10.251  71.172  1.00  0.00    -0.400 C  
HETATM    3  C   UNL     1     -11.616  10.655  69.925  1.00  0.00    -0.316 C  
HETATM    4  N   UNL     1     -11.928   9.395  72.151  1.00  0.00    -0.269 NA 
HETATM    5  C   UNL     1     -13.239  11.446  71.978  1.00  0.00    -0.432 C  
HETATM    6  H2  UNL     1     -11.690   8.475  71.778  1.00  0.00     0.000 HD 
HETATM    7  N   UNL     1     -10.620   9.730  69.591  1.00  0.00    -0.224 N  
HETATM    8  H1  UNL     1     -11.112   9.922  72.464  1.00  0.00     0.000 HD 
HETATM    9  O   UNL     1     -11.745  11.705  69.297  1.00  0.00    -0.275 OA 
HETATM   10  H   UNL     1     -10.536   8.979  70.275  1.00  0.00     0.000 HD 
ENDROOT
BRANCH   7  11
HETATM   11  C   UNL     1      -9.601   9.585  68.406  1.00  0.00    -0.142 C  
BRANCH  11  12
HETATM   12  C   UNL     1      -9.923   9.939  66.880  1.00  0.00    -0.268 C  
BRANCH  12  13
HETATM   13  C   UNL     1      -9.878  11.460  66.375  1.00  0.00    -0.242 A  
HETATM   14  C   UNL     1      -9.069  12.493  66.811  1.00  0.00    -0.214 A  
HETATM   15  C   UNL     1     -12.375  12.514  63.553  1.00  0.00    -0.623 A  
HETATM   16  C   UNL     1     -12.232  13.890  63.706  1.00  0.00    -0.310 A  
HETATM   17  C   UNL     1     -11.291  14.393  64.603  1.00  0.00    -0.373 A  
HETATM   18  N   UNL     1      -9.477  13.692  66.226  1.00  0.00    -0.430 NA 
HETATM   19  C   UNL     1     -11.635  11.615  64.350  1.00  0.00    -0.270 A  
HETATM   20  C   UNL     1     -10.715  12.089  65.323  1.00  0.00    -0.331 A  
HETATM   21  C   UNL     1     -10.526  13.471  65.366  1.00  0.00    -0.315 A  
HETATM   22  H   UNL     1      -9.057  14.602  66.411  1.00  0.00     0.000 HD 
ENDBRANCH  12  13
ENDBRANCH  11  12
BRANCH  11  23
HETATM   23  C   UNL     1      -8.865   8.233  68.607  1.00  0.00    -0.133 C  
HETATM   24  N   UNL     1      -9.638   7.089  68.635  1.00  0.00    -0.138 N  
HETATM   25  H   UNL     1     -10.626   7.139  68.390  1.00  0.00     0.000 HD 
HETATM   26  O   UNL     1      -7.649   8.212  68.818  1.00  0.00    -0.100 OA 
BRANCH  24  27
HETATM   27  C   UNL     1      -9.054   5.821  69.009  1.00  0.00    -0.116 C  
BRANCH  27  28
HETATM   28  N   UNL     1      -8.855   5.808  70.435  1.00  0.00    -0.140 N  
HETATM   29  O   UNL     1      -6.958   4.489  70.385  1.00  0.00    -0.039 OA 
HETATM   30  C   UNL     1      -7.799   5.129  70.999  1.00  0.00    -0.097 C  
HETATM   31  H   UNL     1      -9.507   6.310  71.037  1.00  0.00     0.000 HD 
ENDBRANCH  27  28
BRANCH  27  32
HETATM   32  C   UNL     1      -9.673   4.532  68.426  1.00  0.00    -0.188 C  
BRANCH  32  33
HETATM   33  C   UNL     1      -9.228   3.721  67.221  1.00  0.00    -0.208 A  
HETATM   34  C   UNL     1      -8.724   2.604  65.269  1.00  0.00    -0.115 A  
HETATM   35  H   UNL     1      -7.162   1.478  66.148  1.00  0.00     0.000 HD 
HETATM   36  C   UNL     1      -8.750   2.187  63.929  1.00  0.00    -0.090 A  
HETATM   37  C   UNL     1      -8.174   2.832  67.418  1.00  0.00    -0.082 A  
HETATM   38  C   UNL     1      -9.720   2.739  63.101  1.00  0.00    -0.096 A  
HETATM   39  N   UNL     1      -7.892   2.182  66.260  1.00  0.00    -0.075 NA 
HETATM   40  C   UNL     1     -10.628   3.668  63.608  1.00  0.00    -0.279 A  
HETATM   41  C   UNL     1     -10.579   4.086  64.955  1.00  0.00    -0.148 A  
HETATM   42  C   UNL     1      -9.602   3.556  65.826  1.00  0.00    -0.109 A  
ENDBRANCH  32  33
ENDBRANCH  27  32
ENDBRANCH  24  27
ENDBRANCH  11  23
ENDBRANCH   7  11
TORSDOF 8
ENDMDL
MODEL      367
REMARK 921   NORMALIZED FREE ENERGY PREDICTED BY IDOCK:   -4.42 KCAL/MOL
REMARK 922        TOTAL FREE ENERGY PREDICTED BY IDOCK:   -8.62 KCAL/MOL
REMARK 923 INTER-LIGAND FREE ENERGY PREDICTED BY IDOCK:   -7.27 KCAL/MOL
REMARK 924 INTRA-LIGAND FREE ENERGY PREDICTED BY IDOCK:   -1.36 KCAL/MOL
REMARK 927      BINDING AFFINITY PREDICTED BY RF-SCORE:    0.00 PKD
ROOT
HETATM    1  C   UNL     1     -11.830  12.539  64.786  1.00  0.00    -0.440 C  
HETATM    2  C   UNL     1     -11.933  13.998  65.271  1.00  0.00    -0.379 C  
HETATM    3  C   UNL     1     -10.588  14.503  66.131  1.00  0.00    -0.306 C  
HETATM    4  N   UNL     1     -13.131  14.087  66.155  1.00  0.00    -0.368 NA 
HETATM    5  C   UNL     1     -12.264  14.821  63.995  1.00  0.00    -0.185 C  
HETATM    6  H2  UNL     1     -13.113  13.412  66.921  1.00  0.00     0.000 HD 
HETATM    7  N   UNL     1     -10.582  14.274  67.512  1.00  0.00    -0.260 N  
HETATM    8  H1  UNL     1     -13.198  15.053  66.476  1.00  0.00     0.000 HD 
HETATM    9  O   UNL     1      -9.623  15.018  65.569  1.00  0.00    -0.313 OA 
HETATM   10  H   UNL     1     -11.490  13.975  67.865  1.00  0.00     0.000 HD 
ENDROOT
BRANCH   7  11
HETATM   11  C   UNL     1      -9.497  14.371  68.643  1.00  0.00    -0.193 C  
BRANCH  11  12
HETATM   12  C   UNL     1      -8.986  15.738  69.298  1.00  0.00    -0.266 C  
BRANCH  12  13
HETATM   13  C   UNL     1      -9.335  17.145  68.613  1.00  0.00    -0.269 A  
HETATM   14  C   UNL     1     -10.544  17.583  68.105  1.00  0.00    -0.366 A  
HETATM   15  C   UNL     1      -6.446  19.758  68.248  1.00  0.00    -0.291 A  
HETATM   16  C   UNL     1      -7.087  20.592  67.336  1.00  0.00    -0.399 A  
HETATM   17  C   UNL     1      -8.412  20.342  66.981  1.00  0.00    -0.355 A  
HETATM   18  N   UNL     1     -10.366  18.799  67.445  1.00  0.00    -0.394 NA 
HETATM   19  C   UNL     1      -7.092  18.613  68.761  1.00  0.00    -0.326 A  
HETATM   20  C   UNL     1      -8.418  18.286  68.371  1.00  0.00    -0.319 A  
HETATM   21  C   UNL     1      -9.058  19.207  67.541  1.00  0.00    -0.294 A  
HETATM   22  H   UNL     1     -11.102  19.311  66.960  1.00  0.00     0.000 HD 
ENDBRANCH  12  13
ENDBRANCH  11  12
BRANCH  11  23
HETATM   23  C   UNL     1      -8.364  13.379  68.268  1.00  0.00    -0.160 C  
HETATM   24  N   UNL     1      -8.739  12.125  67.827  1.00  0.00    -0.162 N  
HETATM   25  H   UNL     1      -9.720  11.931  67.628  1.00  0.00     0.000 HD 
HETATM   26  O   UNL     1      -7.182  13.688  68.447  1.00  0.00    -0.091 OA 
BRANCH  24  27
HETATM   27  C   UNL     1      -7.750  11.088  67.645  1.00  0.00    -0.112 C  
BRANCH  27  28
HETATM   28  N   UNL     1      -6.743  11.565  66.733  1.00  0.00    -0.238 N  
HETATM   29  O   UNL     1      -6.854   9.750  65.306  1.00  0.00    -0.091 OA 
HETATM   30  C   UNL     1      -6.386  10.833  65.623  1.00  0.00    -0.059 C  
HETATM   31  H   UNL     1      -6.288  12.459  66.911  1.00  0.00     0.000 HD 
ENDBRANCH  27  28
BRANCH  27  32
HETATM   32  C   UNL     1      -7.205  10.372  68.900  1.00  0.00    -0.082 C  
BRANCH  32  33
HETATM   33  C   UNL     1      -6.798   8.917  69.067  1.00  0.00    -0.059 A  
HETATM   34  C   UNL     1      -6.349   6.659  69.155  1.00  0.00    -0.035 A  
HETATM   35  H   UNL     1      -4.831   6.872  70.615  1.00  0.00     0.000 HD 
HETATM   36  C   UNL     1      -6.397   5.280  68.894  1.00  0.00    -0.035 A  
HETATM   37  C   UNL     1      -5.781   8.651  69.980  1.00  0.00    -0.027 A  
HETATM   38  C   UNL     1      -7.347   4.829  67.985  1.00  0.00    -0.070 A  
HETATM   39  N   UNL     1      -5.531   7.317  70.021  1.00  0.00    -0.023 NA 
HETATM   40  C   UNL     1      -8.213   5.733  67.371  1.00  0.00    -0.102 A  
HETATM   41  C   UNL     1      -8.141   7.117  67.635  1.00  0.00    -0.114 A  
HETATM   42  C   UNL     1      -7.184   7.616  68.546  1.00  0.00    -0.086 A  
ENDBRANCH  32  33
ENDBRANCH  27  32
ENDBRANCH  24  27
ENDBRANCH  11  23
ENDBRANCH   7  11
TORSDOF 8
ENDMDL
MODEL      368
REMARK 921   NORMALIZED FREE ENERGY PREDICTED BY IDOCK:   -4.39 KCAL/MOL
REMARK 922        TOTAL FREE ENERGY PREDICTED BY IDOCK:   -8.59 KCAL/MOL
REMARK 923 INTER-LIGAND FREE ENERGY PREDICTED BY IDOCK:   -6.28 KCAL/MOL
REMARK 924 INTRA-LIGAND FREE ENERGY PREDICTED BY IDOCK:   -2.31 KCAL/MOL
REMARK 927      BINDING AFFINITY PREDICTED BY RF-SCORE:    0.00 PKD
ROOT
HETATM    1  C   UNL     1      -6.235   9.128  71.600  1.00  0.00    -0.056 C  
HETATM    2  C   UNL     1      -7.423   8.164  71.421  1.00  0.00    -0.078 C  
HETATM    3  C   UNL     1      -7.852   7.937  69.819  1.00  0.00    -0.104 C  
HETATM    4  N   UNL     1      -8.584   8.751  72.151  1.00  0.00    -0.391 NA 
HETATM    5  C   UNL     1      -7.018   6.880  72.197  1.00  0.00    -0.066 C  
HETATM    6  H2  UNL     1      -8.797   9.705  71.860  1.00  0.00     0.000 HD 
HETATM    7  N   UNL     1      -8.775   8.831  69.264  1.00  0.00    -0.134 N  
HETATM    8  H1  UNL     1      -9.370   8.112  72.032  1.00  0.00     0.000 HD 
HETATM    9  O   UNL     1      -7.345   7.045  69.139  1.00  0.00    -0.087 OA 
HETATM   10  H   UNL     1      -9.218   9.424  69.966  1.00  0.00     0.000 HD 
ENDROOT
BRANCH   7  11
HETATM   11  C   UNL     1      -9.286   9.131  67.811  1.00  0.00    -0.136 C  
BRANCH  11  12
HETATM   12  C   UNL     1     -10.047  10.468  67.372  1.00  0.00    -0.236 C  
BRANCH  12  13
HETATM   13  C   UNL     1      -9.264  11.867  67.329  1.00  0.00    -0.179 A  
HETATM   14  C   UNL     1      -9.581  13.014  66.625  1.00  0.00    -0.259 A  
HETATM   15  C   UNL     1      -5.985  12.184  69.439  1.00  0.00    -0.095 A  
HETATM   16  C   UNL     1      -5.507  13.343  68.835  1.00  0.00    -0.073 A  
HETATM   17  C   UNL     1      -6.289  14.005  67.889  1.00  0.00    -0.169 A  
HETATM   18  N   UNL     1      -8.543  13.938  66.735  1.00  0.00    -0.433 NA 
HETATM   19  C   UNL     1      -7.219  11.620  69.051  1.00  0.00    -0.094 A  
HETATM   20  C   UNL     1      -8.014  12.226  68.042  1.00  0.00    -0.150 A  
HETATM   21  C   UNL     1      -7.547  13.443  67.542  1.00  0.00    -0.169 A  
HETATM   22  H   UNL     1      -8.524  14.850  66.280  1.00  0.00     0.000 HD 
ENDBRANCH  12  13
ENDBRANCH  11  12
BRANCH  11  23
HETATM   23  C   UNL     1      -9.934   7.824  67.281  1.00  0.00    -0.212 C  
HETATM   24  N   UNL     1      -9.083   6.814  66.877  1.00  0.00    -0.132 N  
HETATM   25  H   UNL     1      -8.083   6.890  67.061  1.00  0.00     0.000 HD 
HETATM   26  O   UNL     1     -11.159   7.744  67.153  1.00  0.00    -0.135 OA 
BRANCH  24  27
HETATM   27  C   UNL     1      -9.602   5.650  66.196  1.00  0.00    -0.120 C  
BRANCH  27  28
HETATM   28  N   UNL     1      -8.892   5.489  64.953  1.00  0.00    -0.326 N  
HETATM   29  O   UNL     1      -6.780   5.555  65.890  1.00  0.00    -0.053 OA 
HETATM   30  C   UNL     1      -7.516   5.454  64.920  1.00  0.00    -0.070 C  
HETATM   31  H   UNL     1      -9.417   5.400  64.083  1.00  0.00     0.000 HD 
ENDBRANCH  27  28
BRANCH  27  32
HETATM   32  C   UNL     1      -9.792   4.352  67.009  1.00  0.00    -0.227 C  
BRANCH  32  33
HETATM   33  C   UNL     1      -9.716   4.150  68.514  1.00  0.00    -0.148 A  
HETATM   34  C   UNL     1      -9.745   4.036  70.815  1.00  0.00    -0.193 A  
HETATM   35  H   UNL     1      -8.492   2.332  70.889  1.00  0.00     0.000 HD 
HETATM   36  C   UNL     1     -10.031   4.323  72.159  1.00  0.00    -0.246 A  
HETATM   37  C   UNL     1      -8.952   3.077  68.965  1.00  0.00    -0.124 A  
HETATM   38  C   UNL     1     -10.818   5.437  72.427  1.00  0.00    -0.297 A  
HETATM   39  N   UNL     1      -8.977   3.026  70.322  1.00  0.00    -0.086 NA 
HETATM   40  C   UNL     1     -11.290   6.229  71.381  1.00  0.00    -0.353 A  
HETATM   41  C   UNL     1     -11.003   5.918  70.034  1.00  0.00    -0.430 A  
HETATM   42  C   UNL     1     -10.214   4.789  69.721  1.00  0.00    -0.218 A  
ENDBRANCH  32  33
ENDBRANCH  27  32
ENDBRANCH  24  27
ENDBRANCH  11  23
ENDBRANCH   7  11
TORSDOF 8
ENDMDL
MODEL      369
REMARK 921   NORMALIZED FREE ENERGY PREDICTED BY IDOCK:   -4.37 KCAL/MOL
REMARK 922        TOTAL FREE ENERGY PREDICTED BY IDOCK:   -8.56 KCAL/MOL
REMARK 923 INTER-LIGAND FREE ENERGY PREDICTED BY IDOCK:   -7.13 KCAL/MOL
REMARK 924 INTRA-LIGAND FREE ENERGY PREDICTED BY IDOCK:   -1.43 KCAL/MOL
REMARK 927      BINDING AFFINITY PREDICTED BY RF-SCORE:    0.00 PKD
ROOT
HETATM    1  C   UNL     1      -7.175   1.966  67.710  1.00  0.00    -0.047 C  
HETATM    2  C   UNL     1      -7.512   2.996  66.614  1.00  0.00    -0.075 C  
HETATM    3  C   UNL     1      -7.741   4.543  67.212  1.00  0.00    -0.089 C  
HETATM    4  N   UNL     1      -8.772   2.544  65.955  1.00  0.00    -0.124 NA 
HETATM    5  C   UNL     1      -6.382   2.842  65.559  1.00  0.00    -0.024 C  
HETATM    6  H2  UNL     1      -9.537   2.397  66.614  1.00  0.00     0.000 HD 
HETATM    7  N   UNL     1      -9.031   4.890  67.630  1.00  0.00    -0.107 N  
HETATM    8  H1  UNL     1      -8.995   3.226  65.230  1.00  0.00     0.000 HD 
HETATM    9  O   UNL     1      -6.804   5.334  67.320  1.00  0.00    -0.057 OA 
HETATM   10  H   UNL     1      -9.731   4.201  67.355  1.00  0.00     0.000 HD 
ENDROOT
BRANCH   7  11
HETATM   11  C   UNL     1      -9.648   6.095  68.424  1.00  0.00    -0.118 C  
BRANCH  11  12
HETATM   12  C   UNL     1     -10.760   5.959  69.566  1.00  0.00    -0.414 C  
BRANCH  12  13
HETATM   13  C   UNL     1     -10.329   5.721  71.092  1.00  0.00    -0.286 A  
HETATM   14  C   UNL     1     -10.609   4.644  71.913  1.00  0.00    -0.038 A  
HETATM   15  C   UNL     1      -8.223   8.516  72.843  1.00  0.00    -0.107 A  
HETATM   16  C   UNL     1      -8.402   8.068  74.149  1.00  0.00    -0.311 A  
HETATM   17  C   UNL     1      -9.074   6.870  74.385  1.00  0.00    -0.237 A  
HETATM   18  N   UNL     1     -10.192   4.921  73.214  1.00  0.00    -0.160 NA 
HETATM   19  C   UNL     1      -8.782   7.814  71.754  1.00  0.00    -0.147 A  
HETATM   20  C   UNL     1      -9.532   6.625  71.958  1.00  0.00    -0.148 A  
HETATM   21  C   UNL     1      -9.593   6.157  73.271  1.00  0.00    -0.147 A  
HETATM   22  H   UNL     1     -10.315   4.296  74.010  1.00  0.00     0.000 HD 
ENDBRANCH  12  13
ENDBRANCH  11  12
BRANCH  11  23
HETATM   23  C   UNL     1      -9.925   7.221  67.393  1.00  0.00    -0.174 C  
HETATM   24  N   UNL     1      -8.945   8.179  67.221  1.00  0.00    -0.136 N  
HETATM   25  H   UNL     1      -8.032   8.052  67.657  1.00  0.00     0.000 HD 
HETATM   26  O   UNL     1     -11.019   7.288  66.825  1.00  0.00    -0.284 OA 
BRANCH  24  27
HETATM   27  C   UNL     1      -9.206   9.358  66.429  1.00  0.00    -0.169 C  
BRANCH  27  28
HETATM   28  N   UNL     1      -9.590   8.947  65.103  1.00  0.00    -0.386 N  
HETATM   29  O   UNL     1      -8.089  10.316  64.000  1.00  0.00    -0.156 OA 
HETATM   30  C   UNL     1      -8.977   9.477  63.990  1.00  0.00    -0.188 C  
HETATM   31  H   UNL     1     -10.327   8.253  64.987  1.00  0.00     0.000 HD 
ENDBRANCH  27  28
BRANCH  27  32
HETATM   32  C   UNL     1     -10.081  10.472  67.045  1.00  0.00    -0.259 C  
BRANCH  32  33
HETATM   33  C   UNL     1     -10.380  11.859  66.501  1.00  0.00    -0.249 A  
HETATM   34  C   UNL     1     -10.632  14.035  65.787  1.00  0.00    -0.299 A  
HETATM   35  H   UNL     1     -12.430  13.636  64.744  1.00  0.00     0.000 HD 
HETATM   36  C   UNL     1     -10.399  15.404  65.578  1.00  0.00    -0.412 A  
HETATM   37  C   UNL     1     -11.531  11.996  65.730  1.00  0.00    -0.320 A  
HETATM   38  C   UNL     1      -9.285  15.968  66.188  1.00  0.00    -0.388 A  
HETATM   39  N   UNL     1     -11.666  13.283  65.319  1.00  0.00    -0.318 NA 
HETATM   40  C   UNL     1      -8.448  15.184  66.980  1.00  0.00    -0.259 A  
HETATM   41  C   UNL     1      -8.690  13.806  67.169  1.00  0.00    -0.231 A  
HETATM   42  C   UNL     1      -9.806  13.194  66.558  1.00  0.00    -0.265 A  
ENDBRANCH  32  33
ENDBRANCH  27  32
ENDBRANCH  24  27
ENDBRANCH  11  23
ENDBRANCH   7  11
TORSDOF 8
ENDMDL
MODEL      370
REMARK 921   NORMALIZED FREE ENERGY PREDICTED BY IDOCK:   -4.36 KCAL/MOL
REMARK 922        TOTAL FREE ENERGY PREDICTED BY IDOCK:   -8.55 KCAL/MOL
REMARK 923 INTER-LIGAND FREE ENERGY PREDICTED BY IDOCK:   -7.05 KCAL/MOL
REMARK 924 INTRA-LIGAND FREE ENERGY PREDICTED BY IDOCK:   -1.50 KCAL/MOL
REMARK 927      BINDING AFFINITY PREDICTED BY RF-SCORE:    0.00 PKD
ROOT
HETATM    1  C   UNL     1     -11.913  12.558  64.760  1.00  0.00    -0.469 C  
HETATM    2  C   UNL     1     -12.025  14.023  65.225  1.00  0.00    -0.379 C  
HETATM    3  C   UNL     1     -10.707  14.531  66.124  1.00  0.00    -0.310 C  
HETATM    4  N   UNL     1     -13.251  14.127  66.068  1.00  0.00    -0.427 NA 
HETATM    5  C   UNL     1     -12.310  14.833  63.930  1.00  0.00     0.030 C  
HETATM    6  H2  UNL     1     -13.261  13.461  66.841  1.00  0.00     0.000 HD 
HETATM    7  N   UNL     1     -10.747  14.318  67.506  1.00  0.00    -0.268 N  
HETATM    8  H1  UNL     1     -13.324  15.097  66.376  1.00  0.00     0.000 HD 
HETATM    9  O   UNL     1      -9.721  15.036  65.587  1.00  0.00    -0.339 OA 
HETATM   10  H   UNL     1     -11.668  14.027  67.832  1.00  0.00     0.000 HD 
ENDROOT
BRANCH   7  11
HETATM   11  C   UNL     1      -9.700  14.423  68.671  1.00  0.00    -0.216 C  
BRANCH  11  12
HETATM   12  C   UNL     1      -9.045  15.788  69.186  1.00  0.00    -0.262 C  
BRANCH  12  13
HETATM   13  C   UNL     1      -9.137  17.117  68.293  1.00  0.00    -0.259 A  
HETATM   14  C   UNL     1     -10.263  17.774  67.832  1.00  0.00    -0.361 A  
HETATM   15  C   UNL     1      -5.782  18.799  67.185  1.00  0.00    -0.149 A  
HETATM   16  C   UNL     1      -6.323  19.624  66.202  1.00  0.00    -0.196 A  
HETATM   17  C   UNL     1      -7.705  19.677  66.027  1.00  0.00    -0.335 A  
HETATM   18  N   UNL     1      -9.891  18.786  66.948  1.00  0.00    -0.318 NA 
HETATM   19  C   UNL     1      -6.608  17.954  67.957  1.00  0.00    -0.194 A  
HETATM   20  C   UNL     1      -8.014  17.929  67.761  1.00  0.00    -0.230 A  
HETATM   21  C   UNL     1      -8.522  18.849  66.843  1.00  0.00    -0.286 A  
HETATM   22  H   UNL     1     -10.541  19.394  66.451  1.00  0.00     0.000 HD 
ENDBRANCH  12  13
ENDBRANCH  11  12
BRANCH  11  23
HETATM   23  C   UNL     1      -8.686  13.264  68.473  1.00  0.00    -0.059 C  
HETATM   24  N   UNL     1      -9.202  12.009  68.214  1.00  0.00    -0.194 N  
HETATM   25  H   UNL     1     -10.198  11.900  68.024  1.00  0.00     0.000 HD 
HETATM   26  O   UNL     1      -7.478  13.460  68.631  1.00  0.00    -0.114 OA 
BRANCH  24  27
HETATM   27  C   UNL     1      -8.338  10.850  68.211  1.00  0.00    -0.129 C  
BRANCH  27  28
HETATM   28  N   UNL     1      -7.335  11.026  67.193  1.00  0.00    -0.109 N  
HETATM   29  O   UNL     1      -7.885   9.122  66.004  1.00  0.00    -0.100 OA 
HETATM   30  C   UNL     1      -7.204  10.124  66.161  1.00  0.00    -0.115 C  
HETATM   31  H   UNL     1      -6.711  11.831  67.237  1.00  0.00     0.000 HD 
ENDBRANCH  27  28
BRANCH  27  32
HETATM   32  C   UNL     1      -7.808  10.332  69.565  1.00  0.00    -0.172 C  
BRANCH  32  33
HETATM   33  C   UNL     1      -7.722   8.901  70.071  1.00  0.00    -0.078 A  
HETATM   34  C   UNL     1      -7.683   6.813  71.044  1.00  0.00    -0.097 A  
HETATM   35  H   UNL     1      -6.872   5.872  69.330  1.00  0.00     0.000 HD 
HETATM   36  C   UNL     1      -7.838   5.775  71.977  1.00  0.00    -0.107 A  
HETATM   37  C   UNL     1      -7.218   7.952  69.185  1.00  0.00    -0.081 A  
HETATM   38  C   UNL     1      -8.325   6.108  73.236  1.00  0.00    -0.117 A  
HETATM   39  N   UNL     1      -7.200   6.729  69.774  1.00  0.00    -0.075 NA 
HETATM   40  C   UNL     1      -8.636   7.433  73.539  1.00  0.00    -0.202 A  
HETATM   41  C   UNL     1      -8.486   8.461  72.583  1.00  0.00    -0.223 A  
HETATM   42  C   UNL     1      -8.003   8.162  71.291  1.00  0.00    -0.107 A  
ENDBRANCH  32  33
ENDBRANCH  27  32
ENDBRANCH  24  27
ENDBRANCH  11  23
ENDBRANCH   7  11
TORSDOF 8
ENDMDL
MODEL      371
REMARK 921   NORMALIZED FREE ENERGY PREDICTED BY IDOCK:   -4.36 KCAL/MOL
REMARK 922        TOTAL FREE ENERGY PREDICTED BY IDOCK:   -8.54 KCAL/MOL
REMARK 923 INTER-LIGAND FREE ENERGY PREDICTED BY IDOCK:   -6.91 KCAL/MOL
REMARK 924 INTRA-LIGAND FREE ENERGY PREDICTED BY IDOCK:   -1.63 KCAL/MOL
REMARK 927      BINDING AFFINITY PREDICTED BY RF-SCORE:    0.00 PKD
ROOT
HETATM    1  C   UNL     1      -6.866   6.946  64.915  1.00  0.00    -0.050 C  
HETATM    2  C   UNL     1      -6.956   8.483  64.853  1.00  0.00    -0.072 C  
HETATM    3  C   UNL     1      -7.808   9.146  66.133  1.00  0.00    -0.103 C  
HETATM    4  N   UNL     1      -7.649   8.835  63.580  1.00  0.00    -0.118 NA 
HETATM    5  C   UNL     1      -5.486   8.964  64.703  1.00  0.00    -0.051 C  
HETATM    6  H2  UNL     1      -8.556   8.378  63.480  1.00  0.00     0.000 HD 
HETATM    7  N   UNL     1      -9.194   9.277  65.987  1.00  0.00    -0.189 N  
HETATM    8  H1  UNL     1      -7.708   9.853  63.540  1.00  0.00     0.000 HD 
HETATM    9  O   UNL     1      -7.247   9.468  67.179  1.00  0.00    -0.086 OA 
HETATM   10  H   UNL     1      -9.506   9.108  65.031  1.00  0.00     0.000 HD 
ENDROOT
BRANCH   7  11
HETATM   11  C   UNL     1     -10.379   9.623  66.957  1.00  0.00    -0.248 C  
BRANCH  11  12
HETATM   12  C   UNL     1     -10.834  11.106  67.344  1.00  0.00    -0.317 C  
BRANCH  12  13
HETATM   13  C   UNL     1     -11.224  12.159  66.198  1.00  0.00    -0.386 A  
HETATM   14  C   UNL     1     -11.764  11.916  64.949  1.00  0.00    -0.196 A  
HETATM   15  C   UNL     1     -10.575  15.950  66.913  1.00  0.00    -0.309 A  
HETATM   16  C   UNL     1     -10.706  16.395  65.600  1.00  0.00    -0.280 A  
HETATM   17  C   UNL     1     -11.093  15.501  64.602  1.00  0.00    -0.373 A  
HETATM   18  N   UNL     1     -11.785  13.097  64.206  1.00  0.00    -0.373 NA 
HETATM   19  C   UNL     1     -10.751  14.589  67.238  1.00  0.00    -0.287 A  
HETATM   20  C   UNL     1     -11.078  13.635  66.238  1.00  0.00    -0.304 A  
HETATM   21  C   UNL     1     -11.306  14.142  64.958  1.00  0.00    -0.350 A  
HETATM   22  H   UNL     1     -12.109  13.173  63.242  1.00  0.00     0.000 HD 
ENDBRANCH  12  13
ENDBRANCH  11  12
BRANCH  11  23
HETATM   23  C   UNL     1     -10.274   8.652  68.163  1.00  0.00    -0.205 C  
HETATM   24  N   UNL     1      -9.785   9.164  69.349  1.00  0.00    -0.166 N  
HETATM   25  H   UNL     1      -9.641  10.169  69.445  1.00  0.00     0.000 HD 
HETATM   26  O   UNL     1     -10.540   7.454  68.022  1.00  0.00    -0.208 OA 
BRANCH  24  27
HETATM   27  C   UNL     1      -9.477   8.285  70.453  1.00  0.00    -0.167 C  
BRANCH  27  28
HETATM   28  N   UNL     1     -10.664   7.545  70.798  1.00  0.00    -0.225 N  
HETATM   29  O   UNL     1     -11.664   9.261  71.979  1.00  0.00    -0.356 OA 
HETATM   30  C   UNL     1     -11.668   8.120  71.544  1.00  0.00    -0.286 C  
HETATM   31  H   UNL     1     -10.761   6.580  70.485  1.00  0.00     0.000 HD 
ENDBRANCH  27  28
BRANCH  27  32
HETATM   32  C   UNL     1      -8.185   7.445  70.378  1.00  0.00    -0.121 C  
BRANCH  32  33
HETATM   33  C   UNL     1      -8.033   5.935  70.289  1.00  0.00    -0.106 A  
HETATM   34  C   UNL     1      -7.999   3.631  70.291  1.00  0.00    -0.046 A  
HETATM   35  H   UNL     1      -6.264   3.513  69.084  1.00  0.00     0.000 HD 
HETATM   36  C   UNL     1      -8.348   2.294  70.540  1.00  0.00    -0.078 A  
HETATM   37  C   UNL     1      -6.959   5.456  69.542  1.00  0.00    -0.062 A  
HETATM   38  C   UNL     1      -9.448   2.057  71.355  1.00  0.00    -0.202 A  
HETATM   39  N   UNL     1      -6.953   4.098  69.556  1.00  0.00    -0.045 NA 
HETATM   40  C   UNL     1     -10.161   3.125  71.899  1.00  0.00    -0.152 A  
HETATM   41  C   UNL     1      -9.803   4.463  71.627  1.00  0.00    -0.255 A  
HETATM   42  C   UNL     1      -8.697   4.746  70.796  1.00  0.00    -0.134 A  
ENDBRANCH  32  33
ENDBRANCH  27  32
ENDBRANCH  24  27
ENDBRANCH  11  23
ENDBRANCH   7  11
TORSDOF 8
ENDMDL
MODEL      372
REMARK 921   NORMALIZED FREE ENERGY PREDICTED BY IDOCK:   -4.34 KCAL/MOL
REMARK 922        TOTAL FREE ENERGY PREDICTED BY IDOCK:   -8.51 KCAL/MOL
REMARK 923 INTER-LIGAND FREE ENERGY PREDICTED BY IDOCK:   -6.85 KCAL/MOL
REMARK 924 INTRA-LIGAND FREE ENERGY PREDICTED BY IDOCK:   -1.66 KCAL/MOL
REMARK 927      BINDING AFFINITY PREDICTED BY RF-SCORE:    0.00 PKD
ROOT
HETATM    1  C   UNL     1      -9.114   2.992  65.295  1.00  0.00    -0.149 C  
HETATM    2  C   UNL     1      -8.281   4.184  64.786  1.00  0.00    -0.102 C  
HETATM    3  C   UNL     1      -7.637   5.113  66.021  1.00  0.00    -0.087 C  
HETATM    4  N   UNL     1      -9.186   5.038  63.964  1.00  0.00    -0.358 NA 
HETATM    5  C   UNL     1      -7.250   3.562  63.804  1.00  0.00    -0.051 C  
HETATM    6  H2  UNL     1     -10.028   5.324  64.464  1.00  0.00     0.000 HD 
HETATM    7  N   UNL     1      -8.424   6.157  66.521  1.00  0.00    -0.116 N  
HETATM    8  H1  UNL     1      -8.634   5.827  63.627  1.00  0.00     0.000 HD 
HETATM    9  O   UNL     1      -6.532   4.864  66.501  1.00  0.00    -0.039 OA 
HETATM   10  H   UNL     1      -9.245   6.341  65.945  1.00  0.00     0.000 HD 
ENDROOT
BRANCH   7  11
HETATM   11  C   UNL     1      -8.333   7.110  67.765  1.00  0.00    -0.118 C  
BRANCH  11  12
HETATM   12  C   UNL     1      -7.539   6.775  69.112  1.00  0.00    -0.100 C  
BRANCH  12  13
HETATM   13  C   UNL     1      -8.171   5.780  70.200  1.00  0.00    -0.116 A  
HETATM   14  C   UNL     1      -8.326   5.971  71.560  1.00  0.00    -0.127 A  
HETATM   15  C   UNL     1      -9.454   2.300  68.952  1.00  0.00    -0.169 A  
HETATM   16  C   UNL     1      -9.555   1.699  70.204  1.00  0.00    -0.092 A  
HETATM   17  C   UNL     1      -9.320   2.451  71.354  1.00  0.00    -0.197 A  
HETATM   18  N   UNL     1      -8.761   4.788  72.156  1.00  0.00    -0.122 NA 
HETATM   19  C   UNL     1      -9.039   3.643  68.825  1.00  0.00    -0.200 A  
HETATM   20  C   UNL     1      -8.724   4.423  69.969  1.00  0.00    -0.111 A  
HETATM   21  C   UNL     1      -8.944   3.813  71.205  1.00  0.00    -0.104 A  
HETATM   22  H   UNL     1      -8.921   4.664  73.156  1.00  0.00     0.000 HD 
ENDBRANCH  12  13
ENDBRANCH  11  12
BRANCH  11  23
HETATM   23  C   UNL     1      -9.753   7.696  67.990  1.00  0.00    -0.152 C  
HETATM   24  N   UNL     1      -9.879   8.713  68.916  1.00  0.00    -0.174 N  
HETATM   25  H   UNL     1      -9.044   9.140  69.316  1.00  0.00     0.000 HD 
HETATM   26  O   UNL     1     -10.728   7.200  67.419  1.00  0.00    -0.265 OA 
BRANCH  24  27
HETATM   27  C   UNL     1     -11.187   9.174  69.321  1.00  0.00     0.132 C  
BRANCH  27  28
HETATM   28  N   UNL     1     -11.654   8.346  70.403  1.00  0.00    -0.462 N  
HETATM   29  O   UNL     1     -10.094   9.084  71.941  1.00  0.00    -0.339 OA 
HETATM   30  C   UNL     1     -11.049   8.384  71.639  1.00  0.00    -0.278 C  
HETATM   31  H   UNL     1     -12.446   7.721  70.251  1.00  0.00     0.000 HD 
ENDBRANCH  27  28
BRANCH  27  32
HETATM   32  C   UNL     1     -11.394  10.690  69.526  1.00  0.00    -0.342 C  
BRANCH  32  33
HETATM   33  C   UNL     1     -11.069  11.834  68.579  1.00  0.00    -0.288 A  
HETATM   34  C   UNL     1     -10.635  13.716  67.322  1.00  0.00    -0.267 A  
HETATM   35  H   UNL     1     -10.052  12.614  65.611  1.00  0.00     0.000 HD 
HETATM   36  C   UNL     1     -10.495  15.060  66.942  1.00  0.00    -0.279 A  
HETATM   37  C   UNL     1     -10.629  11.487  67.304  1.00  0.00    -0.228 A  
HETATM   38  C   UNL     1     -10.850  16.033  67.869  1.00  0.00    -0.333 A  
HETATM   39  N   UNL     1     -10.381  12.606  66.577  1.00  0.00    -0.239 NA 
HETATM   40  C   UNL     1     -11.331  15.661  69.124  1.00  0.00    -0.341 A  
HETATM   41  C   UNL     1     -11.454  14.305  69.494  1.00  0.00    -0.336 A  
HETATM   42  C   UNL     1     -11.094  13.287  68.583  1.00  0.00    -0.301 A  
ENDBRANCH  32  33
ENDBRANCH  27  32
ENDBRANCH  24  27
ENDBRANCH  11  23
ENDBRANCH   7  11
TORSDOF 8
ENDMDL
MODEL      373
REMARK 921   NORMALIZED FREE ENERGY PREDICTED BY IDOCK:   -4.31 KCAL/MOL
REMARK 922        TOTAL FREE ENERGY PREDICTED BY IDOCK:   -8.47 KCAL/MOL
REMARK 923 INTER-LIGAND FREE ENERGY PREDICTED BY IDOCK:   -6.96 KCAL/MOL
REMARK 924 INTRA-LIGAND FREE ENERGY PREDICTED BY IDOCK:   -1.51 KCAL/MOL
REMARK 927      BINDING AFFINITY PREDICTED BY RF-SCORE:    0.00 PKD
ROOT
HETATM    1  C   UNL     1      -6.033   8.836  73.263  1.00  0.00    -0.088 C  
HETATM    2  C   UNL     1      -7.186   7.833  73.068  1.00  0.00    -0.088 C  
HETATM    3  C   UNL     1      -7.508   7.505  71.458  1.00  0.00    -0.079 C  
HETATM    4  N   UNL     1      -8.404   8.430  73.689  1.00  0.00    -0.365 NA 
HETATM    5  C   UNL     1      -6.802   6.606  73.941  1.00  0.00    -0.072 C  
HETATM    6  H2  UNL     1      -8.619   9.361  73.330  1.00  0.00     0.000 HD 
HETATM    7  N   UNL     1      -8.415   8.342  70.797  1.00  0.00    -0.125 N  
HETATM    8  H1  UNL     1      -9.167   7.766  73.560  1.00  0.00     0.000 HD 
HETATM    9  O   UNL     1      -6.940   6.589  70.864  1.00  0.00    -0.064 OA 
HETATM   10  H   UNL     1      -8.914   8.962  71.435  1.00  0.00     0.000 HD 
ENDROOT
BRANCH   7  11
HETATM   11  C   UNL     1      -8.840   8.546  69.300  1.00  0.00    -0.142 C  
BRANCH  11  12
HETATM   12  C   UNL     1      -7.925   8.190  68.037  1.00  0.00    -0.127 C  
BRANCH  12  13
HETATM   13  C   UNL     1      -8.355   7.017  67.031  1.00  0.00    -0.121 A  
HETATM   14  C   UNL     1      -8.883   7.119  65.758  1.00  0.00    -0.064 A  
HETATM   15  C   UNL     1      -7.920   3.325  68.252  1.00  0.00    -0.065 A  
HETATM   16  C   UNL     1      -8.710   2.729  67.273  1.00  0.00    -0.138 A  
HETATM   17  C   UNL     1      -9.235   3.504  66.240  1.00  0.00    -0.179 A  
HETATM   18  N   UNL     1      -9.273   5.859  65.306  1.00  0.00    -0.363 NA 
HETATM   19  C   UNL     1      -7.705   4.719  68.260  1.00  0.00    -0.081 A  
HETATM   20  C   UNL     1      -8.279   5.553  67.264  1.00  0.00    -0.101 A  
HETATM   21  C   UNL     1      -8.972   4.901  66.244  1.00  0.00    -0.121 A  
HETATM   22  H   UNL     1      -9.719   5.675  64.407  1.00  0.00     0.000 HD 
ENDBRANCH  12  13
ENDBRANCH  11  12
BRANCH  11  23
HETATM   23  C   UNL     1      -9.539   9.929  69.213  1.00  0.00    -0.205 C  
HETATM   24  N   UNL     1     -10.912   9.937  69.065  1.00  0.00    -0.321 N  
HETATM   25  H   UNL     1     -11.436   9.067  69.154  1.00  0.00     0.000 HD 
HETATM   26  O   UNL     1      -8.867  10.965  69.192  1.00  0.00    -0.135 OA 
BRANCH  24  27
HETATM   27  C   UNL     1     -11.610  11.171  68.783  1.00  0.00    -0.322 C  
BRANCH  27  28
HETATM   28  N   UNL     1     -11.601  11.986  69.971  1.00  0.00    -0.510 N  
HETATM   29  O   UNL     1     -12.945  10.580  71.219  1.00  0.00    -0.381 OA 
HETATM   30  C   UNL     1     -12.284  11.601  71.102  1.00  0.00    -0.144 C  
HETATM   31  H   UNL     1     -11.081  12.863  69.973  1.00  0.00     0.000 HD 
ENDBRANCH  27  28
BRANCH  27  32
HETATM   32  C   UNL     1     -11.270  11.920  67.477  1.00  0.00    -0.359 C  
BRANCH  32  33
HETATM   33  C   UNL     1     -10.834  13.364  67.292  1.00  0.00    -0.278 A  
HETATM   34  C   UNL     1      -9.947  15.474  67.026  1.00  0.00    -0.239 A  
HETATM   35  H   UNL     1     -11.841  16.405  66.858  1.00  0.00     0.000 HD 
HETATM   36  C   UNL     1      -9.024  16.524  66.898  1.00  0.00    -0.242 A  
HETATM   37  C   UNL     1     -11.845  14.309  67.137  1.00  0.00    -0.425 A  
HETATM   38  C   UNL     1      -7.674  16.213  67.008  1.00  0.00    -0.256 A  
HETATM   39  N   UNL     1     -11.306  15.546  66.985  1.00  0.00    -0.183 NA 
HETATM   40  C   UNL     1      -7.276  14.898  67.244  1.00  0.00    -0.142 A  
HETATM   41  C   UNL     1      -8.217  13.852  67.358  1.00  0.00    -0.198 A  
HETATM   42  C   UNL     1      -9.597  14.126  67.242  1.00  0.00    -0.234 A  
ENDBRANCH  32  33
ENDBRANCH  27  32
ENDBRANCH  24  27
ENDBRANCH  11  23
ENDBRANCH   7  11
TORSDOF 8
ENDMDL
MODEL      374
REMARK 921   NORMALIZED FREE ENERGY PREDICTED BY IDOCK:   -4.28 KCAL/MOL
REMARK 922        TOTAL FREE ENERGY PREDICTED BY IDOCK:   -8.42 KCAL/MOL
REMARK 923 INTER-LIGAND FREE ENERGY PREDICTED BY IDOCK:   -6.75 KCAL/MOL
REMARK 924 INTRA-LIGAND FREE ENERGY PREDICTED BY IDOCK:   -1.67 KCAL/MOL
REMARK 927      BINDING AFFINITY PREDICTED BY RF-SCORE:    0.00 PKD
ROOT
HETATM    1  C   UNL     1      -8.766   2.963  64.484  1.00  0.00    -0.102 C  
HETATM    2  C   UNL     1      -8.306   4.324  63.926  1.00  0.00    -0.100 C  
HETATM    3  C   UNL     1      -7.443   5.234  65.034  1.00  0.00    -0.073 C  
HETATM    4  N   UNL     1      -9.532   5.079  63.534  1.00  0.00    -0.319 NA 
HETATM    5  C   UNL     1      -7.558   3.983  62.607  1.00  0.00    -0.057 C  
HETATM    6  H2  UNL     1     -10.206   5.166  64.295  1.00  0.00     0.000 HD 
HETATM    7  N   UNL     1      -8.170   6.075  65.885  1.00  0.00    -0.122 N  
HETATM    8  H1  UNL     1      -9.227   5.979  63.165  1.00  0.00     0.000 HD 
HETATM    9  O   UNL     1      -6.220   5.139  65.129  1.00  0.00    -0.032 OA 
HETATM   10  H   UNL     1      -9.147   6.164  65.608  1.00  0.00     0.000 HD 
ENDROOT
BRANCH   7  11
HETATM   11  C   UNL     1      -7.827   6.911  67.169  1.00  0.00    -0.109 C  
BRANCH  11  12
HETATM   12  C   UNL     1      -6.670   6.546  68.210  1.00  0.00    -0.068 C  
BRANCH  12  13
HETATM   13  C   UNL     1      -6.935   5.470  69.370  1.00  0.00    -0.063 A  
HETATM   14  C   UNL     1      -6.544   5.514  70.696  1.00  0.00    -0.040 A  
HETATM   15  C   UNL     1      -8.916   2.230  68.429  1.00  0.00    -0.178 A  
HETATM   16  C   UNL     1      -8.591   1.498  69.567  1.00  0.00    -0.090 A  
HETATM   17  C   UNL     1      -7.869   2.100  70.596  1.00  0.00    -0.045 A  
HETATM   18  N   UNL     1      -6.830   4.296  71.313  1.00  0.00    -0.034 NA 
HETATM   19  C   UNL     1      -8.456   3.554  68.264  1.00  0.00    -0.106 A  
HETATM   20  C   UNL     1      -7.659   4.180  69.259  1.00  0.00    -0.054 A  
HETATM   21  C   UNL     1      -7.450   3.447  70.428  1.00  0.00    -0.041 A  
HETATM   22  H   UNL     1      -6.610   4.069  72.282  1.00  0.00     0.000 HD 
ENDBRANCH  12  13
ENDBRANCH  11  12
BRANCH  11  23
HETATM   23  C   UNL     1      -9.177   7.304  67.825  1.00  0.00    -0.126 C  
HETATM   24  N   UNL     1      -9.229   8.513  68.493  1.00  0.00    -0.136 N  
HETATM   25  H   UNL     1      -8.448   9.164  68.422  1.00  0.00     0.000 HD 
HETATM   26  O   UNL     1     -10.128   6.516  67.815  1.00  0.00    -0.131 OA 
BRANCH  24  27
HETATM   27  C   UNL     1     -10.383   8.859  69.290  1.00  0.00    -0.213 C  
BRANCH  27  28
HETATM   28  N   UNL     1     -10.349   8.091  70.508  1.00  0.00    -0.200 N  
HETATM   29  O   UNL     1      -8.226   8.756  71.134  1.00  0.00    -0.137 OA 
HETATM   30  C   UNL     1      -9.248   8.117  71.333  1.00  0.00    -0.153 C  
HETATM   31  H   UNL     1     -11.154   7.520  70.763  1.00  0.00     0.000 HD 
ENDBRANCH  27  28
BRANCH  27  32
HETATM   32  C   UNL     1     -10.722  10.354  69.472  1.00  0.00    -0.284 C  
BRANCH  32  33
HETATM   33  C   UNL     1     -11.755  10.993  70.386  1.00  0.00    -0.437 A  
HETATM   34  C   UNL     1     -13.256  12.173  71.676  1.00  0.00    -0.258 A  
HETATM   35  H   UNL     1     -13.983  10.447  72.662  1.00  0.00     0.000 HD 
HETATM   36  C   UNL     1     -13.996  13.232  72.225  1.00  0.00    -0.559 A  
HETATM   37  C   UNL     1     -12.470  10.137  71.219  1.00  0.00    -0.406 A  
HETATM   38  C   UNL     1     -13.702  14.518  71.787  1.00  0.00    -0.501 A  
HETATM   39  N   UNL     1     -13.348  10.847  71.973  1.00  0.00    -0.398 NA 
HETATM   40  C   UNL     1     -12.701  14.723  70.839  1.00  0.00    -0.405 A  
HETATM   41  C   UNL     1     -11.976  13.645  70.288  1.00  0.00    -0.397 A  
HETATM   42  C   UNL     1     -12.251  12.323  70.700  1.00  0.00    -0.378 A  
ENDBRANCH  32  33
ENDBRANCH  27  32
ENDBRANCH  24  27
ENDBRANCH  11  23
ENDBRANCH   7  11
TORSDOF 8
ENDMDL
MODEL      375
REMARK 921   NORMALIZED FREE ENERGY PREDICTED BY IDOCK:   -4.26 KCAL/MOL
REMARK 922        TOTAL FREE ENERGY PREDICTED BY IDOCK:   -8.40 KCAL/MOL
REMARK 923 INTER-LIGAND FREE ENERGY PREDICTED BY IDOCK:   -7.49 KCAL/MOL
REMARK 924 INTRA-LIGAND FREE ENERGY PREDICTED BY IDOCK:   -0.91 KCAL/MOL
REMARK 927      BINDING AFFINITY PREDICTED BY RF-SCORE:    0.00 PKD
ROOT
HETATM    1  C   UNL     1     -14.147  15.104  72.163  1.00  0.00    -0.654 C  
HETATM    2  C   UNL     1     -12.619  14.960  72.022  1.00  0.00    -0.326 C  
HETATM    3  C   UNL     1     -12.147  14.387  70.521  1.00  0.00    -0.334 C  
HETATM    4  N   UNL     1     -12.166  13.997  73.067  1.00  0.00     0.209 NA 
HETATM    5  C   UNL     1     -12.047  16.348  72.423  1.00  0.00    -0.496 C  
HETATM    6  H2  UNL     1     -12.657  13.103  73.026  1.00  0.00     0.000 HD 
HETATM    7  N   UNL     1     -12.075  12.999  70.352  1.00  0.00    -0.468 N  
HETATM    8  H1  UNL     1     -11.155  13.902  72.973  1.00  0.00     0.000 HD 
HETATM    9  O   UNL     1     -11.913  15.153  69.587  1.00  0.00    -0.307 OA 
HETATM   10  H   UNL     1     -12.153  12.492  71.234  1.00  0.00     0.000 HD 
ENDROOT
BRANCH   7  11
HETATM   11  C   UNL     1     -11.900  12.044  69.119  1.00  0.00    -0.311 C  
BRANCH  11  12
HETATM   12  C   UNL     1     -12.336  10.506  69.091  1.00  0.00     0.210 C  
BRANCH  12  13
HETATM   13  C   UNL     1     -12.271   9.621  70.427  1.00  0.00    -0.065 A  
HETATM   14  C   UNL     1     -13.250   9.424  71.382  1.00  0.00    -0.344 A  
HETATM   15  C   UNL     1      -8.926   7.747  71.207  1.00  0.00    -0.147 A  
HETATM   16  C   UNL     1      -9.205   7.451  72.538  1.00  0.00    -0.179 A  
HETATM   17  C   UNL     1     -10.456   7.760  73.069  1.00  0.00    -0.432 A  
HETATM   18  N   UNL     1     -12.719   8.725  72.466  1.00  0.00    -0.484 NA 
HETATM   19  C   UNL     1      -9.865   8.429  70.404  1.00  0.00    -0.194 A  
HETATM   20  C   UNL     1     -11.125   8.823  70.928  1.00  0.00    -0.320 A  
HETATM   21  C   UNL     1     -11.403   8.410  72.232  1.00  0.00    -0.378 A  
HETATM   22  H   UNL     1     -13.235   8.483  73.312  1.00  0.00     0.000 HD 
ENDBRANCH  12  13
ENDBRANCH  11  12
BRANCH  11  23
HETATM   23  C   UNL     1     -10.491  12.321  68.530  1.00  0.00    -0.232 C  
HETATM   24  N   UNL     1      -9.492  11.413  68.824  1.00  0.00    -0.340 N  
HETATM   25  H   UNL     1      -9.726  10.536  69.289  1.00  0.00     0.000 HD 
HETATM   26  O   UNL     1     -10.273  13.359  67.899  1.00  0.00    -0.229 OA 
BRANCH  24  27
HETATM   27  C   UNL     1      -8.119  11.699  68.477  1.00  0.00    -0.145 C  
BRANCH  27  28
HETATM   28  N   UNL     1      -7.369  11.896  69.691  1.00  0.00    -0.297 N  
HETATM   29  O   UNL     1      -5.408  10.967  68.896  1.00  0.00    -0.041 OA 
HETATM   30  C   UNL     1      -6.053  11.504  69.784  1.00  0.00    -0.128 C  
HETATM   31  H   UNL     1      -7.820  12.334  70.494  1.00  0.00     0.000 HD 
ENDBRANCH  27  28
BRANCH  27  32
HETATM   32  C   UNL     1      -7.431  10.805  67.424  1.00  0.00    -0.098 C  
BRANCH  32  33
HETATM   33  C   UNL     1      -7.960   9.553  66.744  1.00  0.00    -0.109 A  
HETATM   34  C   UNL     1      -8.682   7.533  65.903  1.00  0.00    -0.147 A  
HETATM   35  H   UNL     1      -9.474   8.389  64.136  1.00  0.00     0.000 HD 
HETATM   36  C   UNL     1      -8.948   6.160  65.780  1.00  0.00    -0.099 A  
HETATM   37  C   UNL     1      -8.579   9.725  65.509  1.00  0.00    -0.145 A  
HETATM   38  C   UNL     1      -8.499   5.323  66.796  1.00  0.00    -0.107 A  
HETATM   39  N   UNL     1      -8.996   8.526  65.026  1.00  0.00    -0.034 NA 
HETATM   40  C   UNL     1      -7.806   5.852  67.884  1.00  0.00    -0.104 A  
HETATM   41  C   UNL     1      -7.559   7.237  67.996  1.00  0.00    -0.115 A  
HETATM   42  C   UNL     1      -8.007   8.121  66.990  1.00  0.00    -0.104 A  
ENDBRANCH  32  33
ENDBRANCH  27  32
ENDBRANCH  24  27
ENDBRANCH  11  23
ENDBRANCH   7  11
TORSDOF 8
ENDMDL
MODEL      376
REMARK 921   NORMALIZED FREE ENERGY PREDICTED BY IDOCK:   -4.26 KCAL/MOL
REMARK 922        TOTAL FREE ENERGY PREDICTED BY IDOCK:   -8.39 KCAL/MOL
REMARK 923 INTER-LIGAND FREE ENERGY PREDICTED BY IDOCK:   -6.80 KCAL/MOL
REMARK 924 INTRA-LIGAND FREE ENERGY PREDICTED BY IDOCK:   -1.60 KCAL/MOL
REMARK 927      BINDING AFFINITY PREDICTED BY RF-SCORE:    0.00 PKD
ROOT
HETATM    1  C   UNL     1      -6.747   6.094  70.792  1.00  0.00    -0.061 C  
HETATM    2  C   UNL     1      -7.761   7.018  71.494  1.00  0.00    -0.090 C  
HETATM    3  C   UNL     1      -9.076   7.404  70.533  1.00  0.00    -0.157 C  
HETATM    4  N   UNL     1      -7.041   8.275  71.851  1.00  0.00    -0.081 NA 
HETATM    5  C   UNL     1      -8.092   6.304  72.834  1.00  0.00    -0.108 C  
HETATM    6  H2  UNL     1      -6.586   8.716  71.050  1.00  0.00     0.000 HD 
HETATM    7  N   UNL     1      -8.962   8.524  69.701  1.00  0.00    -0.144 N  
HETATM    8  H1  UNL     1      -7.712   8.886  72.316  1.00  0.00     0.000 HD 
HETATM    9  O   UNL     1     -10.091   6.708  70.525  1.00  0.00    -0.186 OA 
HETATM   10  H   UNL     1      -8.136   9.085  69.909  1.00  0.00     0.000 HD 
ENDROOT
BRANCH   7  11
HETATM   11  C   UNL     1      -9.812   9.114  68.521  1.00  0.00    -0.164 C  
BRANCH  11  12
HETATM   12  C   UNL     1     -10.611   8.238  67.447  1.00  0.00    -0.324 C  
BRANCH  12  13
HETATM   13  C   UNL     1     -10.029   6.824  66.962  1.00  0.00    -0.234 A  
HETATM   14  C   UNL     1     -10.461   5.553  67.290  1.00  0.00    -0.236 A  
HETATM   15  C   UNL     1      -6.952   6.856  64.545  1.00  0.00    -0.055 A  
HETATM   16  C   UNL     1      -6.605   5.517  64.695  1.00  0.00    -0.042 A  
HETATM   17  C   UNL     1      -7.416   4.672  65.453  1.00  0.00    -0.081 A  
HETATM   18  N   UNL     1      -9.568   4.606  66.787  1.00  0.00    -0.165 NA 
HETATM   19  C   UNL     1      -8.072   7.395  65.214  1.00  0.00    -0.131 A  
HETATM   20  C   UNL     1      -8.883   6.583  66.051  1.00  0.00    -0.154 A  
HETATM   21  C   UNL     1      -8.562   5.225  66.085  1.00  0.00    -0.120 A  
HETATM   22  H   UNL     1      -9.651   3.599  66.921  1.00  0.00     0.000 HD 
ENDBRANCH  12  13
ENDBRANCH  11  12
BRANCH  11  23
HETATM   23  C   UNL     1      -8.988  10.279  67.909  1.00  0.00    -0.131 C  
HETATM   24  N   UNL     1      -9.448  11.563  68.126  1.00  0.00    -0.178 N  
HETATM   25  H   UNL     1     -10.214  11.722  68.780  1.00  0.00     0.000 HD 
HETATM   26  O   UNL     1      -8.014  10.040  67.189  1.00  0.00    -0.108 OA 
BRANCH  24  27
HETATM   27  C   UNL     1      -8.851  12.680  67.432  1.00  0.00    -0.189 C  
BRANCH  27  28
HETATM   28  N   UNL     1      -9.349  12.703  66.081  1.00  0.00    -0.402 N  
HETATM   29  O   UNL     1     -11.568  12.404  66.653  1.00  0.00    -0.354 OA 
HETATM   30  C   UNL     1     -10.692  12.562  65.816  1.00  0.00    -0.269 C  
HETATM   31  H   UNL     1      -8.696  12.826  65.308  1.00  0.00     0.000 HD 
ENDBRANCH  27  28
BRANCH  27  32
HETATM   32  C   UNL     1      -8.829  14.052  68.141  1.00  0.00    -0.182 C  
BRANCH  32  33
HETATM   33  C   UNL     1      -8.371  15.397  67.602  1.00  0.00    -0.174 A  
HETATM   34  C   UNL     1      -7.906  17.502  66.789  1.00  0.00    -0.230 A  
HETATM   35  H   UNL     1      -5.824  17.147  66.654  1.00  0.00     0.000 HD 
HETATM   36  C   UNL     1      -8.069  18.824  66.344  1.00  0.00    -0.296 A  
HETATM   37  C   UNL     1      -7.005  15.550  67.378  1.00  0.00    -0.198 A  
HETATM   38  C   UNL     1      -9.362  19.329  66.286  1.00  0.00    -0.375 A  
HETATM   39  N   UNL     1      -6.749  16.794  66.898  1.00  0.00    -0.204 NA 
HETATM   40  C   UNL     1     -10.444  18.531  66.656  1.00  0.00    -0.436 A  
HETATM   41  C   UNL     1     -10.260  17.208  67.113  1.00  0.00    -0.316 A  
HETATM   42  C   UNL     1      -8.961  16.661  67.195  1.00  0.00    -0.225 A  
ENDBRANCH  32  33
ENDBRANCH  27  32
ENDBRANCH  24  27
ENDBRANCH  11  23
ENDBRANCH   7  11
TORSDOF 8
ENDMDL
MODEL      377
REMARK 921   NORMALIZED FREE ENERGY PREDICTED BY IDOCK:   -4.25 KCAL/MOL
REMARK 922        TOTAL FREE ENERGY PREDICTED BY IDOCK:   -8.38 KCAL/MOL
REMARK 923 INTER-LIGAND FREE ENERGY PREDICTED BY IDOCK:   -8.55 KCAL/MOL
REMARK 924 INTRA-LIGAND FREE ENERGY PREDICTED BY IDOCK:    0.17 KCAL/MOL
REMARK 927      BINDING AFFINITY PREDICTED BY RF-SCORE:    0.00 PKD
ROOT
HETATM    1  C   UNL     1      -8.813  19.489  68.092  1.00  0.00    -0.378 C  
HETATM    2  C   UNL     1      -9.127  18.862  66.720  1.00  0.00    -0.312 C  
HETATM    3  C   UNL     1      -9.630  17.268  66.822  1.00  0.00    -0.272 C  
HETATM    4  N   UNL     1      -7.875  18.920  65.910  1.00  0.00    -0.470 NA 
HETATM    5  C   UNL     1     -10.130  19.843  66.051  1.00  0.00    -0.589 C  
HETATM    6  H2  UNL     1      -7.078  18.484  66.375  1.00  0.00     0.000 HD 
HETATM    7  N   UNL     1      -8.642  16.277  66.806  1.00  0.00    -0.211 N  
HETATM    8  H1  UNL     1      -8.083  18.505  65.001  1.00  0.00     0.000 HD 
HETATM    9  O   UNL     1     -10.818  16.978  66.950  1.00  0.00    -0.176 OA 
HETATM   10  H   UNL     1      -7.723  16.642  66.554  1.00  0.00     0.000 HD 
ENDROOT
BRANCH   7  11
HETATM   11  C   UNL     1      -8.622  14.733  67.085  1.00  0.00    -0.226 C  
BRANCH  11  12
HETATM   12  C   UNL     1      -7.296  13.846  67.205  1.00  0.00    -0.017 C  
BRANCH  12  13
HETATM   13  C   UNL     1      -6.719  13.444  68.647  1.00  0.00    -0.095 A  
HETATM   14  C   UNL     1      -6.705  12.204  69.257  1.00  0.00    -0.084 A  
HETATM   15  C   UNL     1      -5.145  16.282  70.832  1.00  0.00    -0.182 A  
HETATM   16  C   UNL     1      -5.133  15.581  72.035  1.00  0.00     0.005 A  
HETATM   17  C   UNL     1      -5.515  14.241  72.060  1.00  0.00    -0.182 A  
HETATM   18  N   UNL     1      -6.268  12.331  70.575  1.00  0.00    -0.516 NA 
HETATM   19  C   UNL     1      -5.615  15.678  69.647  1.00  0.00    -0.117 A  
HETATM   20  C   UNL     1      -6.077  14.335  69.644  1.00  0.00    -0.120 A  
HETATM   21  C   UNL     1      -5.945  13.639  70.847  1.00  0.00    -0.110 A  
HETATM   22  H   UNL     1      -6.198  11.563  71.242  1.00  0.00     0.000 HD 
ENDBRANCH  12  13
ENDBRANCH  11  12
BRANCH  11  23
HETATM   23  C   UNL     1      -9.736  14.101  66.207  1.00  0.00    -0.297 C  
HETATM   24  N   UNL     1      -9.917  12.735  66.300  1.00  0.00    -0.260 N  
HETATM   25  H   UNL     1      -9.428  12.207  67.023  1.00  0.00     0.000 HD 
HETATM   26  O   UNL     1     -10.363  14.796  65.403  1.00  0.00    -0.331 OA 
BRANCH  24  27
HETATM   27  C   UNL     1     -10.795  12.049  65.379  1.00  0.00    -0.291 C  
BRANCH  27  28
HETATM   28  N   UNL     1     -10.879  12.818  64.164  1.00  0.00    -0.379 N  
HETATM   29  O   UNL     1     -13.033  12.168  63.636  1.00  0.00    -0.780 OA 
HETATM   30  C   UNL     1     -12.019  12.805  63.393  1.00  0.00    -0.535 C  
HETATM   31  H   UNL     1     -10.082  13.382  63.871  1.00  0.00     0.000 HD 
ENDBRANCH  27  28
BRANCH  27  32
HETATM   32  C   UNL     1     -10.598  10.532  65.177  1.00  0.00    -0.121 C  
BRANCH  32  33
HETATM   33  C   UNL     1      -9.985   9.515  66.125  1.00  0.00    -0.342 A  
HETATM   34  C   UNL     1      -8.906   7.914  67.383  1.00  0.00    -0.127 A  
HETATM   35  H   UNL     1     -10.093   8.259  69.102  1.00  0.00     0.000 HD 
HETATM   36  C   UNL     1      -8.014   6.900  67.768  1.00  0.00    -0.114 A  
HETATM   37  C   UNL     1     -10.524   9.448  67.407  1.00  0.00    -0.278 A  
HETATM   38  C   UNL     1      -7.121   6.432  66.812  1.00  0.00    -0.073 A  
HETATM   39  N   UNL     1      -9.879   8.499  68.134  1.00  0.00    -0.160 NA 
HETATM   40  C   UNL     1      -7.133   6.961  65.522  1.00  0.00    -0.068 A  
HETATM   41  C   UNL     1      -8.029   7.989  65.157  1.00  0.00    -0.127 A  
HETATM   42  C   UNL     1      -8.945   8.499  66.102  1.00  0.00    -0.220 A  
ENDBRANCH  32  33
ENDBRANCH  27  32
ENDBRANCH  24  27
ENDBRANCH  11  23
ENDBRANCH   7  11
TORSDOF 8
ENDMDL
MODEL      378
REMARK 921   NORMALIZED FREE ENERGY PREDICTED BY IDOCK:   -4.24 KCAL/MOL
REMARK 922        TOTAL FREE ENERGY PREDICTED BY IDOCK:   -8.37 KCAL/MOL
REMARK 923 INTER-LIGAND FREE ENERGY PREDICTED BY IDOCK:   -6.48 KCAL/MOL
REMARK 924 INTRA-LIGAND FREE ENERGY PREDICTED BY IDOCK:   -1.89 KCAL/MOL
REMARK 927      BINDING AFFINITY PREDICTED BY RF-SCORE:    0.00 PKD
ROOT
HETATM    1  C   UNL     1      -9.140   2.429  70.718  1.00  0.00    -0.182 C  
HETATM    2  C   UNL     1      -9.034   3.754  71.498  1.00  0.00    -0.107 C  
HETATM    3  C   UNL     1      -9.477   5.089  70.591  1.00  0.00    -0.169 C  
HETATM    4  N   UNL     1      -7.611   3.908  71.917  1.00  0.00    -0.060 NA 
HETATM    5  C   UNL     1      -9.854   3.520  72.797  1.00  0.00    -0.206 C  
HETATM    6  H2  UNL     1      -6.956   3.851  71.137  1.00  0.00     0.000 HD 
HETATM    7  N   UNL     1      -8.482   5.711  69.828  1.00  0.00    -0.106 N  
HETATM    8  H1  UNL     1      -7.541   4.786  72.434  1.00  0.00     0.000 HD 
HETATM    9  O   UNL     1     -10.641   5.486  70.561  1.00  0.00    -0.269 OA 
HETATM   10  H   UNL     1      -7.546   5.374  70.054  1.00  0.00     0.000 HD 
ENDROOT
BRANCH   7  11
HETATM   11  C   UNL     1      -8.474   6.808  68.705  1.00  0.00    -0.124 C  
BRANCH  11  12
HETATM   12  C   UNL     1      -7.317   6.988  67.616  1.00  0.00    -0.096 C  
BRANCH  12  13
HETATM   13  C   UNL     1      -7.685   7.148  66.063  1.00  0.00    -0.099 A  
HETATM   14  C   UNL     1      -7.950   6.162  65.131  1.00  0.00    -0.117 A  
HETATM   15  C   UNL     1      -7.853  10.772  64.598  1.00  0.00     0.200 A  
HETATM   16  C   UNL     1      -7.833  10.412  63.253  1.00  0.00    -0.102 A  
HETATM   17  C   UNL     1      -7.877   9.064  62.896  1.00  0.00    -0.131 A  
HETATM   18  N   UNL     1      -8.052   6.728  63.861  1.00  0.00    -0.286 NA 
HETATM   19  C   UNL     1      -7.837   9.790  65.611  1.00  0.00    -0.114 A  
HETATM   20  C   UNL     1      -7.813   8.407  65.289  1.00  0.00    -0.111 A  
HETATM   21  C   UNL     1      -7.903   8.092  63.933  1.00  0.00    -0.147 A  
HETATM   22  H   UNL     1      -8.214   6.205  63.001  1.00  0.00     0.000 HD 
ENDBRANCH  12  13
ENDBRANCH  11  12
BRANCH  11  23
HETATM   23  C   UNL     1      -8.942   8.133  69.365  1.00  0.00    -0.147 C  
HETATM   24  N   UNL     1     -10.247   8.527  69.140  1.00  0.00    -0.207 N  
HETATM   25  H   UNL     1     -10.895   7.890  68.678  1.00  0.00     0.000 HD 
HETATM   26  O   UNL     1      -8.140   8.834  69.989  1.00  0.00    -0.099 OA 
BRANCH  24  27
HETATM   27  C   UNL     1     -10.698   9.835  69.555  1.00  0.00    -0.233 C  
BRANCH  27  28
HETATM   28  N   UNL     1     -10.578   9.931  70.987  1.00  0.00    -0.326 N  
HETATM   29  O   UNL     1     -12.205   8.357  71.455  1.00  0.00    -0.297 OA 
HETATM   30  C   UNL     1     -11.360   9.162  71.818  1.00  0.00    -0.381 C  
HETATM   31  H   UNL     1      -9.903  10.579  71.392  1.00  0.00     0.000 HD 
ENDBRANCH  27  28
BRANCH  27  32
HETATM   32  C   UNL     1     -10.185  11.065  68.775  1.00  0.00    -0.211 C  
BRANCH  32  33
HETATM   33  C   UNL     1     -10.551  11.526  67.374  1.00  0.00    -0.252 A  
HETATM   34  C   UNL     1     -11.085  12.450  65.332  1.00  0.00    -0.306 A  
HETATM   35  H   UNL     1     -11.335  10.573  64.387  1.00  0.00     0.000 HD 
HETATM   36  C   UNL     1     -11.340  13.391  64.322  1.00  0.00    -0.420 A  
HETATM   37  C   UNL     1     -10.796  10.532  66.431  1.00  0.00    -0.024 A  
HETATM   38  C   UNL     1     -11.286  14.737  64.666  1.00  0.00    -0.370 A  
HETATM   39  N   UNL     1     -11.111  11.093  65.235  1.00  0.00    -0.083 NA 
HETATM   40  C   UNL     1     -10.993  15.113  65.976  1.00  0.00    -0.332 A  
HETATM   41  C   UNL     1     -10.726  14.153  66.976  1.00  0.00    -0.285 A  
HETATM   42  C   UNL     1     -10.762  12.777  66.664  1.00  0.00    -0.279 A  
ENDBRANCH  32  33
ENDBRANCH  27  32
ENDBRANCH  24  27
ENDBRANCH  11  23
ENDBRANCH   7  11
TORSDOF 8
ENDMDL
MODEL      379
REMARK 921   NORMALIZED FREE ENERGY PREDICTED BY IDOCK:   -4.23 KCAL/MOL
REMARK 922        TOTAL FREE ENERGY PREDICTED BY IDOCK:   -8.36 KCAL/MOL
REMARK 923 INTER-LIGAND FREE ENERGY PREDICTED BY IDOCK:   -6.59 KCAL/MOL
REMARK 924 INTRA-LIGAND FREE ENERGY PREDICTED BY IDOCK:   -1.76 KCAL/MOL
REMARK 927      BINDING AFFINITY PREDICTED BY RF-SCORE:    0.00 PKD
ROOT
HETATM    1  C   UNL     1      -8.284   7.632  62.409  1.00  0.00    -0.106 C  
HETATM    2  C   UNL     1      -7.958   8.875  63.259  1.00  0.00    -0.157 C  
HETATM    3  C   UNL     1      -8.296   8.668  64.886  1.00  0.00    -0.164 C  
HETATM    4  N   UNL     1      -8.787  10.000  62.735  1.00  0.00    -0.211 NA 
HETATM    5  C   UNL     1      -6.482   9.219  62.917  1.00  0.00    -0.094 C  
HETATM    6  H2  UNL     1      -9.783   9.783  62.710  1.00  0.00     0.000 HD 
HETATM    7  N   UNL     1      -9.590   8.978  65.321  1.00  0.00    -0.448 N  
HETATM    8  H1  UNL     1      -8.571  10.822  63.299  1.00  0.00     0.000 HD 
HETATM    9  O   UNL     1      -7.455   8.220  65.664  1.00  0.00    -0.077 OA 
HETATM   10  H   UNL     1     -10.136   9.468  64.612  1.00  0.00     0.000 HD 
ENDROOT
BRANCH   7  11
HETATM   11  C   UNL     1     -10.394   8.745  66.649  1.00  0.00    -0.228 C  
BRANCH  11  12
HETATM   12  C   UNL     1     -10.386   9.737  67.903  1.00  0.00    -0.258 C  
BRANCH  12  13
HETATM   13  C   UNL     1     -10.660  11.304  67.698  1.00  0.00    -0.252 A  
HETATM   14  C   UNL     1     -11.857  11.947  67.444  1.00  0.00    -0.168 A  
HETATM   15  C   UNL     1      -7.595  13.728  67.891  1.00  0.00    -0.157 A  
HETATM   16  C   UNL     1      -8.219  14.836  67.324  1.00  0.00    -0.237 A  
HETATM   17  C   UNL     1      -9.579  14.784  67.020  1.00  0.00    -0.248 A  
HETATM   18  N   UNL     1     -11.621  13.292  67.163  1.00  0.00    -0.337 NA 
HETATM   19  C   UNL     1      -8.300  12.522  68.092  1.00  0.00    -0.175 A  
HETATM   20  C   UNL     1      -9.669  12.408  67.732  1.00  0.00    -0.201 A  
HETATM   21  C   UNL     1     -10.280  13.574  67.269  1.00  0.00    -0.242 A  
HETATM   22  H   UNL     1     -12.341  13.970  66.914  1.00  0.00     0.000 HD 
ENDBRANCH  12  13
ENDBRANCH  11  12
BRANCH  11  23
HETATM   23  C   UNL     1     -10.232   7.247  67.018  1.00  0.00    -0.278 C  
HETATM   24  N   UNL     1      -9.111   6.890  67.743  1.00  0.00    -0.119 N  
HETATM   25  H   UNL     1      -8.506   7.615  68.128  1.00  0.00     0.000 HD 
HETATM   26  O   UNL     1     -11.038   6.411  66.598  1.00  0.00    -0.292 OA 
BRANCH  24  27
HETATM   27  C   UNL     1      -8.791   5.498  67.957  1.00  0.00    -0.105 C  
BRANCH  27  28
HETATM   28  N   UNL     1      -7.833   5.087  66.963  1.00  0.00    -0.096 N  
HETATM   29  O   UNL     1      -9.248   3.614  65.882  1.00  0.00    -0.147 OA 
HETATM   30  C   UNL     1      -8.163   4.164  65.996  1.00  0.00    -0.105 C  
HETATM   31  H   UNL     1      -6.894   5.486  66.976  1.00  0.00     0.000 HD 
ENDBRANCH  27  28
BRANCH  27  32
HETATM   32  C   UNL     1      -8.476   5.035  69.395  1.00  0.00    -0.087 C  
BRANCH  32  33
HETATM   33  C   UNL     1      -8.989   5.595  70.712  1.00  0.00    -0.154 A  
HETATM   34  C   UNL     1      -9.541   6.509  72.754  1.00  0.00    -0.149 A  
HETATM   35  H   UNL     1     -11.598   6.042  72.568  1.00  0.00     0.000 HD 
HETATM   36  C   UNL     1      -9.436   7.153  73.996  1.00  0.00    -0.303 A  
HETATM   37  C   UNL     1     -10.355   5.471  70.955  1.00  0.00    -0.239 A  
HETATM   38  C   UNL     1      -8.170   7.548  74.412  1.00  0.00    -0.248 A  
HETATM   39  N   UNL     1     -10.662   6.012  72.162  1.00  0.00    -0.217 NA 
HETATM   40  C   UNL     1      -7.058   7.296  73.609  1.00  0.00    -0.083 A  
HETATM   41  C   UNL     1      -7.185   6.658  72.356  1.00  0.00    -0.087 A  
HETATM   42  C   UNL     1      -8.455   6.250  71.894  1.00  0.00    -0.124 A  
ENDBRANCH  32  33
ENDBRANCH  27  32
ENDBRANCH  24  27
ENDBRANCH  11  23
ENDBRANCH   7  11
TORSDOF 8
ENDMDL
MODEL      380
REMARK 921   NORMALIZED FREE ENERGY PREDICTED BY IDOCK:   -4.22 KCAL/MOL
REMARK 922        TOTAL FREE ENERGY PREDICTED BY IDOCK:   -8.34 KCAL/MOL
REMARK 923 INTER-LIGAND FREE ENERGY PREDICTED BY IDOCK:   -6.82 KCAL/MOL
REMARK 924 INTRA-LIGAND FREE ENERGY PREDICTED BY IDOCK:   -1.52 KCAL/MOL
REMARK 927      BINDING AFFINITY PREDICTED BY RF-SCORE:    0.00 PKD
ROOT
HETATM    1  C   UNL     1     -13.664   9.572  70.615  1.00  0.00     0.277 C  
HETATM    2  C   UNL     1     -12.473  10.505  70.909  1.00  0.00    -0.390 C  
HETATM    3  C   UNL     1     -11.740  11.095  69.524  1.00  0.00    -0.335 C  
HETATM    4  N   UNL     1     -11.472   9.715  71.683  1.00  0.00    -0.367 NA 
HETATM    5  C   UNL     1     -13.035  11.578  71.882  1.00  0.00    -0.453 C  
HETATM    6  H2  UNL     1     -11.197   8.851  71.215  1.00  0.00     0.000 HD 
HETATM    7  N   UNL     1     -10.717  10.325  68.957  1.00  0.00    -0.214 N  
HETATM    8  H1  UNL     1     -10.684  10.333  71.878  1.00  0.00     0.000 HD 
HETATM    9  O   UNL     1     -12.112  12.143  68.998  1.00  0.00    -0.267 OA 
HETATM   10  H   UNL     1     -10.415   9.564  69.565  1.00  0.00     0.000 HD 
ENDROOT
BRANCH   7  11
HETATM   11  C   UNL     1      -9.928  10.365  67.601  1.00  0.00    -0.174 C  
BRANCH  11  12
HETATM   12  C   UNL     1     -10.605  10.473  66.157  1.00  0.00    -0.182 C  
BRANCH  12  13
HETATM   13  C   UNL     1     -10.945  11.909  65.528  1.00  0.00    -0.347 A  
HETATM   14  C   UNL     1     -11.775  12.212  64.465  1.00  0.00    -0.338 A  
HETATM   15  C   UNL     1      -9.228  15.045  67.117  1.00  0.00    -0.229 A  
HETATM   16  C   UNL     1      -9.512  15.934  66.084  1.00  0.00    -0.375 A  
HETATM   17  C   UNL     1     -10.309  15.524  65.016  1.00  0.00    -0.327 A  
HETATM   18  N   UNL     1     -11.651  13.563  64.139  1.00  0.00    -0.480 NA 
HETATM   19  C   UNL     1      -9.671  13.706  67.062  1.00  0.00    -0.251 A  
HETATM   20  C   UNL     1     -10.427  13.230  65.958  1.00  0.00    -0.289 A  
HETATM   21  C   UNL     1     -10.779  14.183  65.001  1.00  0.00    -0.416 A  
HETATM   22  H   UNL     1     -12.138  14.023  63.371  1.00  0.00     0.000 HD 
ENDBRANCH  12  13
ENDBRANCH  11  12
BRANCH  11  23
HETATM   23  C   UNL     1      -8.803   9.299  67.702  1.00  0.00    -0.119 C  
HETATM   24  N   UNL     1      -9.089   8.140  68.397  1.00  0.00    -0.136 N  
HETATM   25  H   UNL     1     -10.045   7.954  68.699  1.00  0.00     0.000 HD 
HETATM   26  O   UNL     1      -7.680   9.535  67.247  1.00  0.00    -0.091 OA 
BRANCH  24  27
HETATM   27  C   UNL     1      -8.042   7.192  68.699  1.00  0.00    -0.124 C  
BRANCH  27  28
HETATM   28  N   UNL     1      -7.086   7.823  69.572  1.00  0.00    -0.062 N  
HETATM   29  O   UNL     1      -5.216   6.999  68.493  1.00  0.00    -0.015 OA 
HETATM   30  C   UNL     1      -5.733   7.664  69.378  1.00  0.00    -0.023 C  
HETATM   31  H   UNL     1      -7.418   8.398  70.347  1.00  0.00     0.000 HD 
ENDBRANCH  27  28
BRANCH  27  32
HETATM   32  C   UNL     1      -8.450   5.760  69.107  1.00  0.00    -0.107 C  
BRANCH  32  33
HETATM   33  C   UNL     1      -8.774   4.571  68.218  1.00  0.00    -0.113 A  
HETATM   34  C   UNL     1      -9.263   2.922  66.685  1.00  0.00    -0.114 A  
HETATM   35  H   UNL     1      -9.339   1.389  68.143  1.00  0.00     0.000 HD 
HETATM   36  C   UNL     1      -9.528   2.268  65.471  1.00  0.00     0.113 A  
HETATM   37  C   UNL     1      -8.904   3.335  68.846  1.00  0.00    -0.114 A  
HETATM   38  C   UNL     1      -9.582   3.044  64.319  1.00  0.00    -0.149 A  
HETATM   39  N   UNL     1      -9.194   2.376  67.930  1.00  0.00    -0.190 NA 
HETATM   40  C   UNL     1      -9.381   4.422  64.393  1.00  0.00    -0.134 A  
HETATM   41  C   UNL     1      -9.103   5.061  65.621  1.00  0.00    -0.157 A  
HETATM   42  C   UNL     1      -9.031   4.305  66.812  1.00  0.00    -0.125 A  
ENDBRANCH  32  33
ENDBRANCH  27  32
ENDBRANCH  24  27
ENDBRANCH  11  23
ENDBRANCH   7  11
TORSDOF 8
ENDMDL
MODEL      381
REMARK 921   NORMALIZED FREE ENERGY PREDICTED BY IDOCK:   -4.22 KCAL/MOL
REMARK 922        TOTAL FREE ENERGY PREDICTED BY IDOCK:   -8.33 KCAL/MOL
REMARK 923 INTER-LIGAND FREE ENERGY PREDICTED BY IDOCK:   -7.56 KCAL/MOL
REMARK 924 INTRA-LIGAND FREE ENERGY PREDICTED BY IDOCK:   -0.77 KCAL/MOL
REMARK 927      BINDING AFFINITY PREDICTED BY RF-SCORE:    0.00 PKD
ROOT
HETATM    1  C   UNL     1      -8.306   7.279  73.329  1.00  0.00    -0.146 C  
HETATM    2  C   UNL     1      -9.525   6.781  72.528  1.00  0.00    -0.139 C  
HETATM    3  C   UNL     1     -10.045   7.874  71.372  1.00  0.00    -0.176 C  
HETATM    4  N   UNL     1     -10.630   6.548  73.502  1.00  0.00    -0.316 NA 
HETATM    5  C   UNL     1      -9.107   5.383  71.992  1.00  0.00    -0.149 C  
HETATM    6  H2  UNL     1     -10.836   7.367  74.075  1.00  0.00     0.000 HD 
HETATM    7  N   UNL     1     -10.977   8.840  71.771  1.00  0.00    -0.320 N  
HETATM    8  H1  UNL     1     -11.436   6.218  72.972  1.00  0.00     0.000 HD 
HETATM    9  O   UNL     1      -9.597   7.859  70.227  1.00  0.00    -0.171 OA 
HETATM   10  H   UNL     1     -11.366   8.653  72.694  1.00  0.00     0.000 HD 
ENDROOT
BRANCH   7  11
HETATM   11  C   UNL     1     -11.560  10.146  71.123  1.00  0.00    -0.346 C  
BRANCH  11  12
HETATM   12  C   UNL     1     -13.009  10.747  71.433  1.00  0.00    -0.535 C  
BRANCH  12  13
HETATM   13  C   UNL     1     -13.194  12.319  71.694  1.00  0.00    -0.356 A  
HETATM   14  C   UNL     1     -13.935  12.951  72.674  1.00  0.00     0.092 A  
HETATM   15  C   UNL     1     -11.373  14.791  69.269  1.00  0.00    -0.317 A  
HETATM   16  C   UNL     1     -12.078  15.935  69.633  1.00  0.00    -0.216 A  
HETATM   17  C   UNL     1     -12.996  15.879  70.682  1.00  0.00     0.085 A  
HETATM   18  N   UNL     1     -13.962  14.325  72.434  1.00  0.00    -0.537 NA 
HETATM   19  C   UNL     1     -11.629  13.553  69.894  1.00  0.00    -0.271 A  
HETATM   20  C   UNL     1     -12.604  13.439  70.920  1.00  0.00    -0.406 A  
HETATM   21  C   UNL     1     -13.208  14.630  71.326  1.00  0.00    -0.369 A  
HETATM   22  H   UNL     1     -14.468  15.005  72.999  1.00  0.00     0.000 HD 
ENDBRANCH  12  13
ENDBRANCH  11  12
BRANCH  11  23
HETATM   23  C   UNL     1     -11.195  10.103  69.615  1.00  0.00    -0.261 C  
HETATM   24  N   UNL     1      -9.904  10.448  69.265  1.00  0.00    -0.222 N  
HETATM   25  H   UNL     1      -9.201  10.582  69.991  1.00  0.00     0.000 HD 
HETATM   26  O   UNL     1     -12.062   9.853  68.772  1.00  0.00     0.343 OA 
BRANCH  24  27
HETATM   27  C   UNL     1      -9.545  10.620  67.876  1.00  0.00    -0.162 C  
BRANCH  27  28
HETATM   28  N   UNL     1      -9.470   9.322  67.255  1.00  0.00    -0.140 N  
HETATM   29  O   UNL     1     -10.324   9.998  65.217  1.00  0.00    -0.236 OA 
HETATM   30  C   UNL     1      -9.874   9.133  65.953  1.00  0.00    -0.235 C  
HETATM   31  H   UNL     1      -9.112   8.530  67.789  1.00  0.00     0.000 HD 
ENDBRANCH  27  28
BRANCH  27  32
HETATM   32  C   UNL     1     -10.293  11.692  67.056  1.00  0.00    -0.248 C  
BRANCH  32  33
HETATM   33  C   UNL     1      -9.806  13.058  66.603  1.00  0.00    -0.252 A  
HETATM   34  C   UNL     1      -8.926  15.130  66.110  1.00  0.00    -0.166 A  
HETATM   35  H   UNL     1     -10.085  15.364  64.354  1.00  0.00     0.000 HD 
HETATM   36  C   UNL     1      -8.156  16.301  66.184  1.00  0.00    -0.130 A  
HETATM   37  C   UNL     1     -10.363  13.566  65.432  1.00  0.00    -0.319 A  
HETATM   38  C   UNL     1      -7.310  16.448  67.277  1.00  0.00    -0.209 A  
HETATM   39  N   UNL     1      -9.836  14.787  65.157  1.00  0.00    -0.236 NA 
HETATM   40  C   UNL     1      -7.250  15.457  68.254  1.00  0.00    -0.118 A  
HETATM   41  C   UNL     1      -8.022  14.279  68.157  1.00  0.00    -0.140 A  
HETATM   42  C   UNL     1      -8.886  14.088  67.057  1.00  0.00    -0.234 A  
ENDBRANCH  32  33
ENDBRANCH  27  32
ENDBRANCH  24  27
ENDBRANCH  11  23
ENDBRANCH   7  11
TORSDOF 8
ENDMDL
MODEL      382
REMARK 921   NORMALIZED FREE ENERGY PREDICTED BY IDOCK:   -4.21 KCAL/MOL
REMARK 922        TOTAL FREE ENERGY PREDICTED BY IDOCK:   -8.32 KCAL/MOL
REMARK 923 INTER-LIGAND FREE ENERGY PREDICTED BY IDOCK:   -6.65 KCAL/MOL
REMARK 924 INTRA-LIGAND FREE ENERGY PREDICTED BY IDOCK:   -1.68 KCAL/MOL
REMARK 927      BINDING AFFINITY PREDICTED BY RF-SCORE:    0.00 PKD
ROOT
HETATM    1  C   UNL     1      -8.222  17.070  66.324  1.00  0.00    -0.322 C  
HETATM    2  C   UNL     1      -9.716  16.714  66.450  1.00  0.00    -0.286 C  
HETATM    3  C   UNL     1     -10.001  15.418  67.471  1.00  0.00    -0.226 C  
HETATM    4  N   UNL     1     -10.204  16.366  65.084  1.00  0.00    -0.567 NA 
HETATM    5  C   UNL     1     -10.414  18.046  66.842  1.00  0.00    -0.350 C  
HETATM    6  H2  UNL     1      -9.654  15.631  64.639  1.00  0.00     0.000 HD 
HETATM    7  N   UNL     1      -9.966  14.135  66.912  1.00  0.00    -0.255 N  
HETATM    8  H1  UNL     1     -11.193  16.130  65.167  1.00  0.00     0.000 HD 
HETATM    9  O   UNL     1     -10.193  15.581  68.675  1.00  0.00    -0.208 OA 
HETATM   10  H   UNL     1      -9.940  14.152  65.893  1.00  0.00     0.000 HD 
ENDROOT
BRANCH   7  11
HETATM   11  C   UNL     1      -9.956  12.677  67.493  1.00  0.00    -0.205 C  
BRANCH  11  12
HETATM   12  C   UNL     1      -8.827  12.090  68.461  1.00  0.00    -0.095 C  
BRANCH  12  13
HETATM   13  C   UNL     1      -9.073  10.718  69.253  1.00  0.00    -0.056 A  
HETATM   14  C   UNL     1      -8.221   9.639  69.400  1.00  0.00    -0.132 A  
HETATM   15  C   UNL     1     -12.528  10.233  71.023  1.00  0.00    -0.484 A  
HETATM   16  C   UNL     1     -12.420   8.861  71.233  1.00  0.00    -0.321 A  
HETATM   17  C   UNL     1     -11.235   8.202  70.907  1.00  0.00    -0.286 A  
HETATM   18  N   UNL     1      -8.894   8.585  70.017  1.00  0.00    -0.138 NA 
HETATM   19  C   UNL     1     -11.484  10.957  70.409  1.00  0.00    -0.367 A  
HETATM   20  C   UNL     1     -10.288  10.310  70.000  1.00  0.00    -0.255 A  
HETATM   21  C   UNL     1     -10.180   8.958  70.328  1.00  0.00    -0.201 A  
HETATM   22  H   UNL     1      -8.491   7.669  70.209  1.00  0.00     0.000 HD 
ENDBRANCH  12  13
ENDBRANCH  11  12
BRANCH  11  23
HETATM   23  C   UNL     1     -10.362  11.727  66.335  1.00  0.00    -0.222 C  
HETATM   24  N   UNL     1      -9.356  11.278  65.501  1.00  0.00    -0.222 N  
HETATM   25  H   UNL     1      -8.382  11.460  65.740  1.00  0.00     0.000 HD 
HETATM   26  O   UNL     1     -11.551  11.465  66.132  1.00  0.00    -0.286 OA 
BRANCH  24  27
HETATM   27  C   UNL     1      -9.676  10.553  64.294  1.00  0.00    -0.330 C  
BRANCH  27  28
HETATM   28  N   UNL     1      -9.257  11.336  63.160  1.00  0.00    -0.447 N  
HETATM   29  O   UNL     1      -7.190  10.326  62.940  1.00  0.00    -0.138 OA 
HETATM   30  C   UNL     1      -8.026  11.140  62.577  1.00  0.00     0.017 C  
HETATM   31  H   UNL     1      -9.883  12.048  62.783  1.00  0.00     0.000 HD 
ENDBRANCH  27  28
BRANCH  27  32
HETATM   32  C   UNL     1      -9.307   9.055  64.222  1.00  0.00     0.450 C  
BRANCH  32  33
HETATM   33  C   UNL     1      -8.873   8.126  65.344  1.00  0.00    -0.086 A  
HETATM   34  C   UNL     1      -8.005   6.700  66.932  1.00  0.00    -0.109 A  
HETATM   35  H   UNL     1      -9.775   6.683  68.093  1.00  0.00     0.000 HD 
HETATM   36  C   UNL     1      -7.116   5.868  67.631  1.00  0.00    -0.074 A  
HETATM   37  C   UNL     1      -9.810   7.867  66.341  1.00  0.00    -0.147 A  
HETATM   38  C   UNL     1      -5.860   5.655  67.075  1.00  0.00    -0.018 A  
HETATM   39  N   UNL     1      -9.284   7.024  67.267  1.00  0.00    -0.126 NA 
HETATM   40  C   UNL     1      -5.520   6.254  65.862  1.00  0.00    -0.014 A  
HETATM   41  C   UNL     1      -6.422   7.098  65.180  1.00  0.00    -0.040 A  
HETATM   42  C   UNL     1      -7.704   7.347  65.717  1.00  0.00    -0.102 A  
ENDBRANCH  32  33
ENDBRANCH  27  32
ENDBRANCH  24  27
ENDBRANCH  11  23
ENDBRANCH   7  11
TORSDOF 8
ENDMDL
MODEL      383
REMARK 921   NORMALIZED FREE ENERGY PREDICTED BY IDOCK:   -4.18 KCAL/MOL
REMARK 922        TOTAL FREE ENERGY PREDICTED BY IDOCK:   -8.28 KCAL/MOL
REMARK 923 INTER-LIGAND FREE ENERGY PREDICTED BY IDOCK:   -7.14 KCAL/MOL
REMARK 924 INTRA-LIGAND FREE ENERGY PREDICTED BY IDOCK:   -1.15 KCAL/MOL
REMARK 927      BINDING AFFINITY PREDICTED BY RF-SCORE:    0.00 PKD
ROOT
HETATM    1  C   UNL     1      -9.556   3.894  71.707  1.00  0.00    -0.227 C  
HETATM    2  C   UNL     1      -9.068   5.195  72.372  1.00  0.00    -0.134 C  
HETATM    3  C   UNL     1      -9.338   6.556  71.435  1.00  0.00    -0.151 C  
HETATM    4  N   UNL     1      -7.601   5.053  72.601  1.00  0.00    -0.094 NA 
HETATM    5  C   UNL     1      -9.734   5.202  73.776  1.00  0.00    -0.149 C  
HETATM    6  H2  UNL     1      -7.086   4.820  71.751  1.00  0.00     0.000 HD 
HETATM    7  N   UNL     1      -8.347   6.912  70.513  1.00  0.00    -0.127 N  
HETATM    8  H1  UNL     1      -7.278   5.914  73.041  1.00  0.00     0.000 HD 
HETATM    9  O   UNL     1     -10.385   7.196  71.521  1.00  0.00    -0.202 OA 
HETATM   10  H   UNL     1      -7.482   6.388  70.644  1.00  0.00     0.000 HD 
ENDROOT
BRANCH   7  11
HETATM   11  C   UNL     1      -8.261   7.932  69.323  1.00  0.00    -0.128 C  
BRANCH  11  12
HETATM   12  C   UNL     1      -6.913   8.326  68.558  1.00  0.00    -0.069 C  
BRANCH  12  13
HETATM   13  C   UNL     1      -6.976   9.026  67.116  1.00  0.00    -0.078 A  
HETATM   14  C   UNL     1      -6.786  10.356  66.791  1.00  0.00    -0.091 A  
HETATM   15  C   UNL     1      -7.802   6.764  64.031  1.00  0.00    -0.106 A  
HETATM   16  C   UNL     1      -8.093   7.793  63.140  1.00  0.00    -0.078 A  
HETATM   17  C   UNL     1      -7.909   9.120  63.530  1.00  0.00    -0.132 A  
HETATM   18  N   UNL     1      -7.102  10.564  65.448  1.00  0.00    -0.273 NA 
HETATM   19  C   UNL     1      -7.397   7.043  65.354  1.00  0.00    -0.080 A  
HETATM   20  C   UNL     1      -7.263   8.382  65.810  1.00  0.00    -0.072 A  
HETATM   21  C   UNL     1      -7.460   9.378  64.853  1.00  0.00    -0.107 A  
HETATM   22  H   UNL     1      -7.071  11.467  64.976  1.00  0.00     0.000 HD 
ENDBRANCH  12  13
ENDBRANCH  11  12
BRANCH  11  23
HETATM   23  C   UNL     1      -9.159   9.141  69.699  1.00  0.00    -0.160 C  
HETATM   24  N   UNL     1     -10.195   9.452  68.840  1.00  0.00    -0.194 N  
HETATM   25  H   UNL     1     -10.428   8.817  68.077  1.00  0.00     0.000 HD 
HETATM   26  O   UNL     1      -8.888   9.835  70.683  1.00  0.00    -0.153 OA 
BRANCH  24  27
HETATM   27  C   UNL     1     -10.950  10.671  69.016  1.00  0.00    -0.248 C  
BRANCH  27  28
HETATM   28  N   UNL     1     -11.139  11.287  67.728  1.00  0.00    -0.249 N  
HETATM   29  O   UNL     1      -9.445  12.840  67.969  1.00  0.00    -0.201 OA 
HETATM   30  C   UNL     1     -10.347  12.335  67.318  1.00  0.00    -0.214 C  
HETATM   31  H   UNL     1     -11.872  10.940  67.109  1.00  0.00     0.000 HD 
ENDBRANCH  27  28
BRANCH  27  32
HETATM   32  C   UNL     1     -12.209  10.627  69.908  1.00  0.00    -0.346 C  
BRANCH  32  33
HETATM   33  C   UNL     1     -12.737  11.683  70.865  1.00  0.00    -0.351 A  
HETATM   34  C   UNL     1     -13.421  13.445  72.183  1.00  0.00    -0.552 A  
HETATM   35  H   UNL     1     -14.519  12.213  73.510  1.00  0.00     0.000 HD 
HETATM   36  C   UNL     1     -13.600  14.746  72.679  1.00  0.00    -0.565 A  
HETATM   37  C   UNL     1     -13.537  11.235  71.913  1.00  0.00    -0.011 A  
HETATM   38  C   UNL     1     -12.951  15.782  72.019  1.00  0.00    -0.513 A  
HETATM   39  N   UNL     1     -13.929  12.284  72.681  1.00  0.00     0.148 NA 
HETATM   40  C   UNL     1     -12.150  15.513  70.910  1.00  0.00    -0.433 A  
HETATM   41  C   UNL     1     -11.991  14.200  70.418  1.00  0.00    -0.400 A  
HETATM   42  C   UNL     1     -12.643  13.121  71.055  1.00  0.00    -0.397 A  
ENDBRANCH  32  33
ENDBRANCH  27  32
ENDBRANCH  24  27
ENDBRANCH  11  23
ENDBRANCH   7  11
TORSDOF 8
ENDMDL
MODEL      384
REMARK 921   NORMALIZED FREE ENERGY PREDICTED BY IDOCK:   -4.16 KCAL/MOL
REMARK 922        TOTAL FREE ENERGY PREDICTED BY IDOCK:   -8.24 KCAL/MOL
REMARK 923 INTER-LIGAND FREE ENERGY PREDICTED BY IDOCK:   -7.38 KCAL/MOL
REMARK 924 INTRA-LIGAND FREE ENERGY PREDICTED BY IDOCK:   -0.86 KCAL/MOL
REMARK 927      BINDING AFFINITY PREDICTED BY RF-SCORE:    0.00 PKD
ROOT
HETATM    1  C   UNL     1      -9.304   7.761  66.163  1.00  0.00    -0.162 C  
HETATM    2  C   UNL     1      -8.721   6.646  67.054  1.00  0.00    -0.113 C  
HETATM    3  C   UNL     1      -9.702   6.261  68.355  1.00  0.00    -0.124 C  
HETATM    4  N   UNL     1      -7.409   7.133  67.569  1.00  0.00    -0.090 NA 
HETATM    5  C   UNL     1      -8.406   5.478  66.079  1.00  0.00    -0.122 C  
HETATM    6  H2  UNL     1      -7.476   8.032  68.047  1.00  0.00     0.000 HD 
HETATM    7  N   UNL     1      -9.529   6.995  69.534  1.00  0.00    -0.147 N  
HETATM    8  H1  UNL     1      -7.023   6.395  68.159  1.00  0.00     0.000 HD 
HETATM    9  O   UNL     1     -10.572   5.395  68.267  1.00  0.00    -0.160 OA 
HETATM   10  H   UNL     1      -8.690   7.574  69.516  1.00  0.00     0.000 HD 
ENDROOT
BRANCH   7  11
HETATM   11  C   UNL     1     -10.329   7.131  70.878  1.00  0.00    -0.201 C  
BRANCH  11  12
HETATM   12  C   UNL     1     -11.423   6.086  71.395  1.00  0.00    -0.265 C  
BRANCH  12  13
HETATM   13  C   UNL     1     -10.983   4.831  72.293  1.00  0.00    -0.067 A  
HETATM   14  C   UNL     1     -11.357   4.520  73.587  1.00  0.00    -0.204 A  
HETATM   15  C   UNL     1      -8.497   2.252  70.720  1.00  0.00    -0.086 A  
HETATM   16  C   UNL     1      -8.149   1.609  71.904  1.00  0.00    -0.045 A  
HETATM   17  C   UNL     1      -8.792   1.951  73.093  1.00  0.00    -0.066 A  
HETATM   18  N   UNL     1     -10.609   3.436  74.047  1.00  0.00    -0.186 NA 
HETATM   19  C   UNL     1      -9.437   3.304  70.715  1.00  0.00    -0.237 A  
HETATM   20  C   UNL     1     -10.064   3.729  71.917  1.00  0.00    -0.194 A  
HETATM   21  C   UNL     1      -9.767   2.984  73.060  1.00  0.00    -0.109 A  
HETATM   22  H   UNL     1     -10.678   3.036  74.982  1.00  0.00     0.000 HD 
ENDBRANCH  12  13
ENDBRANCH  11  12
BRANCH  11  23
HETATM   23  C   UNL     1     -10.757   8.618  71.000  1.00  0.00    -0.228 C  
HETATM   24  N   UNL     1     -11.694   9.083  70.097  1.00  0.00    -0.463 N  
HETATM   25  H   UNL     1     -12.173   8.427  69.481  1.00  0.00     0.000 HD 
HETATM   26  O   UNL     1     -10.207   9.358  71.820  1.00  0.00    -0.228 OA 
BRANCH  24  27
HETATM   27  C   UNL     1     -11.998  10.494  70.022  1.00  0.00    -0.288 C  
BRANCH  27  28
HETATM   28  N   UNL     1     -12.425  10.943  71.322  1.00  0.00    -0.387 N  
HETATM   29  O   UNL     1     -12.597  13.174  70.743  1.00  0.00    -0.324 OA 
HETATM   30  C   UNL     1     -12.692  12.272  71.561  1.00  0.00    -0.233 C  
HETATM   31  H   UNL     1     -12.531  10.266  72.077  1.00  0.00     0.000 HD 
ENDBRANCH  27  28
BRANCH  27  32
HETATM   32  C   UNL     1     -10.989  11.421  69.311  1.00  0.00    -0.282 C  
BRANCH  32  33
HETATM   33  C   UNL     1     -11.098  12.081  67.946  1.00  0.00    -0.289 A  
HETATM   34  C   UNL     1     -11.115  13.252  65.962  1.00  0.00    -0.283 A  
HETATM   35  H   UNL     1     -12.424  11.891  65.005  1.00  0.00     0.000 HD 
HETATM   36  C   UNL     1     -10.843  14.226  64.988  1.00  0.00    -0.414 A  
HETATM   37  C   UNL     1     -11.905  11.447  67.006  1.00  0.00     0.280 A  
HETATM   38  C   UNL     1     -10.025  15.289  65.350  1.00  0.00    -0.364 A  
HETATM   39  N   UNL     1     -11.905  12.150  65.844  1.00  0.00    -0.546 NA 
HETATM   40  C   UNL     1      -9.508  15.366  66.643  1.00  0.00    -0.281 A  
HETATM   41  C   UNL     1      -9.782  14.371  67.606  1.00  0.00    -0.219 A  
HETATM   42  C   UNL     1     -10.601  13.270  67.273  1.00  0.00    -0.250 A  
ENDBRANCH  32  33
ENDBRANCH  27  32
ENDBRANCH  24  27
ENDBRANCH  11  23
ENDBRANCH   7  11
TORSDOF 8
ENDMDL
MODEL      385
REMARK 921   NORMALIZED FREE ENERGY PREDICTED BY IDOCK:   -4.14 KCAL/MOL
REMARK 922        TOTAL FREE ENERGY PREDICTED BY IDOCK:   -8.22 KCAL/MOL
REMARK 923 INTER-LIGAND FREE ENERGY PREDICTED BY IDOCK:   -6.65 KCAL/MOL
REMARK 924 INTRA-LIGAND FREE ENERGY PREDICTED BY IDOCK:   -1.56 KCAL/MOL
REMARK 927      BINDING AFFINITY PREDICTED BY RF-SCORE:    0.00 PKD
ROOT
HETATM    1  C   UNL     1     -10.885   5.329  70.173  1.00  0.00    -0.093 C  
HETATM    2  C   UNL     1      -9.542   6.030  69.890  1.00  0.00    -0.158 C  
HETATM    3  C   UNL     1      -9.560   7.662  70.260  1.00  0.00    -0.172 C  
HETATM    4  N   UNL     1      -9.258   5.870  68.434  1.00  0.00    -0.117 NA 
HETATM    5  C   UNL     1      -8.480   5.181  70.642  1.00  0.00    -0.118 C  
HETATM    6  H2  UNL     1     -10.017   6.206  67.840  1.00  0.00     0.000 HD 
HETATM    7  N   UNL     1      -9.983   8.547  69.261  1.00  0.00    -0.190 N  
HETATM    8  H1  UNL     1      -8.369   6.334  68.247  1.00  0.00     0.000 HD 
HETATM    9  O   UNL     1      -9.253   8.069  71.380  1.00  0.00    -0.135 OA 
HETATM   10  H   UNL     1     -10.069   8.098  68.350  1.00  0.00     0.000 HD 
ENDROOT
BRANCH   7  11
HETATM   11  C   UNL     1     -10.357  10.071  69.221  1.00  0.00    -0.219 C  
BRANCH  11  12
HETATM   12  C   UNL     1     -11.846  10.646  69.315  1.00  0.00    -0.309 C  
BRANCH  12  13
HETATM   13  C   UNL     1     -12.109  12.227  69.248  1.00  0.00    -0.219 A  
HETATM   14  C   UNL     1     -12.037  13.070  68.155  1.00  0.00    -0.157 A  
HETATM   15  C   UNL     1     -13.057  14.055  72.575  1.00  0.00    -0.547 A  
HETATM   16  C   UNL     1     -12.833  15.353  72.125  1.00  0.00    -0.466 A  
HETATM   17  C   UNL     1     -12.507  15.575  70.787  1.00  0.00    -0.491 A  
HETATM   18  N   UNL     1     -12.170  14.395  68.571  1.00  0.00    -0.588 NA 
HETATM   19  C   UNL     1     -12.881  12.949  71.717  1.00  0.00    -0.339 A  
HETATM   20  C   UNL     1     -12.483  13.129  70.365  1.00  0.00    -0.280 A  
HETATM   21  C   UNL     1     -12.375  14.451  69.929  1.00  0.00    -0.314 A  
HETATM   22  H   UNL     1     -12.122  15.206  67.956  1.00  0.00     0.000 HD 
ENDBRANCH  12  13
ENDBRANCH  11  12
BRANCH  11  23
HETATM   23  C   UNL     1      -9.491  10.719  68.108  1.00  0.00    -0.158 C  
HETATM   24  N   UNL     1      -8.285  11.276  68.486  1.00  0.00    -0.145 N  
HETATM   25  H   UNL     1      -7.935  11.131  69.433  1.00  0.00     0.000 HD 
HETATM   26  O   UNL     1      -9.920  10.799  66.953  1.00  0.00    -0.188 OA 
BRANCH  24  27
HETATM   27  C   UNL     1      -7.517  12.064  67.549  1.00  0.00    -0.140 C  
BRANCH  27  28
HETATM   28  N   UNL     1      -6.807  13.084  68.278  1.00  0.00    -0.089 N  
HETATM   29  O   UNL     1      -8.689  14.288  68.871  1.00  0.00    -0.134 OA 
HETATM   30  C   UNL     1      -7.479  14.121  68.885  1.00  0.00    -0.112 C  
HETATM   31  H   UNL     1      -5.791  13.037  68.345  1.00  0.00     0.000 HD 
ENDBRANCH  27  28
BRANCH  27  32
HETATM   32  C   UNL     1      -6.680  11.321  66.486  1.00  0.00    -0.105 C  
BRANCH  32  33
HETATM   33  C   UNL     1      -6.660   9.839  66.153  1.00  0.00    -0.080 A  
HETATM   34  C   UNL     1      -6.710   7.651  65.430  1.00  0.00    -0.045 A  
HETATM   35  H   UNL     1      -6.008   6.877  67.271  1.00  0.00     0.000 HD 
HETATM   36  C   UNL     1      -6.880   6.522  64.613  1.00  0.00    -0.046 A  
HETATM   37  C   UNL     1      -6.233   8.976  67.159  1.00  0.00    -0.059 A  
HETATM   38  C   UNL     1      -7.377   6.724  63.331  1.00  0.00    -0.073 A  
HETATM   39  N   UNL     1      -6.271   7.692  66.718  1.00  0.00    -0.047 NA 
HETATM   40  C   UNL     1      -7.694   8.010  62.897  1.00  0.00    -0.135 A  
HETATM   41  C   UNL     1      -7.505   9.135  63.728  1.00  0.00    -0.106 A  
HETATM   42  C   UNL     1      -6.993   8.973  65.033  1.00  0.00    -0.080 A  
ENDBRANCH  32  33
ENDBRANCH  27  32
ENDBRANCH  24  27
ENDBRANCH  11  23
ENDBRANCH   7  11
TORSDOF 8
ENDMDL
MODEL      386
REMARK 921   NORMALIZED FREE ENERGY PREDICTED BY IDOCK:   -4.11 KCAL/MOL
REMARK 922        TOTAL FREE ENERGY PREDICTED BY IDOCK:   -8.18 KCAL/MOL
REMARK 923 INTER-LIGAND FREE ENERGY PREDICTED BY IDOCK:   -6.01 KCAL/MOL
REMARK 924 INTRA-LIGAND FREE ENERGY PREDICTED BY IDOCK:   -2.17 KCAL/MOL
REMARK 927      BINDING AFFINITY PREDICTED BY RF-SCORE:    0.00 PKD
ROOT
HETATM    1  C   UNL     1     -11.882   7.358  70.650  1.00  0.00    -0.245 C  
HETATM    2  C   UNL     1     -11.597   8.729  71.294  1.00  0.00    -0.292 C  
HETATM    3  C   UNL     1     -10.795   9.784  70.271  1.00  0.00    -0.301 C  
HETATM    4  N   UNL     1     -10.746   8.485  72.495  1.00  0.00    -0.300 NA 
HETATM    5  C   UNL     1     -12.974   9.218  71.822  1.00  0.00    -0.471 C  
HETATM    6  H2  UNL     1      -9.898   7.959  72.283  1.00  0.00     0.000 HD 
HETATM    7  N   UNL     1      -9.396   9.740  70.264  1.00  0.00    -0.346 N  
HETATM    8  H1  UNL     1     -10.557   9.392  72.921  1.00  0.00     0.000 HD 
HETATM    9  O   UNL     1     -11.410  10.542  69.522  1.00  0.00    -0.243 OA 
HETATM   10  H   UNL     1      -9.018   9.177  71.026  1.00  0.00     0.000 HD 
ENDROOT
BRANCH   7  11
HETATM   11  C   UNL     1      -8.276  10.356  69.354  1.00  0.00    -0.151 C  
BRANCH  11  12
HETATM   12  C   UNL     1      -8.543  11.350  68.130  1.00  0.00    -0.153 C  
BRANCH  12  13
HETATM   13  C   UNL     1      -8.945  10.771  66.689  1.00  0.00    -0.164 A  
HETATM   14  C   UNL     1     -10.205  10.568  66.159  1.00  0.00    -0.236 A  
HETATM   15  C   UNL     1      -6.046   9.727  64.276  1.00  0.00    -0.113 A  
HETATM   16  C   UNL     1      -6.825   8.997  63.383  1.00  0.00    -0.089 A  
HETATM   17  C   UNL     1      -8.211   8.969  63.534  1.00  0.00    -0.178 A  
HETATM   18  N   UNL     1     -10.103   9.886  64.946  1.00  0.00    -0.352 NA 
HETATM   19  C   UNL     1      -6.631  10.378  65.383  1.00  0.00    -0.109 A  
HETATM   20  C   UNL     1      -8.032  10.318  65.611  1.00  0.00    -0.150 A  
HETATM   21  C   UNL     1      -8.784   9.667  64.631  1.00  0.00    -0.201 A  
HETATM   22  H   UNL     1     -10.895   9.593  64.375  1.00  0.00     0.000 HD 
ENDBRANCH  12  13
ENDBRANCH  11  12
BRANCH  11  23
HETATM   23  C   UNL     1      -7.268   9.218  69.044  1.00  0.00    -0.071 C  
HETATM   24  N   UNL     1      -7.523   7.978  69.596  1.00  0.00    -0.088 N  
HETATM   25  H   UNL     1      -8.413   7.805  70.062  1.00  0.00     0.000 HD 
HETATM   26  O   UNL     1      -6.240   9.455  68.402  1.00  0.00    -0.051 OA 
BRANCH  24  27
HETATM   27  C   UNL     1      -6.538   6.924  69.515  1.00  0.00    -0.048 C  
BRANCH  27  28
HETATM   28  N   UNL     1      -5.295   7.414  70.055  1.00  0.00    -0.023 N  
HETATM   29  O   UNL     1      -6.110   7.799  72.183  1.00  0.00    -0.039 OA 
HETATM   30  C   UNL     1      -5.199   7.811  71.369  1.00  0.00    -0.030 C  
HETATM   31  H   UNL     1      -4.473   7.467  69.453  1.00  0.00     0.000 HD 
ENDBRANCH  27  28
BRANCH  27  32
HETATM   32  C   UNL     1      -6.940   5.511  69.987  1.00  0.00    -0.061 C  
BRANCH  32  33
HETATM   33  C   UNL     1      -8.181   5.077  70.750  1.00  0.00    -0.100 A  
HETATM   34  C   UNL     1      -9.973   4.539  72.095  1.00  0.00    -0.183 A  
HETATM   35  H   UNL     1     -10.957   3.431  70.585  1.00  0.00     0.000 HD 
HETATM   36  C   UNL     1     -10.828   4.461  73.206  1.00  0.00    -0.336 A  
HETATM   37  C   UNL     1      -9.106   4.302  70.055  1.00  0.00    -0.110 A  
HETATM   38  C   UNL     1     -10.416   5.077  74.381  1.00  0.00    -0.313 A  
HETATM   39  N   UNL     1     -10.153   3.992  70.862  1.00  0.00    -0.087 NA 
HETATM   40  C   UNL     1      -9.189   5.737  74.433  1.00  0.00    -0.130 A  
HETATM   41  C   UNL     1      -8.348   5.817  73.303  1.00  0.00    -0.116 A  
HETATM   42  C   UNL     1      -8.735   5.213  72.087  1.00  0.00    -0.132 A  
ENDBRANCH  32  33
ENDBRANCH  27  32
ENDBRANCH  24  27
ENDBRANCH  11  23
ENDBRANCH   7  11
TORSDOF 8
ENDMDL
MODEL      387
REMARK 921   NORMALIZED FREE ENERGY PREDICTED BY IDOCK:   -4.10 KCAL/MOL
REMARK 922        TOTAL FREE ENERGY PREDICTED BY IDOCK:   -8.16 KCAL/MOL
REMARK 923 INTER-LIGAND FREE ENERGY PREDICTED BY IDOCK:   -6.32 KCAL/MOL
REMARK 924 INTRA-LIGAND FREE ENERGY PREDICTED BY IDOCK:   -1.85 KCAL/MOL
REMARK 927      BINDING AFFINITY PREDICTED BY RF-SCORE:    0.00 PKD
ROOT
HETATM    1  C   UNL     1      -8.563   8.281  72.540  1.00  0.00    -0.273 C  
HETATM    2  C   UNL     1      -8.951   6.977  71.817  1.00  0.00    -0.133 C  
HETATM    3  C   UNL     1      -8.590   6.996  70.182  1.00  0.00    -0.140 C  
HETATM    4  N   UNL     1     -10.423   6.800  71.982  1.00  0.00    -0.201 NA 
HETATM    5  C   UNL     1      -8.276   5.846  72.642  1.00  0.00    -0.112 C  
HETATM    6  H2  UNL     1     -10.960   7.607  71.664  1.00  0.00     0.000 HD 
HETATM    7  N   UNL     1      -9.559   7.510  69.313  1.00  0.00    -0.158 N  
HETATM    8  H1  UNL     1     -10.679   5.936  71.503  1.00  0.00     0.000 HD 
HETATM    9  O   UNL     1      -7.498   6.614  69.762  1.00  0.00    -0.087 OA 
HETATM   10  H   UNL     1     -10.459   7.656  69.770  1.00  0.00     0.000 HD 
ENDROOT
BRANCH   7  11
HETATM   11  C   UNL     1      -9.580   7.912  67.796  1.00  0.00    -0.147 C  
BRANCH  11  12
HETATM   12  C   UNL     1     -10.619   8.935  67.140  1.00  0.00    -0.301 C  
BRANCH  12  13
HETATM   13  C   UNL     1     -10.766  10.424  67.719  1.00  0.00    -0.327 A  
HETATM   14  C   UNL     1     -10.505  10.884  68.996  1.00  0.00    -0.219 A  
HETATM   15  C   UNL     1     -12.060  13.202  65.287  1.00  0.00    -0.471 A  
HETATM   16  C   UNL     1     -12.355  14.154  66.260  1.00  0.00    -0.451 A  
HETATM   17  C   UNL     1     -12.030  13.906  67.593  1.00  0.00    -0.403 A  
HETATM   18  N   UNL     1     -10.931  12.207  69.117  1.00  0.00    -0.371 NA 
HETATM   19  C   UNL     1     -11.508  11.953  65.640  1.00  0.00    -0.314 A  
HETATM   20  C   UNL     1     -11.227  11.634  66.995  1.00  0.00    -0.376 A  
HETATM   21  C   UNL     1     -11.437  12.657  67.921  1.00  0.00    -0.309 A  
HETATM   22  H   UNL     1     -10.875  12.761  69.971  1.00  0.00     0.000 HD 
ENDBRANCH  12  13
ENDBRANCH  11  12
BRANCH  11  23
HETATM   23  C   UNL     1      -9.363   6.610  66.980  1.00  0.00    -0.141 C  
HETATM   24  N   UNL     1      -8.082   6.346  66.535  1.00  0.00    -0.109 N  
HETATM   25  H   UNL     1      -7.305   6.920  66.861  1.00  0.00     0.000 HD 
HETATM   26  O   UNL     1     -10.325   5.898  66.678  1.00  0.00    -0.210 OA 
BRANCH  24  27
HETATM   27  C   UNL     1      -7.838   5.263  65.611  1.00  0.00    -0.100 C  
BRANCH  27  28
HETATM   28  N   UNL     1      -7.002   5.747  64.543  1.00  0.00    -0.050 N  
HETATM   29  O   UNL     1      -8.647   5.680  62.921  1.00  0.00    -0.075 OA 
HETATM   30  C   UNL     1      -7.500   5.916  63.271  1.00  0.00    -0.073 C  
HETATM   31  H   UNL     1      -6.025   5.970  64.733  1.00  0.00     0.000 HD 
ENDBRANCH  27  28
BRANCH  27  32
HETATM   32  C   UNL     1      -7.427   3.891  66.188  1.00  0.00    -0.087 C  
BRANCH  32  33
HETATM   33  C   UNL     1      -7.911   3.206  67.455  1.00  0.00    -0.076 A  
HETATM   34  C   UNL     1      -8.447   2.253  69.484  1.00  0.00    -0.051 A  
HETATM   35  H   UNL     1     -10.241   1.389  68.766  1.00  0.00     0.000 HD 
HETATM   36  C   UNL     1      -8.390   1.878  70.836  1.00  0.00    -0.072 A  
HETATM   37  C   UNL     1      -9.113   2.508  67.372  1.00  0.00    -0.169 A  
HETATM   38  C   UNL     1      -7.279   2.279  71.569  1.00  0.00    -0.032 A  
HETATM   39  N   UNL     1      -9.413   1.952  68.573  1.00  0.00    -0.185 NA 
HETATM   40  C   UNL     1      -6.268   3.021  70.960  1.00  0.00    -0.019 A  
HETATM   41  C   UNL     1      -6.348   3.399  69.603  1.00  0.00    -0.029 A  
HETATM   42  C   UNL     1      -7.465   3.020  68.827  1.00  0.00    -0.048 A  
ENDBRANCH  32  33
ENDBRANCH  27  32
ENDBRANCH  24  27
ENDBRANCH  11  23
ENDBRANCH   7  11
TORSDOF 8
ENDMDL
MODEL      388
REMARK 921   NORMALIZED FREE ENERGY PREDICTED BY IDOCK:   -4.09 KCAL/MOL
REMARK 922        TOTAL FREE ENERGY PREDICTED BY IDOCK:   -8.15 KCAL/MOL
REMARK 923 INTER-LIGAND FREE ENERGY PREDICTED BY IDOCK:   -7.16 KCAL/MOL
REMARK 924 INTRA-LIGAND FREE ENERGY PREDICTED BY IDOCK:   -0.99 KCAL/MOL
REMARK 927      BINDING AFFINITY PREDICTED BY RF-SCORE:    0.00 PKD
ROOT
HETATM    1  C   UNL     1     -12.214  15.019  72.556  1.00  0.00    -0.443 C  
HETATM    2  C   UNL     1     -13.054  14.490  71.378  1.00  0.00    -0.353 C  
HETATM    3  C   UNL     1     -12.237  13.376  70.433  1.00  0.00    -0.345 C  
HETATM    4  N   UNL     1     -13.417  15.664  70.531  1.00  0.00    -0.788 NA 
HETATM    5  C   UNL     1     -14.376  13.986  72.022  1.00  0.00    -0.548 C  
HETATM    6  H2  UNL     1     -12.606  16.206  70.232  1.00  0.00     0.000 HD 
HETATM    7  N   UNL     1     -11.463  13.869  69.376  1.00  0.00    -0.268 N  
HETATM    8  H1  UNL     1     -13.973  15.313  69.751  1.00  0.00     0.000 HD 
HETATM    9  O   UNL     1     -12.279  12.171  70.681  1.00  0.00    -0.372 OA 
HETATM   10  H   UNL     1     -11.629  14.859  69.197  1.00  0.00     0.000 HD 
ENDROOT
BRANCH   7  11
HETATM   11  C   UNL     1     -10.398  13.249  68.404  1.00  0.00    -0.251 C  
BRANCH  11  12
HETATM   12  C   UNL     1     -10.529  11.817  67.705  1.00  0.00    -0.223 C  
BRANCH  12  13
HETATM   13  C   UNL     1      -9.258  11.144  66.993  1.00  0.00    -0.172 A  
HETATM   14  C   UNL     1      -8.367  11.710  66.100  1.00  0.00     0.036 A  
HETATM   15  C   UNL     1      -8.502   7.389  67.790  1.00  0.00    -0.118 A  
HETATM   16  C   UNL     1      -7.614   7.169  66.740  1.00  0.00    -0.093 A  
HETATM   17  C   UNL     1      -7.231   8.232  65.923  1.00  0.00    -0.072 A  
HETATM   18  N   UNL     1      -7.517  10.728  65.594  1.00  0.00    -0.321 NA 
HETATM   19  C   UNL     1      -9.084   8.659  67.993  1.00  0.00    -0.144 A  
HETATM   20  C   UNL     1      -8.772   9.751  67.140  1.00  0.00    -0.137 A  
HETATM   21  C   UNL     1      -7.797   9.512  66.170  1.00  0.00    -0.100 A  
HETATM   22  H   UNL     1      -6.791  10.888  64.897  1.00  0.00     0.000 HD 
ENDBRANCH  12  13
ENDBRANCH  11  12
BRANCH  11  23
HETATM   23  C   UNL     1      -9.003  13.533  69.022  1.00  0.00     0.375 C  
HETATM   24  N   UNL     1      -8.631  14.855  69.166  1.00  0.00    -0.312 N  
HETATM   25  H   UNL     1      -9.314  15.594  69.001  1.00  0.00     0.000 HD 
HETATM   26  O   UNL     1      -8.238  12.601  69.286  1.00  0.00     0.447 OA 
BRANCH  24  27
HETATM   27  C   UNL     1      -7.280  15.197  69.550  1.00  0.00    -0.204 C  
BRANCH  27  28
HETATM   28  N   UNL     1      -6.364  14.483  68.698  1.00  0.00    -0.082 N  
HETATM   29  O   UNL     1      -6.955  15.588  66.756  1.00  0.00    -0.175 OA 
HETATM   30  C   UNL     1      -6.286  14.756  67.352  1.00  0.00     0.113 C  
HETATM   31  H   UNL     1      -5.764  13.764  69.100  1.00  0.00     0.000 HD 
ENDBRANCH  27  28
BRANCH  27  32
HETATM   32  C   UNL     1      -6.939  16.687  69.769  1.00  0.00     0.166 C  
BRANCH  32  33
HETATM   33  C   UNL     1      -7.557  17.913  69.116  1.00  0.00    -0.050 A  
HETATM   34  C   UNL     1      -8.666  19.625  68.045  1.00  0.00    -0.319 A  
HETATM   35  H   UNL     1      -7.262  21.095  68.635  1.00  0.00     0.000 HD 
HETATM   36  C   UNL     1      -9.621  20.329  67.294  1.00  0.00    -0.581 A  
HETATM   37  C   UNL     1      -6.889  19.121  69.293  1.00  0.00    -0.301 A  
HETATM   38  C   UNL     1     -10.665  19.601  66.734  1.00  0.00    -0.562 A  
HETATM   39  N   UNL     1      -7.554  20.118  68.655  1.00  0.00    -0.117 NA 
HETATM   40  C   UNL     1     -10.735  18.222  66.921  1.00  0.00    -0.272 A  
HETATM   41  C   UNL     1      -9.773  17.532  67.689  1.00  0.00    -0.275 A  
HETATM   42  C   UNL     1      -8.703  18.237  68.282  1.00  0.00    -0.302 A  
ENDBRANCH  32  33
ENDBRANCH  27  32
ENDBRANCH  24  27
ENDBRANCH  11  23
ENDBRANCH   7  11
TORSDOF 8
ENDMDL
MODEL      389
REMARK 921   NORMALIZED FREE ENERGY PREDICTED BY IDOCK:   -4.04 KCAL/MOL
REMARK 922        TOTAL FREE ENERGY PREDICTED BY IDOCK:   -8.07 KCAL/MOL
REMARK 923 INTER-LIGAND FREE ENERGY PREDICTED BY IDOCK:   -5.32 KCAL/MOL
REMARK 924 INTRA-LIGAND FREE ENERGY PREDICTED BY IDOCK:   -2.75 KCAL/MOL
REMARK 927      BINDING AFFINITY PREDICTED BY RF-SCORE:    0.00 PKD
ROOT
HETATM    1  C   UNL     1      -6.213   8.958  71.914  1.00  0.00    -0.069 C  
HETATM    2  C   UNL     1      -7.270   7.846  72.059  1.00  0.00    -0.076 C  
HETATM    3  C   UNL     1      -7.649   7.105  70.606  1.00  0.00    -0.092 C  
HETATM    4  N   UNL     1      -8.503   8.477  72.613  1.00  0.00    -0.370 NA 
HETATM    5  C   UNL     1      -6.717   6.909  73.168  1.00  0.00    -0.070 C  
HETATM    6  H2  UNL     1      -8.830   9.269  72.059  1.00  0.00     0.000 HD 
HETATM    7  N   UNL     1      -8.671   7.675  69.837  1.00  0.00    -0.139 N  
HETATM    8  H1  UNL     1      -9.203   7.740  72.708  1.00  0.00     0.000 HD 
HETATM    9  O   UNL     1      -7.028   6.120  70.207  1.00  0.00    -0.061 OA 
HETATM   10  H   UNL     1      -9.191   8.390  70.344  1.00  0.00     0.000 HD 
ENDROOT
BRANCH   7  11
HETATM   11  C   UNL     1      -9.199   7.466  68.374  1.00  0.00    -0.138 C  
BRANCH  11  12
HETATM   12  C   UNL     1      -9.993   8.566  67.528  1.00  0.00    -0.258 C  
BRANCH  12  13
HETATM   13  C   UNL     1      -9.225   9.847  66.941  1.00  0.00    -0.171 A  
HETATM   14  C   UNL     1      -9.311  10.402  65.678  1.00  0.00    -0.198 A  
HETATM   15  C   UNL     1      -6.723  11.708  69.304  1.00  0.00    -0.115 A  
HETATM   16  C   UNL     1      -6.079  12.450  68.317  1.00  0.00    -0.055 A  
HETATM   17  C   UNL     1      -6.539  12.400  67.002  1.00  0.00    -0.002 A  
HETATM   18  N   UNL     1      -8.346  11.400  65.535  1.00  0.00    -0.370 NA 
HETATM   19  C   UNL     1      -7.788  10.841  68.979  1.00  0.00    -0.138 A  
HETATM   20  C   UNL     1      -8.242  10.710  67.640  1.00  0.00    -0.107 A  
HETATM   21  C   UNL     1      -7.640  11.553  66.704  1.00  0.00    -0.088 A  
HETATM   22  H   UNL     1      -8.188  11.938  64.684  1.00  0.00     0.000 HD 
ENDBRANCH  12  13
ENDBRANCH  11  12
BRANCH  11  23
HETATM   23  C   UNL     1      -9.819   6.045  68.316  1.00  0.00    -0.132 C  
HETATM   24  N   UNL     1      -8.951   4.979  68.184  1.00  0.00    -0.106 N  
HETATM   25  H   UNL     1      -7.946   5.132  68.267  1.00  0.00     0.000 HD 
HETATM   26  O   UNL     1     -11.045   5.901  68.302  1.00  0.00    -0.258 OA 
BRANCH  24  27
HETATM   27  C   UNL     1      -9.457   3.650  67.929  1.00  0.00    -0.169 C  
BRANCH  27  28
HETATM   28  N   UNL     1      -8.835   3.141  66.734  1.00  0.00    -0.136 N  
HETATM   29  O   UNL     1     -10.171   4.321  65.264  1.00  0.00    -0.229 OA 
HETATM   30  C   UNL     1      -9.261   3.537  65.487  1.00  0.00    -0.156 C  
HETATM   31  H   UNL     1      -8.066   2.476  66.814  1.00  0.00     0.000 HD 
ENDBRANCH  27  28
BRANCH  27  32
HETATM   32  C   UNL     1      -9.518   2.654  69.107  1.00  0.00    -0.148 C  
BRANCH  32  33
HETATM   33  C   UNL     1      -9.243   2.902  70.581  1.00  0.00    -0.207 A  
HETATM   34  C   UNL     1      -8.981   3.462  72.801  1.00  0.00    -0.088 A  
HETATM   35  H   UNL     1      -7.587   1.912  73.175  1.00  0.00     0.000 HD 
HETATM   36  C   UNL     1      -9.125   4.114  74.036  1.00  0.00    -0.099 A  
HETATM   37  C   UNL     1      -8.340   2.044  71.204  1.00  0.00    -0.050 A  
HETATM   38  C   UNL     1      -9.965   5.219  74.087  1.00  0.00    -0.223 A  
HETATM   39  N   UNL     1      -8.196   2.388  72.509  1.00  0.00    -0.054 NA 
HETATM   40  C   UNL     1     -10.627   5.649  72.937  1.00  0.00    -0.268 A  
HETATM   41  C   UNL     1     -10.480   4.974  71.707  1.00  0.00    -0.246 A  
HETATM   42  C   UNL     1      -9.642   3.841  71.616  1.00  0.00    -0.227 A  
ENDBRANCH  32  33
ENDBRANCH  27  32
ENDBRANCH  24  27
ENDBRANCH  11  23
ENDBRANCH   7  11
TORSDOF 8
ENDMDL
MODEL      390
REMARK 921   NORMALIZED FREE ENERGY PREDICTED BY IDOCK:   -4.03 KCAL/MOL
REMARK 922        TOTAL FREE ENERGY PREDICTED BY IDOCK:   -8.06 KCAL/MOL
REMARK 923 INTER-LIGAND FREE ENERGY PREDICTED BY IDOCK:   -6.95 KCAL/MOL
REMARK 924 INTRA-LIGAND FREE ENERGY PREDICTED BY IDOCK:   -1.11 KCAL/MOL
REMARK 927      BINDING AFFINITY PREDICTED BY RF-SCORE:    0.00 PKD
ROOT
HETATM    1  C   UNL     1      -9.020  19.943  68.861  1.00  0.00    -0.063 C  
HETATM    2  C   UNL     1      -7.691  19.356  68.349  1.00  0.00    -0.328 C  
HETATM    3  C   UNL     1      -7.898  18.040  67.335  1.00  0.00    -0.216 C  
HETATM    4  N   UNL     1      -6.910  18.923  69.544  1.00  0.00    -0.203 NA 
HETATM    5  C   UNL     1      -6.928  20.564  67.738  1.00  0.00    -0.355 C  
HETATM    6  H2  UNL     1      -7.425  18.280  70.146  1.00  0.00     0.000 HD 
HETATM    7  N   UNL     1      -7.979  16.774  67.927  1.00  0.00    -0.174 N  
HETATM    8  H1  UNL     1      -6.029  18.534  69.205  1.00  0.00     0.000 HD 
HETATM    9  O   UNL     1      -8.018  18.181  66.119  1.00  0.00    -0.400 OA 
HETATM   10  H   UNL     1      -7.723  16.786  68.914  1.00  0.00     0.000 HD 
ENDROOT
BRANCH   7  11
HETATM   11  C   UNL     1      -8.371  15.341  67.421  1.00  0.00    -0.181 C  
BRANCH  11  12
HETATM   12  C   UNL     1      -8.884  15.007  65.944  1.00  0.00     0.309 C  
BRANCH  12  13
HETATM   13  C   UNL     1     -10.410  14.581  65.693  1.00  0.00    -0.367 A  
HETATM   14  C   UNL     1     -11.555  15.075  66.289  1.00  0.00    -0.160 A  
HETATM   15  C   UNL     1     -11.103  11.746  63.087  1.00  0.00    -0.251 A  
HETATM   16  C   UNL     1     -12.418  11.489  63.463  1.00  0.00    -0.128 A  
HETATM   17  C   UNL     1     -13.032  12.288  64.427  1.00  0.00    -0.166 A  
HETATM   18  N   UNL     1     -12.655  14.307  65.909  1.00  0.00    -0.420 NA 
HETATM   19  C   UNL     1     -10.351  12.755  63.725  1.00  0.00    -0.269 A  
HETATM   20  C   UNL     1     -10.918  13.545  64.760  1.00  0.00    -0.382 A  
HETATM   21  C   UNL     1     -12.270  13.326  65.027  1.00  0.00    -0.432 A  
HETATM   22  H   UNL     1     -13.609  14.453  66.239  1.00  0.00     0.000 HD 
ENDBRANCH  12  13
ENDBRANCH  11  12
BRANCH  11  23
HETATM   23  C   UNL     1      -9.200  14.675  68.551  1.00  0.00    -0.193 C  
HETATM   24  N   UNL     1      -9.732  13.426  68.295  1.00  0.00    -0.226 N  
HETATM   25  H   UNL     1      -9.460  12.923  67.450  1.00  0.00     0.000 HD 
HETATM   26  O   UNL     1      -9.436  15.290  69.596  1.00  0.00    -0.237 OA 
BRANCH  24  27
HETATM   27  C   UNL     1     -10.670  12.827  69.216  1.00  0.00     0.089 C  
BRANCH  27  28
HETATM   28  N   UNL     1     -11.951  13.465  69.049  1.00  0.00    -0.327 N  
HETATM   29  O   UNL     1     -12.142  14.166  71.243  1.00  0.00    -0.351 OA 
HETATM   30  C   UNL     1     -12.577  14.090  70.103  1.00  0.00    -0.251 C  
HETATM   31  H   UNL     1     -12.401  13.453  68.134  1.00  0.00     0.000 HD 
ENDBRANCH  27  28
BRANCH  27  32
HETATM   32  C   UNL     1     -10.717  11.287  69.312  1.00  0.00    -0.221 C  
BRANCH  32  33
HETATM   33  C   UNL     1     -10.084  10.255  68.394  1.00  0.00    -0.178 A  
HETATM   34  C   UNL     1      -8.911   8.770  67.079  1.00  0.00    -0.131 A  
HETATM   35  H   UNL     1     -10.656   7.899  66.256  1.00  0.00     0.000 HD 
HETATM   36  C   UNL     1      -7.851   8.071  66.480  1.00  0.00    -0.097 A  
HETATM   37  C   UNL     1     -10.953   9.454  67.658  1.00  0.00    -0.036 A  
HETATM   38  C   UNL     1      -6.557   8.459  66.807  1.00  0.00    -0.057 A  
HETATM   39  N   UNL     1     -10.246   8.587  66.888  1.00  0.00    -0.290 NA 
HETATM   40  C   UNL     1      -6.345   9.513  67.696  1.00  0.00    -0.058 A  
HETATM   41  C   UNL     1      -7.424  10.196  68.298  1.00  0.00    -0.082 A  
HETATM   42  C   UNL     1      -8.753   9.825  67.999  1.00  0.00    -0.118 A  
ENDBRANCH  32  33
ENDBRANCH  27  32
ENDBRANCH  24  27
ENDBRANCH  11  23
ENDBRANCH   7  11
TORSDOF 8
ENDMDL
MODEL      391
REMARK 921   NORMALIZED FREE ENERGY PREDICTED BY IDOCK:   -4.01 KCAL/MOL
REMARK 922        TOTAL FREE ENERGY PREDICTED BY IDOCK:   -8.03 KCAL/MOL
REMARK 923 INTER-LIGAND FREE ENERGY PREDICTED BY IDOCK:   -6.02 KCAL/MOL
REMARK 924 INTRA-LIGAND FREE ENERGY PREDICTED BY IDOCK:   -2.01 KCAL/MOL
REMARK 927      BINDING AFFINITY PREDICTED BY RF-SCORE:    0.00 PKD
ROOT
HETATM    1  C   UNL     1      -8.285   4.876  73.439  1.00  0.00    -0.107 C  
HETATM    2  C   UNL     1      -9.605   4.849  72.645  1.00  0.00    -0.138 C  
HETATM    3  C   UNL     1      -9.495   5.611  71.158  1.00  0.00    -0.158 C  
HETATM    4  N   UNL     1     -10.632   5.549  73.469  1.00  0.00    -0.251 NA 
HETATM    5  C   UNL     1     -10.018   3.351  72.605  1.00  0.00    -0.219 C  
HETATM    6  H2  UNL     1     -10.350   6.491  73.743  1.00  0.00     0.000 HD 
HETATM    7  N   UNL     1      -9.752   6.986  71.117  1.00  0.00    -0.173 N  
HETATM    8  H1  UNL     1     -11.506   5.531  72.943  1.00  0.00     0.000 HD 
HETATM    9  O   UNL     1      -9.162   4.997  70.146  1.00  0.00    -0.124 OA 
HETATM   10  H   UNL     1     -10.152   7.337  71.987  1.00  0.00     0.000 HD 
ENDROOT
BRANCH   7  11
HETATM   11  C   UNL     1      -9.565   8.113  70.040  1.00  0.00    -0.171 C  
BRANCH  11  12
HETATM   12  C   UNL     1     -10.379   9.489  70.012  1.00  0.00    -0.284 C  
BRANCH  12  13
HETATM   13  C   UNL     1      -9.825  10.740  69.175  1.00  0.00    -0.194 A  
HETATM   14  C   UNL     1      -8.609  10.881  68.532  1.00  0.00    -0.152 A  
HETATM   15  C   UNL     1     -12.128  13.889  68.871  1.00  0.00    -0.355 A  
HETATM   16  C   UNL     1     -11.150  14.770  68.419  1.00  0.00    -0.274 A  
HETATM   17  C   UNL     1      -9.868  14.299  68.138  1.00  0.00    -0.226 A  
HETATM   18  N   UNL     1      -8.465  12.190  68.074  1.00  0.00    -0.162 NA 
HETATM   19  C   UNL     1     -11.821  12.535  69.126  1.00  0.00    -0.348 A  
HETATM   20  C   UNL     1     -10.510  12.031  68.918  1.00  0.00    -0.154 A  
HETATM   21  C   UNL     1      -9.592  12.923  68.363  1.00  0.00    -0.176 A  
HETATM   22  H   UNL     1      -7.642  12.552  67.594  1.00  0.00     0.000 HD 
ENDBRANCH  12  13
ENDBRANCH  11  12
BRANCH  11  23
HETATM   23  C   UNL     1      -9.458   7.407  68.662  1.00  0.00    -0.139 C  
HETATM   24  N   UNL     1      -8.210   7.356  68.072  1.00  0.00    -0.123 N  
HETATM   25  H   UNL     1      -7.388   7.647  68.600  1.00  0.00     0.000 HD 
HETATM   26  O   UNL     1     -10.472   6.992  68.094  1.00  0.00    -0.182 OA 
BRANCH  24  27
HETATM   27  C   UNL     1      -8.063   6.891  66.712  1.00  0.00    -0.109 C  
BRANCH  27  28
HETATM   28  N   UNL     1      -7.939   5.456  66.725  1.00  0.00    -0.101 N  
HETATM   29  O   UNL     1      -6.298   5.356  65.101  1.00  0.00    -0.033 OA 
HETATM   30  C   UNL     1      -7.045   4.812  65.900  1.00  0.00    -0.071 C  
HETATM   31  H   UNL     1      -8.524   4.909  67.356  1.00  0.00     0.000 HD 
ENDBRANCH  27  28
BRANCH  27  32
HETATM   32  C   UNL     1      -9.024   7.452  65.641  1.00  0.00     0.002 C  
BRANCH  32  33
HETATM   33  C   UNL     1      -9.014   8.816  64.972  1.00  0.00    -0.113 A  
HETATM   34  C   UNL     1      -9.187  10.940  64.095  1.00  0.00    -0.194 A  
HETATM   35  H   UNL     1      -7.550  10.685  62.778  1.00  0.00     0.000 HD 
HETATM   36  C   UNL     1      -9.630  12.252  63.860  1.00  0.00     0.051 A  
HETATM   37  C   UNL     1      -8.033   9.035  64.008  1.00  0.00    -0.145 A  
HETATM   38  C   UNL     1     -10.739  12.694  64.570  1.00  0.00    -0.368 A  
HETATM   39  N   UNL     1      -8.151  10.289  63.500  1.00  0.00    -0.160 NA 
HETATM   40  C   UNL     1     -11.377  11.846  65.473  1.00  0.00    -0.334 A  
HETATM   41  C   UNL     1     -10.911  10.534  65.707  1.00  0.00     0.049 A  
HETATM   42  C   UNL     1      -9.781  10.050  65.013  1.00  0.00    -0.386 A  
ENDBRANCH  32  33
ENDBRANCH  27  32
ENDBRANCH  24  27
ENDBRANCH  11  23
ENDBRANCH   7  11
TORSDOF 8
ENDMDL
MODEL      392
REMARK 921   NORMALIZED FREE ENERGY PREDICTED BY IDOCK:   -3.99 KCAL/MOL
REMARK 922        TOTAL FREE ENERGY PREDICTED BY IDOCK:   -8.00 KCAL/MOL
REMARK 923 INTER-LIGAND FREE ENERGY PREDICTED BY IDOCK:   -6.92 KCAL/MOL
REMARK 924 INTRA-LIGAND FREE ENERGY PREDICTED BY IDOCK:   -1.08 KCAL/MOL
REMARK 927      BINDING AFFINITY PREDICTED BY RF-SCORE:    0.00 PKD
ROOT
HETATM    1  C   UNL     1     -13.602   9.446  70.596  1.00  0.00     0.268 C  
HETATM    2  C   UNL     1     -12.433  10.234  71.218  1.00  0.00    -0.408 C  
HETATM    3  C   UNL     1     -11.392  10.880  70.078  1.00  0.00    -0.307 C  
HETATM    4  N   UNL     1     -11.671   9.288  72.083  1.00  0.00    -0.257 NA 
HETATM    5  C   UNL     1     -13.106  11.260  72.173  1.00  0.00    -0.272 C  
HETATM    6  H2  UNL     1     -11.368   8.450  71.587  1.00  0.00     0.000 HD 
HETATM    7  N   UNL     1     -10.332  10.077  69.643  1.00  0.00    -0.231 N  
HETATM    8  H1  UNL     1     -10.898   9.810  72.495  1.00  0.00     0.000 HD 
HETATM    9  O   UNL     1     -11.573  12.002  69.607  1.00  0.00    -0.296 OA 
HETATM   10  H   UNL     1     -10.216   9.238  70.211  1.00  0.00     0.000 HD 
ENDROOT
BRANCH   7  11
HETATM   11  C   UNL     1      -9.280  10.170  68.481  1.00  0.00    -0.144 C  
BRANCH  11  12
HETATM   12  C   UNL     1      -9.641  10.430  66.945  1.00  0.00    -0.207 C  
BRANCH  12  13
HETATM   13  C   UNL     1      -9.777  11.928  66.388  1.00  0.00    -0.238 A  
HETATM   14  C   UNL     1      -9.181  13.083  66.859  1.00  0.00    -0.236 A  
HETATM   15  C   UNL     1     -12.111  12.518  63.304  1.00  0.00    -0.525 A  
HETATM   16  C   UNL     1     -12.194  13.903  63.417  1.00  0.00     0.005 A  
HETATM   17  C   UNL     1     -11.433  14.566  64.379  1.00  0.00    -0.282 A  
HETATM   18  N   UNL     1      -9.705  14.191  66.193  1.00  0.00    -0.360 NA 
HETATM   19  C   UNL     1     -11.326  11.763  64.201  1.00  0.00    -0.430 A  
HETATM   20  C   UNL     1     -10.590  12.395  65.238  1.00  0.00    -0.322 A  
HETATM   21  C   UNL     1     -10.617  13.791  65.246  1.00  0.00    -0.353 A  
HETATM   22  H   UNL     1      -9.448  15.159  66.382  1.00  0.00     0.000 HD 
ENDBRANCH  12  13
ENDBRANCH  11  12
BRANCH  11  23
HETATM   23  C   UNL     1      -8.252   9.030  68.711  1.00  0.00    -0.117 C  
HETATM   24  N   UNL     1      -8.584   7.773  68.246  1.00  0.00    -0.124 N  
HETATM   25  H   UNL     1      -9.407   7.652  67.656  1.00  0.00     0.000 HD 
HETATM   26  O   UNL     1      -7.224   9.242  69.362  1.00  0.00    -0.064 OA 
BRANCH  24  27
HETATM   27  C   UNL     1      -7.773   6.628  68.590  1.00  0.00    -0.109 C  
BRANCH  27  28
HETATM   28  N   UNL     1      -6.789   6.432  67.556  1.00  0.00    -0.073 N  
HETATM   29  O   UNL     1      -7.650   4.424  66.803  1.00  0.00    -0.084 OA 
HETATM   30  C   UNL     1      -6.826   5.324  66.741  1.00  0.00    -0.063 C  
HETATM   31  H   UNL     1      -6.054   7.127  67.425  1.00  0.00     0.000 HD 
ENDBRANCH  27  28
BRANCH  27  32
HETATM   32  C   UNL     1      -7.231   6.524  70.031  1.00  0.00    -0.080 C  
BRANCH  32  33
HETATM   33  C   UNL     1      -7.846   5.827  71.234  1.00  0.00    -0.111 A  
HETATM   34  C   UNL     1      -8.993   4.834  72.968  1.00  0.00    -0.115 A  
HETATM   35  H   UNL     1      -7.235   4.162  73.936  1.00  0.00     0.000 HD 
HETATM   36  C   UNL     1     -10.041   4.382  73.785  1.00  0.00    -0.199 A  
HETATM   37  C   UNL     1      -6.965   5.235  72.134  1.00  0.00    -0.082 A  
HETATM   38  C   UNL     1     -11.338   4.715  73.413  1.00  0.00    -0.394 A  
HETATM   39  N   UNL     1      -7.656   4.657  73.150  1.00  0.00    -0.086 NA 
HETATM   40  C   UNL     1     -11.565   5.477  72.267  1.00  0.00    -0.176 A  
HETATM   41  C   UNL     1     -10.499   5.911  71.450  1.00  0.00    -0.291 A  
HETATM   42  C   UNL     1      -9.168   5.586  71.789  1.00  0.00    -0.158 A  
ENDBRANCH  32  33
ENDBRANCH  27  32
ENDBRANCH  24  27
ENDBRANCH  11  23
ENDBRANCH   7  11
TORSDOF 8
ENDMDL
MODEL      393
REMARK 921   NORMALIZED FREE ENERGY PREDICTED BY IDOCK:   -3.98 KCAL/MOL
REMARK 922        TOTAL FREE ENERGY PREDICTED BY IDOCK:   -7.98 KCAL/MOL
REMARK 923 INTER-LIGAND FREE ENERGY PREDICTED BY IDOCK:   -6.27 KCAL/MOL
REMARK 924 INTRA-LIGAND FREE ENERGY PREDICTED BY IDOCK:   -1.72 KCAL/MOL
REMARK 927      BINDING AFFINITY PREDICTED BY RF-SCORE:    0.00 PKD
ROOT
HETATM    1  C   UNL     1     -11.888   6.261  72.390  1.00  0.00    -0.272 C  
HETATM    2  C   UNL     1     -12.206   7.653  71.811  1.00  0.00    -0.311 C  
HETATM    3  C   UNL     1     -11.153   8.118  70.596  1.00  0.00    -0.254 C  
HETATM    4  N   UNL     1     -12.109   8.632  72.932  1.00  0.00    -0.321 NA 
HETATM    5  C   UNL     1     -13.707   7.588  71.412  1.00  0.00    -0.414 C  
HETATM    6  H2  UNL     1     -11.211   8.596  73.416  1.00  0.00     0.000 HD 
HETATM    7  N   UNL     1      -9.982   8.784  70.976  1.00  0.00    -0.213 N  
HETATM    8  H1  UNL     1     -12.319   9.553  72.548  1.00  0.00     0.000 HD 
HETATM    9  O   UNL     1     -11.376   7.849  69.416  1.00  0.00     0.098 OA 
HETATM   10  H   UNL     1      -9.991   9.066  71.956  1.00  0.00     0.000 HD 
ENDROOT
BRANCH   7  11
HETATM   11  C   UNL     1      -8.658   9.196  70.241  1.00  0.00    -0.198 C  
BRANCH  11  12
HETATM   12  C   UNL     1      -8.516  10.445  69.252  1.00  0.00    -0.162 C  
BRANCH  12  13
HETATM   13  C   UNL     1      -9.580  10.668  68.073  1.00  0.00    -0.167 A  
HETATM   14  C   UNL     1      -9.897   9.826  67.023  1.00  0.00    -0.193 A  
HETATM   15  C   UNL     1     -11.586  14.027  68.044  1.00  0.00    -0.372 A  
HETATM   16  C   UNL     1     -12.062  13.928  66.740  1.00  0.00    -0.476 A  
HETATM   17  C   UNL     1     -11.815  12.774  65.997  1.00  0.00    -0.495 A  
HETATM   18  N   UNL     1     -10.748  10.481  66.132  1.00  0.00    -0.107 NA 
HETATM   19  C   UNL     1     -10.787  13.008  68.603  1.00  0.00    -0.287 A  
HETATM   20  C   UNL     1     -10.455  11.846  67.855  1.00  0.00    -0.225 A  
HETATM   21  C   UNL     1     -11.043  11.741  66.594  1.00  0.00    -0.310 A  
HETATM   22  H   UNL     1     -11.100  10.081  65.263  1.00  0.00     0.000 HD 
ENDBRANCH  12  13
ENDBRANCH  11  12
BRANCH  11  23
HETATM   23  C   UNL     1      -8.006   7.888  69.716  1.00  0.00    -0.114 C  
HETATM   24  N   UNL     1      -7.977   6.806  70.573  1.00  0.00    -0.112 N  
HETATM   25  H   UNL     1      -8.493   6.843  71.452  1.00  0.00     0.000 HD 
HETATM   26  O   UNL     1      -7.465   7.865  68.606  1.00  0.00    -0.094 OA 
BRANCH  24  27
HETATM   27  C   UNL     1      -7.221   5.623  70.232  1.00  0.00    -0.067 C  
BRANCH  27  28
HETATM   28  N   UNL     1      -6.524   5.167  71.407  1.00  0.00    -0.030 N  
HETATM   29  O   UNL     1      -8.421   4.865  72.692  1.00  0.00    -0.117 OA 
HETATM   30  C   UNL     1      -7.208   4.821  72.550  1.00  0.00    -0.082 C  
HETATM   31  H   UNL     1      -5.506   5.100  71.392  1.00  0.00     0.000 HD 
ENDBRANCH  27  28
BRANCH  27  32
HETATM   32  C   UNL     1      -7.927   4.514  69.423  1.00  0.00    -0.061 C  
BRANCH  32  33
HETATM   33  C   UNL     1      -7.642   4.037  68.009  1.00  0.00    -0.067 A  
HETATM   34  C   UNL     1      -7.437   3.372  65.812  1.00  0.00    -0.077 A  
HETATM   35  H   UNL     1      -5.412   2.791  66.028  1.00  0.00     0.000 HD 
HETATM   36  C   UNL     1      -7.739   3.107  64.467  1.00  0.00    -0.077 A  
HETATM   37  C   UNL     1      -6.357   3.565  67.753  1.00  0.00    -0.037 A  
HETATM   38  C   UNL     1      -9.037   3.359  64.037  1.00  0.00    -0.110 A  
HETATM   39  N   UNL     1      -6.254   3.176  66.457  1.00  0.00    -0.024 NA 
HETATM   40  C   UNL     1      -9.988   3.850  64.930  1.00  0.00    -0.198 A  
HETATM   41  C   UNL     1      -9.662   4.122  66.276  1.00  0.00    -0.219 A  
HETATM   42  C   UNL     1      -8.353   3.889  66.749  1.00  0.00    -0.100 A  
ENDBRANCH  32  33
ENDBRANCH  27  32
ENDBRANCH  24  27
ENDBRANCH  11  23
ENDBRANCH   7  11
TORSDOF 8
ENDMDL
MODEL      394
REMARK 921   NORMALIZED FREE ENERGY PREDICTED BY IDOCK:   -3.97 KCAL/MOL
REMARK 922        TOTAL FREE ENERGY PREDICTED BY IDOCK:   -7.97 KCAL/MOL
REMARK 923 INTER-LIGAND FREE ENERGY PREDICTED BY IDOCK:   -6.45 KCAL/MOL
REMARK 924 INTRA-LIGAND FREE ENERGY PREDICTED BY IDOCK:   -1.52 KCAL/MOL
REMARK 927      BINDING AFFINITY PREDICTED BY RF-SCORE:    0.00 PKD
ROOT
HETATM    1  C   UNL     1     -11.468  14.971  64.278  1.00  0.00    -0.139 C  
HETATM    2  C   UNL     1     -11.142  13.468  64.388  1.00  0.00    -0.380 C  
HETATM    3  C   UNL     1     -11.424  12.842  65.915  1.00  0.00    -0.346 C  
HETATM    4  N   UNL     1      -9.696  13.304  64.060  1.00  0.00    -0.494 NA 
HETATM    5  C   UNL     1     -11.935  12.801  63.230  1.00  0.00    -0.522 C  
HETATM    6  H2  UNL     1      -9.088  13.887  64.635  1.00  0.00     0.000 HD 
HETATM    7  N   UNL     1     -10.380  12.914  66.844  1.00  0.00    -0.242 N  
HETATM    8  H1  UNL     1      -9.481  12.309  64.132  1.00  0.00     0.000 HD 
HETATM    9  O   UNL     1     -12.519  12.374  66.224  1.00  0.00    -0.462 OA 
HETATM   10  H   UNL     1      -9.494  13.189  66.420  1.00  0.00     0.000 HD 
ENDROOT
BRANCH   7  11
HETATM   11  C   UNL     1     -10.259  12.667  68.390  1.00  0.00    -0.232 C  
BRANCH  11  12
HETATM   12  C   UNL     1     -10.173  13.822  69.492  1.00  0.00     0.432 C  
BRANCH  12  13
HETATM   13  C   UNL     1     -10.085  15.361  69.047  1.00  0.00    -0.234 A  
HETATM   14  C   UNL     1     -10.942  16.401  69.354  1.00  0.00    -0.325 A  
HETATM   15  C   UNL     1      -7.096  16.423  66.756  1.00  0.00    -0.233 A  
HETATM   16  C   UNL     1      -7.614  17.654  66.363  1.00  0.00    -0.322 A  
HETATM   17  C   UNL     1      -8.805  18.114  66.921  1.00  0.00    -0.273 A  
HETATM   18  N   UNL     1     -10.591  17.534  68.622  1.00  0.00    -0.330 NA 
HETATM   19  C   UNL     1      -7.800  15.594  67.655  1.00  0.00    -0.173 A  
HETATM   20  C   UNL     1      -9.051  15.997  68.194  1.00  0.00    -0.187 A  
HETATM   21  C   UNL     1      -9.478  17.283  67.856  1.00  0.00    -0.266 A  
HETATM   22  H   UNL     1     -11.090  18.423  68.650  1.00  0.00     0.000 HD 
ENDBRANCH  12  13
ENDBRANCH  11  12
BRANCH  11  23
HETATM   23  C   UNL     1      -9.231  11.520  68.585  1.00  0.00    -0.132 C  
HETATM   24  N   UNL     1      -7.973  11.867  69.038  1.00  0.00    -0.351 N  
HETATM   25  H   UNL     1      -7.795  12.818  69.360  1.00  0.00     0.000 HD 
HETATM   26  O   UNL     1      -9.519  10.365  68.260  1.00  0.00    -0.143 OA 
BRANCH  24  27
HETATM   27  C   UNL     1      -6.909  10.890  69.060  1.00  0.00    -0.080 C  
BRANCH  27  28
HETATM   28  N   UNL     1      -7.472   9.602  69.373  1.00  0.00    -0.085 N  
HETATM   29  O   UNL     1      -6.572   9.472  71.497  1.00  0.00    -0.285 OA 
HETATM   30  C   UNL     1      -7.246   9.004  70.592  1.00  0.00    -0.093 C  
HETATM   31  H   UNL     1      -8.048   9.125  68.679  1.00  0.00     0.000 HD 
ENDBRANCH  27  28
BRANCH  27  32
HETATM   32  C   UNL     1      -5.893  10.892  67.898  1.00  0.00    -0.046 C  
BRANCH  32  33
HETATM   33  C   UNL     1      -5.965  10.162  66.567  1.00  0.00    -0.062 A  
HETATM   34  C   UNL     1      -6.105   8.853  64.676  1.00  0.00    -0.066 A  
HETATM   35  H   UNL     1      -5.856  10.486  63.353  1.00  0.00     0.000 HD 
HETATM   36  C   UNL     1      -6.247   7.736  63.836  1.00  0.00    -0.057 A  
HETATM   37  C   UNL     1      -5.840  10.938  65.418  1.00  0.00    -0.019 A  
HETATM   38  C   UNL     1      -6.391   6.492  64.438  1.00  0.00    -0.037 A  
HETATM   39  N   UNL     1      -5.922  10.152  64.314  1.00  0.00    -0.130 NA 
HETATM   40  C   UNL     1      -6.385   6.381  65.828  1.00  0.00    -0.039 A  
HETATM   41  C   UNL     1      -6.254   7.516  66.657  1.00  0.00    -0.045 A  
HETATM   42  C   UNL     1      -6.115   8.799  66.084  1.00  0.00    -0.052 A  
ENDBRANCH  32  33
ENDBRANCH  27  32
ENDBRANCH  24  27
ENDBRANCH  11  23
ENDBRANCH   7  11
TORSDOF 8
ENDMDL
MODEL      395
REMARK 921   NORMALIZED FREE ENERGY PREDICTED BY IDOCK:   -3.91 KCAL/MOL
REMARK 922        TOTAL FREE ENERGY PREDICTED BY IDOCK:   -7.89 KCAL/MOL
REMARK 923 INTER-LIGAND FREE ENERGY PREDICTED BY IDOCK:   -6.15 KCAL/MOL
REMARK 924 INTRA-LIGAND FREE ENERGY PREDICTED BY IDOCK:   -1.74 KCAL/MOL
REMARK 927      BINDING AFFINITY PREDICTED BY RF-SCORE:    0.00 PKD
ROOT
HETATM    1  C   UNL     1     -13.746  15.299  72.364  1.00  0.00    -0.622 C  
HETATM    2  C   UNL     1     -12.350  15.452  71.729  1.00  0.00    -0.381 C  
HETATM    3  C   UNL     1     -12.274  14.877  70.159  1.00  0.00    -0.336 C  
HETATM    4  N   UNL     1     -11.393  14.678  72.572  1.00  0.00     0.030 NA 
HETATM    5  C   UNL     1     -11.988  16.952  71.915  1.00  0.00     0.716 C  
HETATM    6  H2  UNL     1     -11.670  13.704  72.698  1.00  0.00     0.000 HD 
HETATM    7  N   UNL     1     -11.966  13.523  69.982  1.00  0.00    -0.344 N  
HETATM    8  H1  UNL     1     -10.469  14.780  72.151  1.00  0.00     0.000 HD 
HETATM    9  O   UNL     1     -12.519  15.603  69.197  1.00  0.00    -0.126 OA 
HETATM   10  H   UNL     1     -11.649  13.076  70.842  1.00  0.00     0.000 HD 
ENDROOT
BRANCH   7  11
HETATM   11  C   UNL     1     -11.997  12.534  68.763  1.00  0.00    -0.238 C  
BRANCH  11  12
HETATM   12  C   UNL     1     -12.207  10.952  68.880  1.00  0.00    -0.040 C  
BRANCH  12  13
HETATM   13  C   UNL     1     -11.250  10.076  69.822  1.00  0.00    -0.307 A  
HETATM   14  C   UNL     1     -11.365   9.822  71.175  1.00  0.00    -0.389 A  
HETATM   15  C   UNL     1      -8.116   8.406  68.178  1.00  0.00    -0.120 A  
HETATM   16  C   UNL     1      -7.450   8.096  69.361  1.00  0.00    -0.091 A  
HETATM   17  C   UNL     1      -8.071   8.331  70.587  1.00  0.00    -0.110 A  
HETATM   18  N   UNL     1     -10.226   9.158  71.630  1.00  0.00    -0.341 NA 
HETATM   19  C   UNL     1      -9.382   9.029  68.201  1.00  0.00    -0.151 A  
HETATM   20  C   UNL     1     -10.018   9.348  69.431  1.00  0.00    -0.189 A  
HETATM   21  C   UNL     1      -9.363   8.922  70.587  1.00  0.00    -0.212 A  
HETATM   22  H   UNL     1     -10.058   8.887  72.599  1.00  0.00     0.000 HD 
ENDBRANCH  12  13
ENDBRANCH  11  12
BRANCH  11  23
HETATM   23  C   UNL     1     -10.849  12.957  67.808  1.00  0.00    -0.229 C  
HETATM   24  N   UNL     1     -10.523  14.299  67.765  1.00  0.00    -0.244 N  
HETATM   25  H   UNL     1     -10.933  14.941  68.442  1.00  0.00     0.000 HD 
HETATM   26  O   UNL     1     -10.322  12.126  67.063  1.00  0.00    -0.210 OA 
BRANCH  24  27
HETATM   27  C   UNL     1      -9.606  14.796  66.766  1.00  0.00    -0.254 C  
BRANCH  27  28
HETATM   28  N   UNL     1     -10.121  16.035  66.243  1.00  0.00    -0.293 N  
HETATM   29  O   UNL     1      -9.990  17.194  68.238  1.00  0.00    -0.270 OA 
HETATM   30  C   UNL     1     -10.264  17.142  67.049  1.00  0.00    -0.313 C  
HETATM   31  H   UNL     1     -10.384  16.093  65.260  1.00  0.00     0.000 HD 
ENDBRANCH  27  28
BRANCH  27  32
HETATM   32  C   UNL     1      -8.099  14.808  67.102  1.00  0.00    -0.226 C  
BRANCH  32  33
HETATM   33  C   UNL     1      -7.397  14.311  68.355  1.00  0.00    -0.119 A  
HETATM   34  C   UNL     1      -6.281  13.788  70.302  1.00  0.00    -0.090 A  
HETATM   35  H   UNL     1      -6.611  11.707  70.101  1.00  0.00     0.000 HD 
HETATM   36  C   UNL     1      -5.559  13.917  71.499  1.00  0.00    -0.235 A  
HETATM   37  C   UNL     1      -7.407  12.936  68.576  1.00  0.00    -0.115 A  
HETATM   38  C   UNL     1      -5.160  15.194  71.876  1.00  0.00    -0.110 A  
HETATM   39  N   UNL     1      -6.744  12.645  69.725  1.00  0.00     0.067 NA 
HETATM   40  C   UNL     1      -5.473  16.291  71.075  1.00  0.00     0.055 A  
HETATM   41  C   UNL     1      -6.212  16.144  69.881  1.00  0.00    -0.154 A  
HETATM   42  C   UNL     1      -6.643  14.864  69.468  1.00  0.00    -0.154 A  
ENDBRANCH  32  33
ENDBRANCH  27  32
ENDBRANCH  24  27
ENDBRANCH  11  23
ENDBRANCH   7  11
TORSDOF 8
ENDMDL
MODEL      396
REMARK 921   NORMALIZED FREE ENERGY PREDICTED BY IDOCK:   -3.91 KCAL/MOL
REMARK 922        TOTAL FREE ENERGY PREDICTED BY IDOCK:   -7.88 KCAL/MOL
REMARK 923 INTER-LIGAND FREE ENERGY PREDICTED BY IDOCK:   -6.18 KCAL/MOL
REMARK 924 INTRA-LIGAND FREE ENERGY PREDICTED BY IDOCK:   -1.70 KCAL/MOL
REMARK 927      BINDING AFFINITY PREDICTED BY RF-SCORE:    0.00 PKD
ROOT
HETATM    1  C   UNL     1      -7.547   7.843  73.738  1.00  0.00    -0.197 C  
HETATM    2  C   UNL     1      -7.949   6.632  72.874  1.00  0.00    -0.103 C  
HETATM    3  C   UNL     1      -7.463   6.771  71.278  1.00  0.00    -0.084 C  
HETATM    4  N   UNL     1      -9.437   6.532  72.917  1.00  0.00    -0.142 NA 
HETATM    5  C   UNL     1      -7.402   5.395  73.639  1.00  0.00    -0.087 C  
HETATM    6  H2  UNL     1      -9.903   7.396  72.636  1.00  0.00     0.000 HD 
HETATM    7  N   UNL     1      -8.334   7.416  70.392  1.00  0.00    -0.128 N  
HETATM    8  H1  UNL     1      -9.703   5.731  72.344  1.00  0.00     0.000 HD 
HETATM    9  O   UNL     1      -6.366   6.360  70.903  1.00  0.00    -0.044 OA 
HETATM   10  H   UNL     1      -9.256   7.577  70.795  1.00  0.00     0.000 HD 
ENDROOT
BRANCH   7  11
HETATM   11  C   UNL     1      -8.216   7.950  68.920  1.00  0.00    -0.126 C  
BRANCH  11  12
HETATM   12  C   UNL     1      -7.020   7.600  67.918  1.00  0.00    -0.076 C  
BRANCH  12  13
HETATM   13  C   UNL     1      -7.328   6.948  66.485  1.00  0.00    -0.073 A  
HETATM   14  C   UNL     1      -7.279   5.618  66.111  1.00  0.00    -0.077 A  
HETATM   15  C   UNL     1      -8.334   9.357  63.570  1.00  0.00    -0.184 A  
HETATM   16  C   UNL     1      -8.147   8.450  62.530  1.00  0.00    -0.169 A  
HETATM   17  C   UNL     1      -7.825   7.124  62.816  1.00  0.00    -0.133 A  
HETATM   18  N   UNL     1      -7.451   5.509  64.732  1.00  0.00    -0.068 NA 
HETATM   19  C   UNL     1      -8.125   8.973  64.912  1.00  0.00    -0.137 A  
HETATM   20  C   UNL     1      -7.730   7.649  65.241  1.00  0.00    -0.110 A  
HETATM   21  C   UNL     1      -7.660   6.748  64.177  1.00  0.00    -0.105 A  
HETATM   22  H   UNL     1      -7.426   4.634  64.209  1.00  0.00     0.000 HD 
ENDBRANCH  12  13
ENDBRANCH  11  12
BRANCH  11  23
HETATM   23  C   UNL     1      -8.604   9.452  68.952  1.00  0.00    -0.131 C  
HETATM   24  N   UNL     1      -9.525   9.889  68.020  1.00  0.00    -0.134 N  
HETATM   25  H   UNL     1     -10.021   9.210  67.442  1.00  0.00     0.000 HD 
HETATM   26  O   UNL     1      -8.035  10.225  69.728  1.00  0.00    -0.166 OA 
BRANCH  24  27
HETATM   27  C   UNL     1      -9.791  11.300  67.859  1.00  0.00    -0.176 C  
BRANCH  27  28
HETATM   28  N   UNL     1     -10.209  11.837  69.128  1.00  0.00    -0.418 N  
HETATM   29  O   UNL     1     -12.371  11.026  69.014  1.00  0.00    -0.481 OA 
HETATM   30  C   UNL     1     -11.489  11.641  69.595  1.00  0.00    -0.288 C  
HETATM   31  H   UNL     1      -9.547  12.372  69.689  1.00  0.00     0.000 HD 
ENDBRANCH  27  28
BRANCH  27  32
HETATM   32  C   UNL     1      -8.754  12.155  67.100  1.00  0.00    -0.190 C  
BRANCH  32  33
HETATM   33  C   UNL     1      -8.667  13.668  66.985  1.00  0.00    -0.204 A  
HETATM   34  C   UNL     1      -8.750  15.954  66.707  1.00  0.00    -0.269 A  
HETATM   35  H   UNL     1      -6.858  16.276  67.599  1.00  0.00     0.000 HD 
HETATM   36  C   UNL     1      -9.201  17.238  66.361  1.00  0.00    -0.278 A  
HETATM   37  C   UNL     1      -7.517  14.270  67.489  1.00  0.00    -0.182 A  
HETATM   38  C   UNL     1     -10.425  17.337  65.711  1.00  0.00    -0.237 A  
HETATM   39  N   UNL     1      -7.581  15.615  67.315  1.00  0.00    -0.194 NA 
HETATM   40  C   UNL     1     -11.158  16.188  65.417  1.00  0.00    -0.126 A  
HETATM   41  C   UNL     1     -10.695  14.906  65.784  1.00  0.00    -0.338 A  
HETATM   42  C   UNL     1      -9.461  14.764  66.455  1.00  0.00    -0.328 A  
ENDBRANCH  32  33
ENDBRANCH  27  32
ENDBRANCH  24  27
ENDBRANCH  11  23
ENDBRANCH   7  11
TORSDOF 8
ENDMDL
MODEL      397
REMARK 921   NORMALIZED FREE ENERGY PREDICTED BY IDOCK:   -3.89 KCAL/MOL
REMARK 922        TOTAL FREE ENERGY PREDICTED BY IDOCK:   -7.85 KCAL/MOL
REMARK 923 INTER-LIGAND FREE ENERGY PREDICTED BY IDOCK:   -6.28 KCAL/MOL
REMARK 924 INTRA-LIGAND FREE ENERGY PREDICTED BY IDOCK:   -1.57 KCAL/MOL
REMARK 927      BINDING AFFINITY PREDICTED BY RF-SCORE:    0.00 PKD
ROOT
HETATM    1  C   UNL     1      -8.911   5.883  73.944  1.00  0.00    -0.126 C  
HETATM    2  C   UNL     1     -10.229   5.736  73.159  1.00  0.00    -0.193 C  
HETATM    3  C   UNL     1     -10.141   6.346  71.603  1.00  0.00    -0.186 C  
HETATM    4  N   UNL     1     -11.278   6.484  73.910  1.00  0.00    -0.129 NA 
HETATM    5  C   UNL     1     -10.595   4.230  73.272  1.00  0.00    -0.279 C  
HETATM    6  H2  UNL     1     -11.025   7.457  74.087  1.00  0.00     0.000 HD 
HETATM    7  N   UNL     1     -10.439   7.702  71.423  1.00  0.00    -0.208 N  
HETATM    8  H1  UNL     1     -12.150   6.386  73.390  1.00  0.00     0.000 HD 
HETATM    9  O   UNL     1      -9.787   5.643  70.657  1.00  0.00    -0.172 OA 
HETATM   10  H   UNL     1     -10.851   8.127  72.253  1.00  0.00     0.000 HD 
ENDROOT
BRANCH   7  11
HETATM   11  C   UNL     1     -10.286   8.719  70.237  1.00  0.00    -0.203 C  
BRANCH  11  12
HETATM   12  C   UNL     1     -11.297   9.920  69.932  1.00  0.00    -0.273 C  
BRANCH  12  13
HETATM   13  C   UNL     1     -10.808  11.194  69.089  1.00  0.00    -0.284 A  
HETATM   14  C   UNL     1     -11.559  12.247  68.601  1.00  0.00    -0.323 A  
HETATM   15  C   UNL     1      -7.004  11.444  68.208  1.00  0.00    -0.072 A  
HETATM   16  C   UNL     1      -7.121  12.432  67.235  1.00  0.00    -0.128 A  
HETATM   17  C   UNL     1      -8.359  13.027  66.996  1.00  0.00    -0.102 A  
HETATM   18  N   UNL     1     -10.769  13.049  67.777  1.00  0.00    -0.225 NA 
HETATM   19  C   UNL     1      -8.138  10.977  68.906  1.00  0.00    -0.135 A  
HETATM   20  C   UNL     1      -9.429  11.509  68.644  1.00  0.00    -0.146 A  
HETATM   21  C   UNL     1      -9.481  12.571  67.739  1.00  0.00    -0.197 A  
HETATM   22  H   UNL     1     -11.100  13.871  67.273  1.00  0.00     0.000 HD 
ENDBRANCH  12  13
ENDBRANCH  11  12
BRANCH  11  23
HETATM   23  C   UNL     1      -9.876   7.896  68.987  1.00  0.00    -0.171 C  
HETATM   24  N   UNL     1      -8.530   7.834  68.683  1.00  0.00    -0.128 N  
HETATM   25  H   UNL     1      -7.844   8.199  69.343  1.00  0.00     0.000 HD 
HETATM   26  O   UNL     1     -10.740   7.398  68.259  1.00  0.00    -0.180 OA 
BRANCH  24  27
HETATM   27  C   UNL     1      -8.088   7.254  67.435  1.00  0.00    -0.113 C  
BRANCH  27  28
HETATM   28  N   UNL     1      -7.742   5.875  67.664  1.00  0.00    -0.096 N  
HETATM   29  O   UNL     1      -6.600   6.255  69.638  1.00  0.00    -0.044 OA 
HETATM   30  C   UNL     1      -7.016   5.499  68.772  1.00  0.00    -0.060 C  
HETATM   31  H   UNL     1      -8.039   5.165  66.995  1.00  0.00     0.000 HD 
ENDBRANCH  27  28
BRANCH  27  32
HETATM   32  C   UNL     1      -8.936   7.511  66.171  1.00  0.00    -0.188 C  
BRANCH  32  33
HETATM   33  C   UNL     1      -8.793   8.614  65.134  1.00  0.00    -0.147 A  
HETATM   34  C   UNL     1      -8.771  10.386  63.662  1.00  0.00    -0.198 A  
HETATM   35  H   UNL     1      -7.052   9.698  62.636  1.00  0.00     0.000 HD 
HETATM   36  C   UNL     1      -9.116  11.582  63.012  1.00  0.00    -0.148 A  
HETATM   37  C   UNL     1      -7.727   8.504  64.245  1.00  0.00    -0.130 A  
HETATM   38  C   UNL     1     -10.251  12.251  63.454  1.00  0.00    -0.360 A  
HETATM   39  N   UNL     1      -7.731   9.554  63.383  1.00  0.00    -0.113 NA 
HETATM   40  C   UNL     1     -11.008  11.730  64.503  1.00  0.00    -0.382 A  
HETATM   41  C   UNL     1     -10.639  10.533  65.153  1.00  0.00    -0.121 A  
HETATM   42  C   UNL     1      -9.487   9.828  64.740  1.00  0.00    -0.318 A  
ENDBRANCH  32  33
ENDBRANCH  27  32
ENDBRANCH  24  27
ENDBRANCH  11  23
ENDBRANCH   7  11
TORSDOF 8
ENDMDL
MODEL      398
REMARK 921   NORMALIZED FREE ENERGY PREDICTED BY IDOCK:   -3.83 KCAL/MOL
REMARK 922        TOTAL FREE ENERGY PREDICTED BY IDOCK:   -7.77 KCAL/MOL
REMARK 923 INTER-LIGAND FREE ENERGY PREDICTED BY IDOCK:   -6.45 KCAL/MOL
REMARK 924 INTRA-LIGAND FREE ENERGY PREDICTED BY IDOCK:   -1.32 KCAL/MOL
REMARK 927      BINDING AFFINITY PREDICTED BY RF-SCORE:    0.00 PKD
ROOT
HETATM    1  C   UNL     1      -8.894   6.528  71.628  1.00  0.00    -0.135 C  
HETATM    2  C   UNL     1      -9.427   7.876  72.149  1.00  0.00    -0.177 C  
HETATM    3  C   UNL     1     -10.068   8.843  70.942  1.00  0.00    -0.241 C  
HETATM    4  N   UNL     1      -8.281   8.592  72.780  1.00  0.00    -0.378 NA 
HETATM    5  C   UNL     1     -10.402   7.503  73.300  1.00  0.00    -0.412 C  
HETATM    6  H2  UNL     1      -7.481   8.694  72.155  1.00  0.00     0.000 HD 
HETATM    7  N   UNL     1      -9.190   9.699  70.266  1.00  0.00    -0.280 N  
HETATM    8  H1  UNL     1      -8.635   9.484  73.125  1.00  0.00     0.000 HD 
HETATM    9  O   UNL     1     -11.256   8.775  70.629  1.00  0.00    -0.252 OA 
HETATM   10  H   UNL     1      -8.277   9.759  70.716  1.00  0.00     0.000 HD 
ENDROOT
BRANCH   7  11
HETATM   11  C   UNL     1      -9.289  10.588  68.976  1.00  0.00    -0.196 C  
BRANCH  11  12
HETATM   12  C   UNL     1      -9.335  10.021  67.482  1.00  0.00    -0.162 C  
BRANCH  12  13
HETATM   13  C   UNL     1      -8.680   8.599  67.134  1.00  0.00    -0.134 A  
HETATM   14  C   UNL     1      -8.323   7.578  67.995  1.00  0.00    -0.124 A  
HETATM   15  C   UNL     1      -7.914   7.818  63.378  1.00  0.00    -0.107 A  
HETATM   16  C   UNL     1      -7.079   6.726  63.599  1.00  0.00    -0.060 A  
HETATM   17  C   UNL     1      -6.898   6.244  64.894  1.00  0.00    -0.050 A  
HETATM   18  N   UNL     1      -7.628   6.591  67.295  1.00  0.00    -0.095 NA 
HETATM   19  C   UNL     1      -8.521   8.496  64.456  1.00  0.00    -0.108 A  
HETATM   20  C   UNL     1      -8.307   8.078  65.796  1.00  0.00    -0.142 A  
HETATM   21  C   UNL     1      -7.552   6.916  65.962  1.00  0.00    -0.093 A  
HETATM   22  H   UNL     1      -7.233   5.749  67.713  1.00  0.00     0.000 HD 
ENDBRANCH  12  13
ENDBRANCH  11  12
BRANCH  11  23
HETATM   23  C   UNL     1      -8.319  11.783  69.177  1.00  0.00     0.325 C  
HETATM   24  N   UNL     1      -8.821  13.051  68.953  1.00  0.00    -0.357 N  
HETATM   25  H   UNL     1      -9.822  13.180  68.804  1.00  0.00     0.000 HD 
HETATM   26  O   UNL     1      -7.130  11.582  69.440  1.00  0.00    -0.105 OA 
BRANCH  24  27
HETATM   27  C   UNL     1      -7.938  14.193  68.929  1.00  0.00    -0.051 C  
BRANCH  27  28
HETATM   28  N   UNL     1      -7.162  14.151  67.716  1.00  0.00    -0.159 N  
HETATM   29  O   UNL     1      -5.145  14.663  68.721  1.00  0.00    -0.084 OA 
HETATM   30  C   UNL     1      -5.807  14.393  67.730  1.00  0.00    -0.079 C  
HETATM   31  H   UNL     1      -7.625  13.938  66.833  1.00  0.00     0.000 HD 
ENDBRANCH  27  28
BRANCH  27  32
HETATM   32  C   UNL     1      -8.525  15.577  69.278  1.00  0.00    -0.265 C  
BRANCH  32  33
HETATM   33  C   UNL     1      -8.919  16.709  68.343  1.00  0.00    -0.223 A  
HETATM   34  C   UNL     1      -9.295  18.511  66.957  1.00  0.00    -0.288 A  
HETATM   35  H   UNL     1     -11.290  17.950  66.530  1.00  0.00     0.000 HD 
HETATM   36  C   UNL     1      -9.094  19.691  66.222  1.00  0.00    -0.429 A  
HETATM   37  C   UNL     1     -10.214  16.679  67.833  1.00  0.00    -0.284 A  
HETATM   38  C   UNL     1      -7.861  20.321  66.340  1.00  0.00    -0.248 A  
HETATM   39  N   UNL     1     -10.420  17.748  67.021  1.00  0.00    -0.343 NA 
HETATM   40  C   UNL     1      -6.877  19.786  67.169  1.00  0.00    -0.227 A  
HETATM   41  C   UNL     1      -7.092  18.592  67.891  1.00  0.00    -0.245 A  
HETATM   42  C   UNL     1      -8.327  17.916  67.791  1.00  0.00    -0.241 A  
ENDBRANCH  32  33
ENDBRANCH  27  32
ENDBRANCH  24  27
ENDBRANCH  11  23
ENDBRANCH   7  11
TORSDOF 8
ENDMDL
MODEL      399
REMARK 921   NORMALIZED FREE ENERGY PREDICTED BY IDOCK:   -3.81 KCAL/MOL
REMARK 922        TOTAL FREE ENERGY PREDICTED BY IDOCK:   -7.74 KCAL/MOL
REMARK 923 INTER-LIGAND FREE ENERGY PREDICTED BY IDOCK:   -6.49 KCAL/MOL
REMARK 924 INTRA-LIGAND FREE ENERGY PREDICTED BY IDOCK:   -1.25 KCAL/MOL
REMARK 927      BINDING AFFINITY PREDICTED BY RF-SCORE:    0.00 PKD
ROOT
HETATM    1  C   UNL     1     -10.588  17.444  67.472  1.00  0.00    -0.330 C  
HETATM    2  C   UNL     1     -10.022  16.603  66.311  1.00  0.00    -0.320 C  
HETATM    3  C   UNL     1      -9.501  15.086  66.789  1.00  0.00    -0.246 C  
HETATM    4  N   UNL     1      -8.863  17.353  65.745  1.00  0.00    -0.482 NA 
HETATM    5  C   UNL     1     -11.133  16.622  65.225  1.00  0.00    -0.036 C  
HETATM    6  H2  UNL     1      -8.160  17.590  66.446  1.00  0.00     0.000 HD 
HETATM    7  N   UNL     1      -8.178  14.967  67.232  1.00  0.00    -0.196 N  
HETATM    8  H1  UNL     1      -8.489  16.796  64.977  1.00  0.00     0.000 HD 
HETATM    9  O   UNL     1     -10.261  14.118  66.792  1.00  0.00    -0.256 OA 
HETATM   10  H   UNL     1      -7.625  15.803  67.045  1.00  0.00     0.000 HD 
ENDROOT
BRANCH   7  11
HETATM   11  C   UNL     1      -7.351  13.843  67.951  1.00  0.00    -0.154 C  
BRANCH  11  12
HETATM   12  C   UNL     1      -6.006  14.092  68.780  1.00  0.00    -0.085 C  
BRANCH  12  13
HETATM   13  C   UNL     1      -5.619  15.569  69.271  1.00  0.00    -0.102 A  
HETATM   14  C   UNL     1      -5.437  16.031  70.561  1.00  0.00    -0.144 A  
HETATM   15  C   UNL     1      -5.134  18.326  66.538  1.00  0.00    -0.166 A  
HETATM   16  C   UNL     1      -5.179  19.423  67.395  1.00  0.00    -0.166 A  
HETATM   17  C   UNL     1      -5.250  19.223  68.773  1.00  0.00    -0.194 A  
HETATM   18  N   UNL     1      -5.280  17.417  70.549  1.00  0.00    -0.250 NA 
HETATM   19  C   UNL     1      -5.238  17.011  67.039  1.00  0.00    -0.188 A  
HETATM   20  C   UNL     1      -5.381  16.768  68.431  1.00  0.00    -0.118 A  
HETATM   21  C   UNL     1      -5.312  17.889  69.259  1.00  0.00    -0.191 A  
HETATM   22  H   UNL     1      -5.160  17.997  71.379  1.00  0.00     0.000 HD 
ENDBRANCH  12  13
ENDBRANCH  11  12
BRANCH  11  23
HETATM   23  C   UNL     1      -7.287  12.636  66.976  1.00  0.00     0.055 C  
HETATM   24  N   UNL     1      -8.469  11.973  66.710  1.00  0.00    -0.257 N  
HETATM   25  H   UNL     1      -9.353  12.363  67.037  1.00  0.00     0.000 HD 
HETATM   26  O   UNL     1      -6.200  12.249  66.537  1.00  0.00    -0.026 OA 
BRANCH  24  27
HETATM   27  C   UNL     1      -8.460  10.731  65.973  1.00  0.00    -0.169 C  
BRANCH  27  28
HETATM   28  N   UNL     1      -7.717  10.924  64.754  1.00  0.00    -0.332 N  
HETATM   29  O   UNL     1      -9.320  10.005  63.365  1.00  0.00    -0.279 OA 
HETATM   30  C   UNL     1      -8.232  10.535  63.538  1.00  0.00    -0.086 C  
HETATM   31  H   UNL     1      -6.794  11.355  64.793  1.00  0.00     0.000 HD 
ENDBRANCH  27  28
BRANCH  27  32
HETATM   32  C   UNL     1      -8.131   9.431  66.737  1.00  0.00    -0.109 C  
BRANCH  32  33
HETATM   33  C   UNL     1      -9.002   8.647  67.704  1.00  0.00    -0.141 A  
HETATM   34  C   UNL     1     -10.186   7.268  69.122  1.00  0.00    -0.197 A  
HETATM   35  H   UNL     1     -11.529   8.793  69.715  1.00  0.00     0.000 HD 
HETATM   36  C   UNL     1     -10.598   6.134  69.840  1.00  0.00    -0.328 A  
HETATM   37  C   UNL     1     -10.037   9.344  68.323  1.00  0.00    -0.183 A  
HETATM   38  C   UNL     1      -9.910   4.947  69.619  1.00  0.00    -0.288 A  
HETATM   39  N   UNL     1     -10.725   8.518  69.152  1.00  0.00    -0.165 NA 
HETATM   40  C   UNL     1      -8.855   4.907  68.708  1.00  0.00    -0.114 A  
HETATM   41  C   UNL     1      -8.446   6.060  68.004  1.00  0.00    -0.115 A  
HETATM   42  C   UNL     1      -9.114   7.288  68.207  1.00  0.00    -0.134 A  
ENDBRANCH  32  33
ENDBRANCH  27  32
ENDBRANCH  24  27
ENDBRANCH  11  23
ENDBRANCH   7  11
TORSDOF 8
ENDMDL
MODEL      400
REMARK 921   NORMALIZED FREE ENERGY PREDICTED BY IDOCK:   -3.76 KCAL/MOL
REMARK 922        TOTAL FREE ENERGY PREDICTED BY IDOCK:   -7.66 KCAL/MOL
REMARK 923 INTER-LIGAND FREE ENERGY PREDICTED BY IDOCK:   -6.74 KCAL/MOL
REMARK 924 INTRA-LIGAND FREE ENERGY PREDICTED BY IDOCK:   -0.92 KCAL/MOL
REMARK 927      BINDING AFFINITY PREDICTED BY RF-SCORE:    0.00 PKD
ROOT
HETATM    1  C   UNL     1      -6.409   4.531  69.938  1.00  0.00    -0.027 C  
HETATM    2  C   UNL     1      -7.143   5.798  70.419  1.00  0.00    -0.070 C  
HETATM    3  C   UNL     1      -7.779   6.707  69.165  1.00  0.00    -0.106 C  
HETATM    4  N   UNL     1      -6.152   6.629  71.162  1.00  0.00    -0.035 NA 
HETATM    5  C   UNL     1      -8.169   5.291  71.470  1.00  0.00    -0.117 C  
HETATM    6  H2  UNL     1      -5.316   6.836  70.615  1.00  0.00     0.000 HD 
HETATM    7  N   UNL     1      -6.950   7.673  68.583  1.00  0.00    -0.072 N  
HETATM    8  H1  UNL     1      -6.639   7.468  71.480  1.00  0.00     0.000 HD 
HETATM    9  O   UNL     1      -8.916   6.508  68.741  1.00  0.00    -0.125 OA 
HETATM   10  H   UNL     1      -6.095   7.830  69.117  1.00  0.00     0.000 HD 
ENDROOT
BRANCH   7  11
HETATM   11  C   UNL     1      -7.033   8.570  67.298  1.00  0.00    -0.075 C  
BRANCH  11  12
HETATM   12  C   UNL     1      -6.032   8.474  66.054  1.00  0.00    -0.048 C  
BRANCH  12  13
HETATM   13  C   UNL     1      -6.441   9.099  64.635  1.00  0.00    -0.075 A  
HETATM   14  C   UNL     1      -5.654   9.292  63.516  1.00  0.00    -0.071 A  
HETATM   15  C   UNL     1     -10.135  10.304  64.176  1.00  0.00    -0.132 A  
HETATM   16  C   UNL     1      -9.927  11.050  63.019  1.00  0.00    -0.333 A  
HETATM   17  C   UNL     1      -8.676  11.038  62.403  1.00  0.00    -0.356 A  
HETATM   18  N   UNL     1      -6.361  10.022  62.561  1.00  0.00    -0.111 NA 
HETATM   19  C   UNL     1      -9.076   9.597  64.783  1.00  0.00    -0.283 A  
HETATM   20  C   UNL     1      -7.770   9.615  64.224  1.00  0.00    -0.129 A  
HETATM   21  C   UNL     1      -7.633  10.286  63.007  1.00  0.00    -0.136 A  
HETATM   22  H   UNL     1      -5.987  10.318  61.660  1.00  0.00     0.000 HD 
ENDBRANCH  12  13
ENDBRANCH  11  12
BRANCH  11  23
HETATM   23  C   UNL     1      -7.320  10.019  67.776  1.00  0.00    -0.089 C  
HETATM   24  N   UNL     1      -8.643  10.399  67.887  1.00  0.00    -0.118 N  
HETATM   25  H   UNL     1      -9.380   9.700  67.793  1.00  0.00     0.000 HD 
HETATM   26  O   UNL     1      -6.390  10.809  67.959  1.00  0.00    -0.057 OA 
BRANCH  24  27
HETATM   27  C   UNL     1      -8.989  11.779  68.137  1.00  0.00    -0.181 C  
BRANCH  27  28
HETATM   28  N   UNL     1      -8.519  12.578  67.035  1.00  0.00    -0.245 N  
HETATM   29  O   UNL     1     -10.613  13.285  66.359  1.00  0.00    -0.279 OA 
HETATM   30  C   UNL     1      -9.397  13.273  66.235  1.00  0.00    -0.120 C  
HETATM   31  H   UNL     1      -7.518  12.631  66.844  1.00  0.00     0.000 HD 
ENDBRANCH  27  28
BRANCH  27  32
HETATM   32  C   UNL     1     -10.425  12.098  68.606  1.00  0.00    -0.237 C  
BRANCH  32  33
HETATM   33  C   UNL     1     -11.242  11.428  69.699  1.00  0.00    -0.301 A  
HETATM   34  C   UNL     1     -12.357  10.213  71.308  1.00  0.00    -0.400 A  
HETATM   35  H   UNL     1     -13.567  11.844  71.906  1.00  0.00     0.000 HD 
HETATM   36  C   UNL     1     -12.756   9.153  72.138  1.00  0.00    -0.467 A  
HETATM   37  C   UNL     1     -12.182  12.220  70.354  1.00  0.00    -0.288 A  
HETATM   38  C   UNL     1     -12.148   7.919  71.944  1.00  0.00    -0.352 A  
HETATM   39  N   UNL     1     -12.831  11.489  71.296  1.00  0.00    -0.399 NA 
HETATM   40  C   UNL     1     -11.183   7.762  70.951  1.00  0.00    -0.284 A  
HETATM   41  C   UNL     1     -10.785   8.841  70.133  1.00  0.00    -0.239 A  
HETATM   42  C   UNL     1     -11.372  10.114  70.306  1.00  0.00    -0.387 A  
ENDBRANCH  32  33
ENDBRANCH  27  32
ENDBRANCH  24  27
ENDBRANCH  11  23
ENDBRANCH   7  11
TORSDOF 8
ENDMDL
MODEL      401
REMARK 921   NORMALIZED FREE ENERGY PREDICTED BY IDOCK:   -3.71 KCAL/MOL
REMARK 922        TOTAL FREE ENERGY PREDICTED BY IDOCK:   -7.58 KCAL/MOL
REMARK 923 INTER-LIGAND FREE ENERGY PREDICTED BY IDOCK:   -7.43 KCAL/MOL
REMARK 924 INTRA-LIGAND FREE ENERGY PREDICTED BY IDOCK:   -0.15 KCAL/MOL
REMARK 927      BINDING AFFINITY PREDICTED BY RF-SCORE:    0.00 PKD
ROOT
HETATM    1  C   UNL     1      -9.973  20.286  68.024  1.00  0.00    -0.459 C  
HETATM    2  C   UNL     1      -9.976  19.616  66.636  1.00  0.00    -0.423 C  
HETATM    3  C   UNL     1     -10.258  17.967  66.701  1.00  0.00    -0.373 C  
HETATM    4  N   UNL     1      -8.634  19.851  66.029  1.00  0.00    -0.464 NA 
HETATM    5  C   UNL     1     -10.991  20.441  65.796  1.00  0.00     0.366 C  
HETATM    6  H2  UNL     1      -7.867  19.535  66.622  1.00  0.00     0.000 HD 
HETATM    7  N   UNL     1      -9.150  17.128  66.862  1.00  0.00    -0.230 N  
HETATM    8  H1  UNL     1      -8.637  19.408  65.110  1.00  0.00     0.000 HD 
HETATM    9  O   UNL     1     -11.400  17.510  66.650  1.00  0.00     0.507 OA 
HETATM   10  H   UNL     1      -8.265  17.621  66.746  1.00  0.00     0.000 HD 
ENDROOT
BRANCH   7  11
HETATM   11  C   UNL     1      -8.956  15.604  67.180  1.00  0.00    -0.214 C  
BRANCH  11  12
HETATM   12  C   UNL     1      -7.563  14.926  67.577  1.00  0.00    -0.218 C  
BRANCH  12  13
HETATM   13  C   UNL     1      -6.744  15.448  68.854  1.00  0.00    -0.113 A  
HETATM   14  C   UNL     1      -6.414  14.763  70.009  1.00  0.00    -0.169 A  
HETATM   15  C   UNL     1      -5.491  19.154  68.822  1.00  0.00    -0.206 A  
HETATM   16  C   UNL     1      -5.193  19.244  70.179  1.00  0.00    -0.215 A  
HETATM   17  C   UNL     1      -5.302  18.114  70.988  1.00  0.00    -0.210 A  
HETATM   18  N   UNL     1      -5.849  15.641  70.934  1.00  0.00     0.083 NA 
HETATM   19  C   UNL     1      -5.978  17.953  68.264  1.00  0.00    -0.172 A  
HETATM   20  C   UNL     1      -6.168  16.798  69.069  1.00  0.00    -0.179 A  
HETATM   21  C   UNL     1      -5.755  16.903  70.398  1.00  0.00    -0.114 A  
HETATM   22  H   UNL     1      -5.550  15.383  71.873  1.00  0.00     0.000 HD 
ENDBRANCH  12  13
ENDBRANCH  11  12
BRANCH  11  23
HETATM   23  C   UNL     1      -9.771  14.814  66.121  1.00  0.00    -0.312 C  
HETATM   24  N   UNL     1     -10.081  13.499  66.410  1.00  0.00    -0.287 N  
HETATM   25  H   UNL     1      -9.897  13.130  67.343  1.00  0.00     0.000 HD 
HETATM   26  O   UNL     1     -10.045  15.332  65.034  1.00  0.00    -0.328 OA 
BRANCH  24  27
HETATM   27  C   UNL     1     -10.664  12.646  65.401  1.00  0.00    -0.280 C  
BRANCH  27  28
HETATM   28  N   UNL     1     -10.502  13.276  64.115  1.00  0.00    -0.558 N  
HETATM   29  O   UNL     1     -12.691  12.976  63.440  1.00  0.00    -0.694 OA 
HETATM   30  C   UNL     1     -11.557  13.385  63.239  1.00  0.00     0.127 C  
HETATM   31  H   UNL     1      -9.589  13.647  63.850  1.00  0.00     0.000 HD 
ENDBRANCH  27  28
BRANCH  27  32
HETATM   32  C   UNL     1     -10.327  11.140  65.435  1.00  0.00    -0.331 C  
BRANCH  32  33
HETATM   33  C   UNL     1     -10.053  10.251  66.637  1.00  0.00    -0.281 A  
HETATM   34  C   UNL     1      -9.827   9.008  68.564  1.00  0.00    -0.169 A  
HETATM   35  H   UNL     1      -8.130   7.958  67.858  1.00  0.00     0.000 HD 
HETATM   36  C   UNL     1     -10.054   8.489  69.848  1.00  0.00    -0.195 A  
HETATM   37  C   UNL     1      -8.969   9.382  66.540  1.00  0.00    -0.148 A  
HETATM   38  C   UNL     1     -11.103   9.027  70.584  1.00  0.00    -0.314 A  
HETATM   39  N   UNL     1      -8.849   8.660  67.683  1.00  0.00    -0.135 NA 
HETATM   40  C   UNL     1     -11.883  10.050  70.047  1.00  0.00    -0.196 A  
HETATM   41  C   UNL     1     -11.648  10.551  68.748  1.00  0.00    -0.252 A  
HETATM   42  C   UNL     1     -10.598  10.024  67.965  1.00  0.00    -0.280 A  
ENDBRANCH  32  33
ENDBRANCH  27  32
ENDBRANCH  24  27
ENDBRANCH  11  23
ENDBRANCH   7  11
TORSDOF 8
ENDMDL
MODEL      402
REMARK 921   NORMALIZED FREE ENERGY PREDICTED BY IDOCK:   -3.70 KCAL/MOL
REMARK 922        TOTAL FREE ENERGY PREDICTED BY IDOCK:   -7.57 KCAL/MOL
REMARK 923 INTER-LIGAND FREE ENERGY PREDICTED BY IDOCK:   -6.04 KCAL/MOL
REMARK 924 INTRA-LIGAND FREE ENERGY PREDICTED BY IDOCK:   -1.53 KCAL/MOL
REMARK 927      BINDING AFFINITY PREDICTED BY RF-SCORE:    0.00 PKD
ROOT
HETATM    1  C   UNL     1      -9.096   2.474  70.759  1.00  0.00    -0.187 C  
HETATM    2  C   UNL     1      -8.941   3.774  71.573  1.00  0.00    -0.107 C  
HETATM    3  C   UNL     1      -9.521   5.125  70.774  1.00  0.00    -0.167 C  
HETATM    4  N   UNL     1      -7.485   3.960  71.838  1.00  0.00    -0.059 NA 
HETATM    5  C   UNL     1      -9.604   3.467  72.945  1.00  0.00    -0.169 C  
HETATM    6  H2  UNL     1      -6.921   3.952  70.988  1.00  0.00     0.000 HD 
HETATM    7  N   UNL     1      -8.636   5.806  69.930  1.00  0.00    -0.126 N  
HETATM    8  H1  UNL     1      -7.384   4.820  72.378  1.00  0.00     0.000 HD 
HETATM    9  O   UNL     1     -10.692   5.485  70.888  1.00  0.00    -0.252 OA 
HETATM   10  H   UNL     1      -7.672   5.492  70.038  1.00  0.00     0.000 HD 
ENDROOT
BRANCH   7  11
HETATM   11  C   UNL     1      -8.785   6.942  68.857  1.00  0.00    -0.130 C  
BRANCH  11  12
HETATM   12  C   UNL     1      -7.735   7.232  67.687  1.00  0.00    -0.112 C  
BRANCH  12  13
HETATM   13  C   UNL     1      -6.956   6.022  66.979  1.00  0.00    -0.068 A  
HETATM   14  C   UNL     1      -5.624   5.670  67.088  1.00  0.00    -0.016 A  
HETATM   15  C   UNL     1      -8.995   3.705  64.574  1.00  0.00    -0.122 A  
HETATM   16  C   UNL     1      -7.904   3.093  63.964  1.00  0.00    -0.081 A  
HETATM   17  C   UNL     1      -6.614   3.365  64.418  1.00  0.00    -0.035 A  
HETATM   18  N   UNL     1      -5.325   4.661  66.172  1.00  0.00    -0.009 NA 
HETATM   19  C   UNL     1      -8.812   4.661  65.596  1.00  0.00    -0.131 A  
HETATM   20  C   UNL     1      -7.511   5.016  66.040  1.00  0.00    -0.082 A  
HETATM   21  C   UNL     1      -6.454   4.299  65.477  1.00  0.00    -0.040 A  
HETATM   22  H   UNL     1      -4.401   4.252  66.037  1.00  0.00     0.000 HD 
ENDBRANCH  12  13
ENDBRANCH  11  12
BRANCH  11  23
HETATM   23  C   UNL     1      -9.273   8.210  69.607  1.00  0.00    -0.155 C  
HETATM   24  N   UNL     1     -10.578   8.610  69.395  1.00  0.00    -0.259 N  
HETATM   25  H   UNL     1     -11.215   8.004  68.879  1.00  0.00     0.000 HD 
HETATM   26  O   UNL     1      -8.485   8.870  70.292  1.00  0.00    -0.132 OA 
BRANCH  24  27
HETATM   27  C   UNL     1     -11.045   9.880  69.900  1.00  0.00    -0.275 C  
BRANCH  27  28
HETATM   28  N   UNL     1     -10.859   9.905  71.328  1.00  0.00    -0.241 N  
HETATM   29  O   UNL     1     -12.392   8.237  71.784  1.00  0.00    -0.298 OA 
HETATM   30  C   UNL     1     -11.566   9.058  72.152  1.00  0.00    -0.278 C  
HETATM   31  H   UNL     1     -10.193  10.560  71.736  1.00  0.00     0.000 HD 
ENDBRANCH  27  28
BRANCH  27  32
HETATM   32  C   UNL     1     -10.606  11.164  69.164  1.00  0.00    -0.238 C  
BRANCH  32  33
HETATM   33  C   UNL     1     -10.915  11.601  67.742  1.00  0.00    -0.287 A  
HETATM   34  C   UNL     1     -11.390  12.487  65.669  1.00  0.00    -0.335 A  
HETATM   35  H   UNL     1     -11.380  10.604  64.702  1.00  0.00     0.000 HD 
HETATM   36  C   UNL     1     -11.665  13.408  64.645  1.00  0.00    -0.406 A  
HETATM   37  C   UNL     1     -10.989  10.597  66.780  1.00  0.00    -0.115 A  
HETATM   38  C   UNL     1     -11.773  14.749  64.997  1.00  0.00    -0.364 A  
HETATM   39  N   UNL     1     -11.271  11.135  65.566  1.00  0.00    -0.003 NA 
HETATM   40  C   UNL     1     -11.615  15.139  66.326  1.00  0.00    -0.080 A  
HETATM   41  C   UNL     1     -11.326  14.201  67.340  1.00  0.00    -0.346 A  
HETATM   42  C   UNL     1     -11.199  12.831  67.022  1.00  0.00    -0.336 A  
ENDBRANCH  32  33
ENDBRANCH  27  32
ENDBRANCH  24  27
ENDBRANCH  11  23
ENDBRANCH   7  11
TORSDOF 8
ENDMDL
MODEL      403
REMARK 921   NORMALIZED FREE ENERGY PREDICTED BY IDOCK:   -3.44 KCAL/MOL
REMARK 922        TOTAL FREE ENERGY PREDICTED BY IDOCK:   -7.19 KCAL/MOL
REMARK 923 INTER-LIGAND FREE ENERGY PREDICTED BY IDOCK:   -7.28 KCAL/MOL
REMARK 924 INTRA-LIGAND FREE ENERGY PREDICTED BY IDOCK:    0.09 KCAL/MOL
REMARK 927      BINDING AFFINITY PREDICTED BY RF-SCORE:    0.00 PKD
ROOT
HETATM    1  C   UNL     1      -6.032  12.214  71.008  1.00  0.00     0.417 C  
HETATM    2  C   UNL     1      -6.494  11.107  70.041  1.00  0.00    -0.133 C  
HETATM    3  C   UNL     1      -7.250  11.702  68.671  1.00  0.00    -0.104 C  
HETATM    4  N   UNL     1      -7.457  10.243  70.785  1.00  0.00    -0.333 NA 
HETATM    5  C   UNL     1      -5.229  10.241  69.789  1.00  0.00    -0.038 C  
HETATM    6  H2  UNL     1      -8.232  10.768  71.191  1.00  0.00     0.000 HD 
HETATM    7  N   UNL     1      -8.632  11.918  68.738  1.00  0.00    -0.360 N  
HETATM    8  H1  UNL     1      -7.763   9.510  70.144  1.00  0.00     0.000 HD 
HETATM    9  O   UNL     1      -6.613  11.979  67.656  1.00  0.00    -0.083 OA 
HETATM   10  H   UNL     1      -9.052  11.517  69.576  1.00  0.00     0.000 HD 
ENDROOT
BRANCH   7  11
HETATM   11  C   UNL     1      -9.683  12.636  67.820  1.00  0.00    -0.206 C  
BRANCH  11  12
HETATM   12  C   UNL     1     -11.164  13.036  68.272  1.00  0.00    -0.309 C  
BRANCH  12  13
HETATM   13  C   UNL     1     -11.404  14.296  69.236  1.00  0.00    -0.322 A  
HETATM   14  C   UNL     1     -11.105  15.627  69.010  1.00  0.00    -0.279 A  
HETATM   15  C   UNL     1     -13.018  13.626  72.736  1.00  0.00    -0.273 A  
HETATM   16  C   UNL     1     -12.702  14.857  73.306  1.00  0.00    -0.624 A  
HETATM   17  C   UNL     1     -12.105  15.848  72.528  1.00  0.00    -0.611 A  
HETATM   18  N   UNL     1     -11.319  16.363  70.175  1.00  0.00    -0.444 NA 
HETATM   19  C   UNL     1     -12.670  13.336  71.400  1.00  0.00    -0.401 A  
HETATM   20  C   UNL     1     -11.999  14.294  70.594  1.00  0.00    -0.392 A  
HETATM   21  C   UNL     1     -11.801  15.549  71.172  1.00  0.00    -0.387 A  
HETATM   22  H   UNL     1     -11.142  17.362  70.273  1.00  0.00     0.000 HD 
ENDBRANCH  12  13
ENDBRANCH  11  12
BRANCH  11  23
HETATM   23  C   UNL     1      -9.601  11.960  66.425  1.00  0.00    -0.225 C  
HETATM   24  N   UNL     1     -10.726  11.294  65.978  1.00  0.00    -0.263 N  
HETATM   25  H   UNL     1     -11.602  11.377  66.492  1.00  0.00     0.000 HD 
HETATM   26  O   UNL     1      -8.538  11.955  65.797  1.00  0.00     0.089 OA 
BRANCH  24  27
HETATM   27  C   UNL     1     -10.667  10.480  64.785  1.00  0.00     0.158 C  
BRANCH  27  28
HETATM   28  N   UNL     1     -10.740  11.342  63.634  1.00  0.00    -0.412 N  
HETATM   29  O   UNL     1     -11.826  13.071  64.717  1.00  0.00    -0.330 OA 
HETATM   30  C   UNL     1     -11.325  12.586  63.714  1.00  0.00    -0.466 C  
HETATM   31  H   UNL     1     -10.353  11.026  62.745  1.00  0.00     0.000 HD 
ENDBRANCH  27  28
BRANCH  27  32
HETATM   32  C   UNL     1      -9.588   9.379  64.706  1.00  0.00     0.024 C  
BRANCH  32  33
HETATM   33  C   UNL     1      -8.954   8.582  65.834  1.00  0.00    -0.235 A  
HETATM   34  C   UNL     1      -7.783   7.469  67.477  1.00  0.00    -0.118 A  
HETATM   35  H   UNL     1      -9.503   6.509  68.253  1.00  0.00     0.000 HD 
HETATM   36  C   UNL     1      -6.730   7.019  68.290  1.00  0.00    -0.064 A  
HETATM   37  C   UNL     1      -9.808   7.797  66.605  1.00  0.00    -0.225 A  
HETATM   38  C   UNL     1      -5.447   7.461  67.986  1.00  0.00    -0.026 A  
HETATM   39  N   UNL     1      -9.102   7.147  67.565  1.00  0.00    -0.123 NA 
HETATM   40  C   UNL     1      -5.239   8.316  66.905  1.00  0.00    -0.032 A  
HETATM   41  C   UNL     1      -6.312   8.769  66.107  1.00  0.00    -0.064 A  
HETATM   42  C   UNL     1      -7.630   8.350  66.389  1.00  0.00    -0.084 A  
ENDBRANCH  32  33
ENDBRANCH  27  32
ENDBRANCH  24  27
ENDBRANCH  11  23
ENDBRANCH   7  11
TORSDOF 8
ENDMDL
MODEL      404
REMARK 921   NORMALIZED FREE ENERGY PREDICTED BY IDOCK:   -3.34 KCAL/MOL
REMARK 922        TOTAL FREE ENERGY PREDICTED BY IDOCK:   -7.04 KCAL/MOL
REMARK 923 INTER-LIGAND FREE ENERGY PREDICTED BY IDOCK:   -4.80 KCAL/MOL
REMARK 924 INTRA-LIGAND FREE ENERGY PREDICTED BY IDOCK:   -2.24 KCAL/MOL
REMARK 927      BINDING AFFINITY PREDICTED BY RF-SCORE:    0.00 PKD
ROOT
HETATM    1  C   UNL     1     -11.577   5.781  72.251  1.00  0.00    -0.300 C  
HETATM    2  C   UNL     1     -11.735   7.220  71.723  1.00  0.00    -0.286 C  
HETATM    3  C   UNL     1     -10.455   7.714  70.764  1.00  0.00    -0.210 C  
HETATM    4  N   UNL     1     -11.823   8.121  72.909  1.00  0.00    -0.551 NA 
HETATM    5  C   UNL     1     -13.133   7.246  71.045  1.00  0.00    -0.203 C  
HETATM    6  H2  UNL     1     -11.035   8.015  73.549  1.00  0.00     0.000 HD 
HETATM    7  N   UNL     1      -9.358   8.303  71.403  1.00  0.00    -0.159 N  
HETATM    8  H1  UNL     1     -11.927   9.073  72.558  1.00  0.00     0.000 HD 
HETATM    9  O   UNL     1     -10.457   7.531  69.547  1.00  0.00    -0.218 OA 
HETATM   10  H   UNL     1      -9.545   8.522  72.381  1.00  0.00     0.000 HD 
ENDROOT
BRANCH   7  11
HETATM   11  C   UNL     1      -7.906   8.702  70.962  1.00  0.00    -0.111 C  
BRANCH  11  12
HETATM   12  C   UNL     1      -7.552   9.937  70.009  1.00  0.00    -0.179 C  
BRANCH  12  13
HETATM   13  C   UNL     1      -8.492  10.291  68.759  1.00  0.00    -0.130 A  
HETATM   14  C   UNL     1      -9.632  11.073  68.729  1.00  0.00    -0.187 A  
HETATM   15  C   UNL     1      -7.548   8.766  65.282  1.00  0.00    -0.091 A  
HETATM   16  C   UNL     1      -8.761   9.024  64.650  1.00  0.00    -0.169 A  
HETATM   17  C   UNL     1      -9.749   9.749  65.315  1.00  0.00    -0.371 A  
HETATM   18  N   UNL     1     -10.237  10.977  67.476  1.00  0.00    -0.183 NA 
HETATM   19  C   UNL     1      -7.330   9.160  66.619  1.00  0.00    -0.086 A  
HETATM   20  C   UNL     1      -8.337   9.841  67.354  1.00  0.00    -0.114 A  
HETATM   21  C   UNL     1      -9.493  10.173  66.647  1.00  0.00    -0.170 A  
HETATM   22  H   UNL     1     -11.108  11.437  67.213  1.00  0.00     0.000 HD 
ENDBRANCH  12  13
ENDBRANCH  11  12
BRANCH  11  23
HETATM   23  C   UNL     1      -7.164   7.386  70.604  1.00  0.00    -0.068 C  
HETATM   24  N   UNL     1      -7.343   6.308  71.449  1.00  0.00    -0.083 N  
HETATM   25  H   UNL     1      -8.046   6.354  72.186  1.00  0.00     0.000 HD 
HETATM   26  O   UNL     1      -6.383   7.352  69.649  1.00  0.00    -0.030 OA 
BRANCH  24  27
HETATM   27  C   UNL     1      -6.541   5.117  71.295  1.00  0.00    -0.039 C  
BRANCH  27  28
HETATM   28  N   UNL     1      -6.153   4.650  72.601  1.00  0.00    -0.020 N  
HETATM   29  O   UNL     1      -8.292   4.623  73.475  1.00  0.00    -0.102 OA 
HETATM   30  C   UNL     1      -7.089   4.441  73.588  1.00  0.00    -0.067 C  
HETATM   31  H   UNL     1      -5.168   4.471  72.798  1.00  0.00     0.000 HD 
ENDBRANCH  27  28
BRANCH  27  32
HETATM   32  C   UNL     1      -7.043   4.019  70.333  1.00  0.00    -0.041 C  
BRANCH  32  33
HETATM   33  C   UNL     1      -6.835   3.897  68.832  1.00  0.00    -0.046 A  
HETATM   34  C   UNL     1      -6.756   3.680  66.540  1.00  0.00    -0.049 A  
HETATM   35  H   UNL     1      -4.659   3.951  66.442  1.00  0.00     0.000 HD 
HETATM   36  C   UNL     1      -7.152   3.501  65.205  1.00  0.00    -0.065 A  
HETATM   37  C   UNL     1      -5.529   4.030  68.368  1.00  0.00    -0.013 A  
HETATM   38  C   UNL     1      -8.499   3.258  64.959  1.00  0.00    -0.099 A  
HETATM   39  N   UNL     1      -5.500   3.897  67.017  1.00  0.00    -0.016 NA 
HETATM   40  C   UNL     1      -9.403   3.193  66.018  1.00  0.00    -0.104 A  
HETATM   41  C   UNL     1      -8.989   3.387  67.353  1.00  0.00    -0.174 A  
HETATM   42  C   UNL     1      -7.632   3.646  67.643  1.00  0.00    -0.070 A  
ENDBRANCH  32  33
ENDBRANCH  27  32
ENDBRANCH  24  27
ENDBRANCH  11  23
ENDBRANCH   7  11
TORSDOF 8
ENDMDL
MODEL      405
REMARK 921   NORMALIZED FREE ENERGY PREDICTED BY IDOCK:   -3.34 KCAL/MOL
REMARK 922        TOTAL FREE ENERGY PREDICTED BY IDOCK:   -7.04 KCAL/MOL
REMARK 923 INTER-LIGAND FREE ENERGY PREDICTED BY IDOCK:   -5.95 KCAL/MOL
REMARK 924 INTRA-LIGAND FREE ENERGY PREDICTED BY IDOCK:   -1.09 KCAL/MOL
REMARK 927      BINDING AFFINITY PREDICTED BY RF-SCORE:    0.00 PKD
ROOT
HETATM    1  C   UNL     1     -11.490  17.266  71.230  1.00  0.00     1.548 C  
HETATM    2  C   UNL     1     -11.786  15.761  71.082  1.00  0.00    -0.425 C  
HETATM    3  C   UNL     1     -10.705  14.972  70.077  1.00  0.00    -0.192 C  
HETATM    4  N   UNL     1     -13.157  15.634  70.508  1.00  0.00    -0.725 NA 
HETATM    5  C   UNL     1     -11.867  15.224  72.538  1.00  0.00    -0.532 C  
HETATM    6  H2  UNL     1     -13.274  16.151  69.636  1.00  0.00     0.000 HD 
HETATM    7  N   UNL     1     -10.998  14.942  68.709  1.00  0.00    -0.243 N  
HETATM    8  H1  UNL     1     -13.353  14.637  70.410  1.00  0.00     0.000 HD 
HETATM    9  O   UNL     1      -9.669  14.472  70.516  1.00  0.00     0.996 OA 
HETATM   10  H   UNL     1     -11.944  15.262  68.503  1.00  0.00     0.000 HD 
ENDROOT
BRANCH   7  11
HETATM   11  C   UNL     1     -10.207  14.528  67.419  1.00  0.00    -0.240 C  
BRANCH  11  12
HETATM   12  C   UNL     1      -9.999  15.464  66.139  1.00  0.00    -0.330 C  
BRANCH  12  13
HETATM   13  C   UNL     1      -9.065  16.764  66.230  1.00  0.00    -0.320 A  
HETATM   14  C   UNL     1      -7.711  16.876  65.977  1.00  0.00    -0.065 A  
HETATM   15  C   UNL     1     -10.732  20.127  67.337  1.00  0.00    -0.239 A  
HETATM   16  C   UNL     1      -9.554  20.817  67.609  1.00  0.00    -0.378 A  
HETATM   17  C   UNL     1      -8.323  20.226  67.328  1.00  0.00    -0.404 A  
HETATM   18  N   UNL     1      -7.264  18.145  66.344  1.00  0.00    -0.228 NA 
HETATM   19  C   UNL     1     -10.699  18.802  66.852  1.00  0.00    -0.406 A  
HETATM   20  C   UNL     1      -9.465  18.140  66.617  1.00  0.00    -0.303 A  
HETATM   21  C   UNL     1      -8.314  18.906  66.801  1.00  0.00    -0.281 A  
HETATM   22  H   UNL     1      -6.298  18.463  66.283  1.00  0.00     0.000 HD 
ENDBRANCH  12  13
ENDBRANCH  11  12
BRANCH  11  23
HETATM   23  C   UNL     1     -10.620  13.069  67.083  1.00  0.00    -0.246 C  
HETATM   24  N   UNL     1     -10.175  12.074  67.931  1.00  0.00    -0.191 N  
HETATM   25  H   UNL     1      -9.719  12.323  68.808  1.00  0.00     0.000 HD 
HETATM   26  O   UNL     1     -11.247  12.823  66.049  1.00  0.00    -0.281 OA 
BRANCH  24  27
HETATM   27  C   UNL     1     -10.352  10.683  67.582  1.00  0.00    -0.209 C  
BRANCH  27  28
HETATM   28  N   UNL     1     -11.629  10.242  68.082  1.00  0.00    -0.480 N  
HETATM   29  O   UNL     1     -11.306  11.012  70.237  1.00  0.00    -0.284 OA 
HETATM   30  C   UNL     1     -11.992  10.457  69.392  1.00  0.00    -0.079 C  
HETATM   31  H   UNL     1     -12.275   9.762  67.454  1.00  0.00     0.000 HD 
ENDBRANCH  27  28
BRANCH  27  32
HETATM   32  C   UNL     1     -10.033  10.247  66.136  1.00  0.00    -0.300 C  
BRANCH  32  33
HETATM   33  C   UNL     1      -9.258   9.031  65.656  1.00  0.00    -0.288 A  
HETATM   34  C   UNL     1      -7.968   7.336  64.777  1.00  0.00    -0.122 A  
HETATM   35  H   UNL     1      -8.835   5.846  66.006  1.00  0.00     0.000 HD 
HETATM   36  C   UNL     1      -7.018   6.649  64.004  1.00  0.00    -0.051 A  
HETATM   37  C   UNL     1      -9.562   7.815  66.261  1.00  0.00    -0.108 A  
HETATM   38  C   UNL     1      -6.306   7.379  63.061  1.00  0.00    -0.054 A  
HETATM   39  N   UNL     1      -8.796   6.827  65.730  1.00  0.00    -0.116 NA 
HETATM   40  C   UNL     1      -6.548   8.743  62.901  1.00  0.00    -0.091 A  
HETATM   41  C   UNL     1      -7.498   9.420  63.696  1.00  0.00    -0.111 A  
HETATM   42  C   UNL     1      -8.235   8.715  64.672  1.00  0.00    -0.167 A  
ENDBRANCH  32  33
ENDBRANCH  27  32
ENDBRANCH  24  27
ENDBRANCH  11  23
ENDBRANCH   7  11
TORSDOF 8
ENDMDL
MODEL      406
REMARK 921   NORMALIZED FREE ENERGY PREDICTED BY IDOCK:   -3.33 KCAL/MOL
REMARK 922        TOTAL FREE ENERGY PREDICTED BY IDOCK:   -7.04 KCAL/MOL
REMARK 923 INTER-LIGAND FREE ENERGY PREDICTED BY IDOCK:   -4.69 KCAL/MOL
REMARK 924 INTRA-LIGAND FREE ENERGY PREDICTED BY IDOCK:   -2.35 KCAL/MOL
REMARK 927      BINDING AFFINITY PREDICTED BY RF-SCORE:    0.00 PKD
ROOT
HETATM    1  C   UNL     1      -6.077  16.833  67.276  1.00  0.00    -0.204 C  
HETATM    2  C   UNL     1      -7.574  16.763  67.634  1.00  0.00    -0.167 C  
HETATM    3  C   UNL     1      -8.000  15.341  68.408  1.00  0.00    -0.131 C  
HETATM    4  N   UNL     1      -8.340  16.864  66.358  1.00  0.00    -0.276 NA 
HETATM    5  C   UNL     1      -7.859  18.071  68.423  1.00  0.00    -0.300 C  
HETATM    6  H2  UNL     1      -8.061  16.165  65.669  1.00  0.00     0.000 HD 
HETATM    7  N   UNL     1      -8.364  14.253  67.606  1.00  0.00    -0.167 N  
HETATM    8  H1  UNL     1      -9.331  16.817  66.596  1.00  0.00     0.000 HD 
HETATM    9  O   UNL     1      -7.956  15.240  69.634  1.00  0.00    -0.224 OA 
HETATM   10  H   UNL     1      -8.496  14.512  66.629  1.00  0.00     0.000 HD 
ENDROOT
BRANCH   7  11
HETATM   11  C   UNL     1      -8.617  12.726  67.866  1.00  0.00    -0.181 C  
BRANCH  11  12
HETATM   12  C   UNL     1      -9.543  12.142  69.031  1.00  0.00     0.270 C  
BRANCH  12  13
HETATM   13  C   UNL     1     -10.089  10.635  68.953  1.00  0.00    -0.215 A  
HETATM   14  C   UNL     1     -10.839   9.938  69.882  1.00  0.00    -0.278 A  
HETATM   15  C   UNL     1      -9.211   8.545  65.764  1.00  0.00    -0.210 A  
HETATM   16  C   UNL     1      -9.549   7.298  66.281  1.00  0.00    -0.103 A  
HETATM   17  C   UNL     1     -10.126   7.206  67.547  1.00  0.00    -0.241 A  
HETATM   18  N   UNL     1     -10.949   8.603  69.494  1.00  0.00    -0.416 NA 
HETATM   19  C   UNL     1      -9.372   9.717  66.534  1.00  0.00    -0.212 A  
HETATM   20  C   UNL     1      -9.893   9.658  67.854  1.00  0.00    -0.182 A  
HETATM   21  C   UNL     1     -10.318   8.402  68.290  1.00  0.00    -0.199 A  
HETATM   22  H   UNL     1     -11.430   7.879  70.027  1.00  0.00     0.000 HD 
ENDBRANCH  12  13
ENDBRANCH  11  12
BRANCH  11  23
HETATM   23  C   UNL     1      -7.248  12.010  67.718  1.00  0.00    -0.108 C  
HETATM   24  N   UNL     1      -6.923  11.062  68.669  1.00  0.00    -0.070 N  
HETATM   25  H   UNL     1      -7.625  10.761  69.344  1.00  0.00     0.000 HD 
HETATM   26  O   UNL     1      -6.460  12.351  66.831  1.00  0.00    -0.123 OA 
BRANCH  24  27
HETATM   27  C   UNL     1      -5.594  10.496  68.712  1.00  0.00    -0.041 C  
BRANCH  27  28
HETATM   28  N   UNL     1      -5.299  10.116  70.070  1.00  0.00    -0.037 N  
HETATM   29  O   UNL     1      -5.830  12.164  70.998  1.00  0.00    -0.360 OA 
HETATM   30  C   UNL     1      -5.452  11.008  71.107  1.00  0.00    -0.032 C  
HETATM   31  H   UNL     1      -4.972   9.170  70.266  1.00  0.00     0.000 HD 
ENDBRANCH  27  28
BRANCH  27  32
HETATM   32  C   UNL     1      -5.213   9.448  67.645  1.00  0.00    -0.037 C  
BRANCH  32  33
HETATM   33  C   UNL     1      -5.768   8.047  67.443  1.00  0.00    -0.038 A  
HETATM   34  C   UNL     1      -6.665   5.926  67.371  1.00  0.00    -0.058 A  
HETATM   35  H   UNL     1      -6.276   5.677  65.305  1.00  0.00     0.000 HD 
HETATM   36  C   UNL     1      -7.283   4.727  67.761  1.00  0.00    -0.066 A  
HETATM   37  C   UNL     1      -5.690   7.521  66.156  1.00  0.00    -0.036 A  
HETATM   38  C   UNL     1      -7.625   4.585  69.100  1.00  0.00    -0.056 A  
HETATM   39  N   UNL     1      -6.220   6.271  66.132  1.00  0.00    -0.036 NA 
HETATM   40  C   UNL     1      -7.347   5.608  70.006  1.00  0.00    -0.069 A  
HETATM   41  C   UNL     1      -6.736   6.811  69.594  1.00  0.00    -0.050 A  
HETATM   42  C   UNL     1      -6.383   6.998  68.240  1.00  0.00    -0.035 A  
ENDBRANCH  32  33
ENDBRANCH  27  32
ENDBRANCH  24  27
ENDBRANCH  11  23
ENDBRANCH   7  11
TORSDOF 8
ENDMDL
MODEL      407
REMARK 921   NORMALIZED FREE ENERGY PREDICTED BY IDOCK:   -3.25 KCAL/MOL
REMARK 922        TOTAL FREE ENERGY PREDICTED BY IDOCK:   -6.92 KCAL/MOL
REMARK 923 INTER-LIGAND FREE ENERGY PREDICTED BY IDOCK:   -6.54 KCAL/MOL
REMARK 924 INTRA-LIGAND FREE ENERGY PREDICTED BY IDOCK:   -0.38 KCAL/MOL
REMARK 927      BINDING AFFINITY PREDICTED BY RF-SCORE:    0.00 PKD
ROOT
HETATM    1  C   UNL     1      -8.119   4.856  66.693  1.00  0.00    -0.107 C  
HETATM    2  C   UNL     1      -7.546   6.132  66.048  1.00  0.00    -0.087 C  
HETATM    3  C   UNL     1      -7.613   7.468  67.055  1.00  0.00    -0.103 C  
HETATM    4  N   UNL     1      -8.354   6.411  64.825  1.00  0.00    -0.296 NA 
HETATM    5  C   UNL     1      -6.127   5.730  65.556  1.00  0.00    -0.029 C  
HETATM    6  H2  UNL     1      -9.355   6.474  65.014  1.00  0.00     0.000 HD 
HETATM    7  N   UNL     1      -8.781   8.240  67.027  1.00  0.00    -0.125 N  
HETATM    8  H1  UNL     1      -7.974   7.256  64.398  1.00  0.00     0.000 HD 
HETATM    9  O   UNL     1      -6.691   7.739  67.822  1.00  0.00    -0.063 OA 
HETATM   10  H   UNL     1      -9.397   7.991  66.254  1.00  0.00     0.000 HD 
ENDROOT
BRANCH   7  11
HETATM   11  C   UNL     1      -9.359   9.400  67.912  1.00  0.00    -0.129 C  
BRANCH  11  12
HETATM   12  C   UNL     1     -10.906   9.797  67.995  1.00  0.00    -0.276 C  
BRANCH  12  13
HETATM   13  C   UNL     1     -11.625   9.954  69.420  1.00  0.00    -0.004 A  
HETATM   14  C   UNL     1     -12.250  11.065  69.955  1.00  0.00    -0.343 A  
HETATM   15  C   UNL     1     -11.648   6.849  71.800  1.00  0.00    -0.322 A  
HETATM   16  C   UNL     1     -12.017   7.527  72.959  1.00  0.00     0.212 A  
HETATM   17  C   UNL     1     -12.336   8.882  72.896  1.00  0.00     0.248 A  
HETATM   18  N   UNL     1     -12.587  10.822  71.287  1.00  0.00    -0.403 NA 
HETATM   19  C   UNL     1     -11.516   7.531  70.572  1.00  0.00    -0.259 A  
HETATM   20  C   UNL     1     -11.766   8.926  70.481  1.00  0.00    -0.137 A  
HETATM   21  C   UNL     1     -12.236   9.542  71.642  1.00  0.00    -0.398 A  
HETATM   22  H   UNL     1     -13.031  11.498  71.908  1.00  0.00     0.000 HD 
ENDBRANCH  12  13
ENDBRANCH  11  12
BRANCH  11  23
HETATM   23  C   UNL     1      -8.397  10.608  67.756  1.00  0.00    -0.115 C  
HETATM   24  N   UNL     1      -8.180  11.393  68.872  1.00  0.00    -0.321 N  
HETATM   25  H   UNL     1      -8.533  11.091  69.780  1.00  0.00     0.000 HD 
HETATM   26  O   UNL     1      -7.924  10.889  66.651  1.00  0.00    -0.135 OA 
BRANCH  24  27
HETATM   27  C   UNL     1      -7.457  12.639  68.760  1.00  0.00    -0.044 C  
BRANCH  27  28
HETATM   28  N   UNL     1      -6.048  12.366  68.876  1.00  0.00    -0.069 N  
HETATM   29  O   UNL     1      -5.423  13.622  67.039  1.00  0.00    -0.040 OA 
HETATM   30  C   UNL     1      -5.145  12.899  67.984  1.00  0.00    -0.093 C  
HETATM   31  H   UNL     1      -5.713  11.768  69.631  1.00  0.00     0.000 HD 
ENDBRANCH  27  28
BRANCH  27  32
HETATM   32  C   UNL     1      -7.841  13.606  67.620  1.00  0.00    -0.178 C  
BRANCH  32  33
HETATM   33  C   UNL     1      -9.224  13.971  67.105  1.00  0.00    -0.240 A  
HETATM   34  C   UNL     1     -11.276  14.379  66.139  1.00  0.00    -0.336 A  
HETATM   35  H   UNL     1     -11.886  15.718  67.660  1.00  0.00     0.000 HD 
HETATM   36  C   UNL     1     -12.363  14.332  65.252  1.00  0.00    -0.427 A  
HETATM   37  C   UNL     1      -9.963  14.866  67.874  1.00  0.00    -0.219 A  
HETATM   38  C   UNL     1     -12.232  13.546  64.113  1.00  0.00    -0.449 A  
HETATM   39  N   UNL     1     -11.167  15.097  67.290  1.00  0.00    -0.334 NA 
HETATM   40  C   UNL     1     -11.050  12.844  63.878  1.00  0.00    -0.454 A  
HETATM   41  C   UNL     1      -9.972  12.893  64.788  1.00  0.00    -0.151 A  
HETATM   42  C   UNL     1     -10.070  13.672  65.961  1.00  0.00    -0.320 A  
ENDBRANCH  32  33
ENDBRANCH  27  32
ENDBRANCH  24  27
ENDBRANCH  11  23
ENDBRANCH   7  11
TORSDOF 8
ENDMDL
MODEL      408
REMARK 921   NORMALIZED FREE ENERGY PREDICTED BY IDOCK:   -2.96 KCAL/MOL
REMARK 922        TOTAL FREE ENERGY PREDICTED BY IDOCK:   -6.49 KCAL/MOL
REMARK 923 INTER-LIGAND FREE ENERGY PREDICTED BY IDOCK:   -4.30 KCAL/MOL
REMARK 924 INTRA-LIGAND FREE ENERGY PREDICTED BY IDOCK:   -2.19 KCAL/MOL
REMARK 927      BINDING AFFINITY PREDICTED BY RF-SCORE:    0.00 PKD
ROOT
HETATM    1  C   UNL     1     -11.870  10.621  68.689  1.00  0.00    -0.135 C  
HETATM    2  C   UNL     1     -11.041  11.799  68.142  1.00  0.00    -0.243 C  
HETATM    3  C   UNL     1      -9.691  11.311  67.281  1.00  0.00    -0.174 C  
HETATM    4  N   UNL     1     -10.596  12.609  69.313  1.00  0.00    -0.436 NA 
HETATM    5  C   UNL     1     -12.058  12.675  67.360  1.00  0.00    -0.179 C  
HETATM    6  H2  UNL     1     -10.096  12.060  70.012  1.00  0.00     0.000 HD 
HETATM    7  N   UNL     1      -8.509  11.096  67.999  1.00  0.00    -0.130 N  
HETATM    8  H1  UNL     1     -10.048  13.389  68.950  1.00  0.00     0.000 HD 
HETATM    9  O   UNL     1      -9.743  11.107  66.068  1.00  0.00    -0.209 OA 
HETATM   10  H   UNL     1      -8.566  11.436  68.959  1.00  0.00     0.000 HD 
ENDROOT
BRANCH   7  11
HETATM   11  C   UNL     1      -7.116  10.453  67.667  1.00  0.00    -0.085 C  
BRANCH  11  12
HETATM   12  C   UNL     1      -6.578  10.159  66.190  1.00  0.00    -0.098 C  
BRANCH  12  13
HETATM   13  C   UNL     1      -7.246   9.005  65.300  1.00  0.00    -0.088 A  
HETATM   14  C   UNL     1      -8.213   9.120  64.318  1.00  0.00    -0.161 A  
HETATM   15  C   UNL     1      -6.084   5.322  65.927  1.00  0.00    -0.033 A  
HETATM   16  C   UNL     1      -7.125   4.698  65.246  1.00  0.00    -0.063 A  
HETATM   17  C   UNL     1      -8.057   5.467  64.549  1.00  0.00    -0.122 A  
HETATM   18  N   UNL     1      -8.634   7.851  63.919  1.00  0.00    -0.363 NA 
HETATM   19  C   UNL     1      -5.999   6.729  65.990  1.00  0.00    -0.034 A  
HETATM   20  C   UNL     1      -6.967   7.548  65.350  1.00  0.00    -0.059 A  
HETATM   21  C   UNL     1      -7.930   6.881  64.591  1.00  0.00    -0.112 A  
HETATM   22  H   UNL     1      -9.361   7.670  63.228  1.00  0.00     0.000 HD 
ENDBRANCH  12  13
ENDBRANCH  11  12
BRANCH  11  23
HETATM   23  C   UNL     1      -6.908   9.284  68.667  1.00  0.00    -0.061 C  
HETATM   24  N   UNL     1      -7.938   9.013  69.547  1.00  0.00    -0.096 N  
HETATM   25  H   UNL     1      -8.838   9.478  69.432  1.00  0.00     0.000 HD 
HETATM   26  O   UNL     1      -5.827   8.692  68.715  1.00  0.00    -0.042 OA 
BRANCH  24  27
HETATM   27  C   UNL     1      -7.746   8.075  70.630  1.00  0.00    -0.089 C  
BRANCH  27  28
HETATM   28  N   UNL     1      -7.579   8.813  71.855  1.00  0.00    -0.057 N  
HETATM   29  O   UNL     1      -5.906   7.463  72.704  1.00  0.00    -0.040 OA 
HETATM   30  C   UNL     1      -6.650   8.428  72.795  1.00  0.00    -0.091 C  
HETATM   31  H   UNL     1      -8.157   9.635  72.029  1.00  0.00     0.000 HD 
ENDBRANCH  27  28
BRANCH  27  32
HETATM   32  C   UNL     1      -8.701   6.865  70.724  1.00  0.00    -0.145 C  
BRANCH  32  33
HETATM   33  C   UNL     1      -8.455   5.423  70.313  1.00  0.00    -0.119 A  
HETATM   34  C   UNL     1      -8.213   3.283  69.493  1.00  0.00    -0.051 A  
HETATM   35  H   UNL     1      -7.041   2.634  71.132  1.00  0.00     0.000 HD 
HETATM   36  C   UNL     1      -8.310   2.157  68.660  1.00  0.00    -0.079 A  
HETATM   37  C   UNL     1      -7.687   4.647  71.177  1.00  0.00    -0.081 A  
HETATM   38  C   UNL     1      -9.069   2.276  67.502  1.00  0.00    -0.196 A  
HETATM   39  N   UNL     1      -7.556   3.390  70.681  1.00  0.00    -0.040 NA 
HETATM   40  C   UNL     1      -9.707   3.479  67.203  1.00  0.00    -0.053 A  
HETATM   41  C   UNL     1      -9.587   4.605  68.046  1.00  0.00    -0.207 A  
HETATM   42  C   UNL     1      -8.817   4.527  69.227  1.00  0.00    -0.128 A  
ENDBRANCH  32  33
ENDBRANCH  27  32
ENDBRANCH  24  27
ENDBRANCH  11  23
ENDBRANCH   7  11
TORSDOF 8
ENDMDL
MODEL      409
REMARK 921   NORMALIZED FREE ENERGY PREDICTED BY IDOCK:   -2.96 KCAL/MOL
REMARK 922        TOTAL FREE ENERGY PREDICTED BY IDOCK:   -6.49 KCAL/MOL
REMARK 923 INTER-LIGAND FREE ENERGY PREDICTED BY IDOCK:   -4.83 KCAL/MOL
REMARK 924 INTRA-LIGAND FREE ENERGY PREDICTED BY IDOCK:   -1.66 KCAL/MOL
REMARK 927      BINDING AFFINITY PREDICTED BY RF-SCORE:    0.00 PKD
ROOT
HETATM    1  C   UNL     1     -11.855  10.358  68.583  1.00  0.00     0.052 C  
HETATM    2  C   UNL     1     -10.827  11.313  67.945  1.00  0.00    -0.228 C  
HETATM    3  C   UNL     1      -9.611  10.515  67.116  1.00  0.00    -0.168 C  
HETATM    4  N   UNL     1     -10.216  12.107  69.049  1.00  0.00    -0.425 NA 
HETATM    5  C   UNL     1     -11.674  12.308  67.103  1.00  0.00    -0.396 C  
HETATM    6  H2  UNL     1      -9.816  11.525  69.786  1.00  0.00     0.000 HD 
HETATM    7  N   UNL     1      -8.478  10.132  67.844  1.00  0.00    -0.117 N  
HETATM    8  H1  UNL     1      -9.535  12.740  68.627  1.00  0.00     0.000 HD 
HETATM    9  O   UNL     1      -9.724  10.237  65.923  1.00  0.00    -0.196 OA 
HETATM   10  H   UNL     1      -8.451  10.546  68.775  1.00  0.00     0.000 HD 
ENDROOT
BRANCH   7  11
HETATM   11  C   UNL     1      -7.240   9.212  67.555  1.00  0.00    -0.080 C  
BRANCH  11  12
HETATM   12  C   UNL     1      -6.885   8.584  66.127  1.00  0.00    -0.072 C  
BRANCH  12  13
HETATM   13  C   UNL     1      -7.394   7.113  65.741  1.00  0.00    -0.075 A  
HETATM   14  C   UNL     1      -6.754   6.146  64.990  1.00  0.00    -0.043 A  
HETATM   15  C   UNL     1     -10.927   6.017  67.018  1.00  0.00    -0.364 A  
HETATM   16  C   UNL     1     -11.071   4.911  66.186  1.00  0.00     0.302 A  
HETATM   17  C   UNL     1     -10.016   4.521  65.362  1.00  0.00    -0.207 A  
HETATM   18  N   UNL     1      -7.621   5.080  64.753  1.00  0.00    -0.076 NA 
HETATM   19  C   UNL     1      -9.754   6.801  66.984  1.00  0.00    -0.200 A  
HETATM   20  C   UNL     1      -8.683   6.477  66.110  1.00  0.00    -0.153 A  
HETATM   21  C   UNL     1      -8.827   5.299  65.374  1.00  0.00    -0.152 A  
HETATM   22  H   UNL     1      -7.394   4.256  64.197  1.00  0.00     0.000 HD 
ENDBRANCH  12  13
ENDBRANCH  11  12
BRANCH  11  23
HETATM   23  C   UNL     1      -7.135   8.212  68.737  1.00  0.00    -0.071 C  
HETATM   24  N   UNL     1      -7.994   8.397  69.802  1.00  0.00    -0.102 N  
HETATM   25  H   UNL     1      -8.749   9.078  69.731  1.00  0.00     0.000 HD 
HETATM   26  O   UNL     1      -6.254   7.346  68.743  1.00  0.00    -0.029 OA 
BRANCH  24  27
HETATM   27  C   UNL     1      -7.828   7.632  71.017  1.00  0.00    -0.090 C  
BRANCH  27  28
HETATM   28  N   UNL     1      -7.196   8.468  72.005  1.00  0.00    -0.099 N  
HETATM   29  O   UNL     1      -6.208   6.733  73.169  1.00  0.00    -0.057 OA 
HETATM   30  C   UNL     1      -6.427   7.924  73.009  1.00  0.00    -0.073 C  
HETATM   31  H   UNL     1      -7.321   9.479  71.962  1.00  0.00     0.000 HD 
ENDBRANCH  27  28
BRANCH  27  32
HETATM   32  C   UNL     1      -9.029   6.810  71.531  1.00  0.00    -0.137 C  
BRANCH  32  33
HETATM   33  C   UNL     1      -9.311   5.326  71.363  1.00  0.00    -0.184 A  
HETATM   34  C   UNL     1      -9.834   3.082  71.328  1.00  0.00    -0.075 A  
HETATM   35  H   UNL     1      -9.044   2.782  69.388  1.00  0.00     0.000 HD 
HETATM   36  C   UNL     1     -10.317   1.821  71.713  1.00  0.00    -0.037 A  
HETATM   37  C   UNL     1      -8.919   4.746  70.159  1.00  0.00    -0.099 A  
HETATM   38  C   UNL     1     -10.869   1.703  72.983  1.00  0.00    -0.246 A  
HETATM   39  N   UNL     1      -9.232   3.425  70.156  1.00  0.00    -0.139 NA 
HETATM   40  C   UNL     1     -10.924   2.809  73.829  1.00  0.00    -0.308 A  
HETATM   41  C   UNL     1     -10.446   4.073  73.420  1.00  0.00    -0.251 A  
HETATM   42  C   UNL     1      -9.887   4.237  72.134  1.00  0.00    -0.231 A  
ENDBRANCH  32  33
ENDBRANCH  27  32
ENDBRANCH  24  27
ENDBRANCH  11  23
ENDBRANCH   7  11
TORSDOF 8
ENDMDL
MODEL      410
REMARK 921   NORMALIZED FREE ENERGY PREDICTED BY IDOCK:   -2.63 KCAL/MOL
REMARK 922        TOTAL FREE ENERGY PREDICTED BY IDOCK:   -6.00 KCAL/MOL
REMARK 923 INTER-LIGAND FREE ENERGY PREDICTED BY IDOCK:   -4.03 KCAL/MOL
REMARK 924 INTRA-LIGAND FREE ENERGY PREDICTED BY IDOCK:   -1.97 KCAL/MOL
REMARK 927      BINDING AFFINITY PREDICTED BY RF-SCORE:    0.00 PKD
ROOT
HETATM    1  C   UNL     1      -7.895   8.556  71.639  1.00  0.00    -0.160 C  
HETATM    2  C   UNL     1      -8.589   7.747  70.525  1.00  0.00    -0.132 C  
HETATM    3  C   UNL     1      -8.015   8.107  68.995  1.00  0.00    -0.113 C  
HETATM    4  N   UNL     1     -10.043   8.074  70.582  1.00  0.00    -0.193 NA 
HETATM    5  C   UNL     1      -8.453   6.263  70.964  1.00  0.00    -0.128 C  
HETATM    6  H2  UNL     1     -10.230   9.075  70.524  1.00  0.00     0.000 HD 
HETATM    7  N   UNL     1      -8.624   9.163  68.308  1.00  0.00    -0.128 N  
HETATM    8  H1  UNL     1     -10.502   7.538  69.845  1.00  0.00     0.000 HD 
HETATM    9  O   UNL     1      -7.065   7.495  68.506  1.00  0.00    -0.076 OA 
HETATM   10  H   UNL     1      -9.479   9.485  68.761  1.00  0.00     0.000 HD 
ENDROOT
BRANCH   7  11
HETATM   11  C   UNL     1      -8.295   9.966  67.000  1.00  0.00    -0.121 C  
BRANCH  11  12
HETATM   12  C   UNL     1      -8.634  11.512  66.771  1.00  0.00    -0.170 C  
BRANCH  12  13
HETATM   13  C   UNL     1      -8.269  12.596  67.896  1.00  0.00    -0.170 A  
HETATM   14  C   UNL     1      -8.787  13.865  68.075  1.00  0.00    -0.184 A  
HETATM   15  C   UNL     1      -5.534  11.638  70.525  1.00  0.00    -0.144 A  
HETATM   16  C   UNL     1      -5.313  12.922  71.015  1.00  0.00    -0.181 A  
HETATM   17  C   UNL     1      -6.105  13.979  70.569  1.00  0.00    -0.160 A  
HETATM   18  N   UNL     1      -8.068  14.533  69.066  1.00  0.00    -0.272 NA 
HETATM   19  C   UNL     1      -6.498  11.400  69.522  1.00  0.00    -0.122 A  
HETATM   20  C   UNL     1      -7.278  12.462  68.993  1.00  0.00    -0.008 A  
HETATM   21  C   UNL     1      -7.099  13.711  69.589  1.00  0.00     0.243 A  
HETATM   22  H   UNL     1      -8.238  15.494  69.361  1.00  0.00     0.000 HD 
ENDBRANCH  12  13
ENDBRANCH  11  12
BRANCH  11  23
HETATM   23  C   UNL     1      -8.660   9.048  65.802  1.00  0.00    -0.160 C  
HETATM   24  N   UNL     1      -7.703   8.146  65.380  1.00  0.00    -0.095 N  
HETATM   25  H   UNL     1      -6.859   8.007  65.935  1.00  0.00     0.000 HD 
HETATM   26  O   UNL     1      -9.734   9.195  65.211  1.00  0.00    -0.157 OA 
BRANCH  24  27
HETATM   27  C   UNL     1      -7.892   7.397  64.159  1.00  0.00    -0.120 C  
BRANCH  27  28
HETATM   28  N   UNL     1      -6.831   7.733  63.244  1.00  0.00    -0.070 N  
HETATM   29  O   UNL     1      -7.249  10.006  63.238  1.00  0.00    -0.128 OA 
HETATM   30  C   UNL     1      -6.605   9.036  62.865  1.00  0.00    -0.093 C  
HETATM   31  H   UNL     1      -6.238   6.992  62.872  1.00  0.00     0.000 HD 
ENDBRANCH  27  28
BRANCH  27  32
HETATM   32  C   UNL     1      -8.205   5.890  64.268  1.00  0.00    -0.088 C  
BRANCH  32  33
HETATM   33  C   UNL     1      -8.588   5.082  65.497  1.00  0.00    -0.139 A  
HETATM   34  C   UNL     1      -8.938   3.871  67.426  1.00  0.00    -0.134 A  
HETATM   35  H   UNL     1     -11.008   3.616  67.061  1.00  0.00     0.000 HD 
HETATM   36  C   UNL     1      -8.711   3.215  68.647  1.00  0.00    -0.145 A  
HETATM   37  C   UNL     1      -9.926   4.715  65.614  1.00  0.00    -0.211 A  
HETATM   38  C   UNL     1      -7.408   3.184  69.128  1.00  0.00    -0.048 A  
HETATM   39  N   UNL     1     -10.115   4.001  66.754  1.00  0.00    -0.039 NA 
HETATM   40  C   UNL     1      -6.379   3.784  68.404  1.00  0.00    -0.036 A  
HETATM   41  C   UNL     1      -6.628   4.450  67.185  1.00  0.00    -0.046 A  
HETATM   42  C   UNL     1      -7.940   4.512  66.667  1.00  0.00    -0.102 A  
ENDBRANCH  32  33
ENDBRANCH  27  32
ENDBRANCH  24  27
ENDBRANCH  11  23
ENDBRANCH   7  11
TORSDOF 8
ENDMDL
MODEL      411
REMARK 921   NORMALIZED FREE ENERGY PREDICTED BY IDOCK:   -2.57 KCAL/MOL
REMARK 922        TOTAL FREE ENERGY PREDICTED BY IDOCK:   -5.92 KCAL/MOL
REMARK 923 INTER-LIGAND FREE ENERGY PREDICTED BY IDOCK:   -5.47 KCAL/MOL
REMARK 924 INTRA-LIGAND FREE ENERGY PREDICTED BY IDOCK:   -0.44 KCAL/MOL
REMARK 927      BINDING AFFINITY PREDICTED BY RF-SCORE:    0.00 PKD
ROOT
HETATM    1  C   UNL     1     -11.885  12.786  64.262  1.00  0.00    -0.460 C  
HETATM    2  C   UNL     1     -12.187  14.183  64.837  1.00  0.00    -0.438 C  
HETATM    3  C   UNL     1     -10.845  14.922  65.512  1.00  0.00    -0.356 C  
HETATM    4  N   UNL     1     -13.225  14.012  65.896  1.00  0.00    -0.577 NA 
HETATM    5  C   UNL     1     -12.868  14.956  63.674  1.00  0.00     1.225 C  
HETATM    6  H2  UNL     1     -12.957  13.335  66.611  1.00  0.00     0.000 HD 
HETATM    7  N   UNL     1     -10.576  14.665  66.861  1.00  0.00    -0.277 N  
HETATM    8  H1  UNL     1     -13.424  14.937  66.276  1.00  0.00     0.000 HD 
HETATM    9  O   UNL     1     -10.099  15.632  64.840  1.00  0.00    -0.384 OA 
HETATM   10  H   UNL     1     -11.343  14.183  67.329  1.00  0.00     0.000 HD 
ENDROOT
BRANCH   7  11
HETATM   11  C   UNL     1      -9.365  14.946  67.819  1.00  0.00    -0.194 C  
BRANCH  11  12
HETATM   12  C   UNL     1      -8.162  15.949  67.494  1.00  0.00    -0.177 C  
BRANCH  12  13
HETATM   13  C   UNL     1      -8.428  17.528  67.398  1.00  0.00    -0.222 A  
HETATM   14  C   UNL     1      -9.617  18.192  67.163  1.00  0.00    -0.277 A  
HETATM   15  C   UNL     1      -5.363  19.919  67.840  1.00  0.00    -0.202 A  
HETATM   16  C   UNL     1      -5.971  21.068  67.341  1.00  0.00    -0.365 A  
HETATM   17  C   UNL     1      -7.323  21.044  67.002  1.00  0.00    -0.264 A  
HETATM   18  N   UNL     1      -9.372  19.554  66.987  1.00  0.00    -0.322 NA 
HETATM   19  C   UNL     1      -6.075  18.705  67.935  1.00  0.00    -0.191 A  
HETATM   20  C   UNL     1      -7.435  18.622  67.536  1.00  0.00    -0.237 A  
HETATM   21  C   UNL     1      -8.033  19.821  67.145  1.00  0.00    -0.288 A  
HETATM   22  H   UNL     1     -10.084  20.251  66.772  1.00  0.00     0.000 HD 
ENDBRANCH  12  13
ENDBRANCH  11  12
BRANCH  11  23
HETATM   23  C   UNL     1      -8.916  13.577  68.395  1.00  0.00    -0.146 C  
HETATM   24  N   UNL     1      -9.821  12.535  68.330  1.00  0.00    -0.282 N  
HETATM   25  H   UNL     1     -10.683  12.645  67.796  1.00  0.00     0.000 HD 
HETATM   26  O   UNL     1      -7.825  13.467  68.962  1.00  0.00    -0.002 OA 
BRANCH  24  27
HETATM   27  C   UNL     1      -9.554  11.291  69.015  1.00  0.00    -0.030 C  
BRANCH  27  28
HETATM   28  N   UNL     1     -10.405  10.269  68.462  1.00  0.00    -0.169 N  
HETATM   29  O   UNL     1     -11.714  10.019  70.350  1.00  0.00    -0.266 OA 
HETATM   30  C   UNL     1     -11.429   9.720  69.200  1.00  0.00     0.099 C  
HETATM   31  H   UNL     1     -10.246   9.946  67.507  1.00  0.00     0.000 HD 
ENDBRANCH  27  28
BRANCH  27  32
HETATM   32  C   UNL     1      -8.083  10.873  69.220  1.00  0.00    -0.062 C  
BRANCH  32  33
HETATM   33  C   UNL     1      -7.530   9.644  69.925  1.00  0.00    -0.127 A  
HETATM   34  C   UNL     1      -6.820   7.651  70.838  1.00  0.00    -0.042 A  
HETATM   35  H   UNL     1      -5.615   8.588  72.304  1.00  0.00     0.000 HD 
HETATM   36  C   UNL     1      -6.649   6.276  71.064  1.00  0.00    -0.050 A  
HETATM   37  C   UNL     1      -6.659   9.870  70.987  1.00  0.00     0.058 A  
HETATM   38  C   UNL     1      -7.364   5.397  70.260  1.00  0.00    -0.067 A  
HETATM   39  N   UNL     1      -6.253   8.687  71.515  1.00  0.00    -0.051 NA 
HETATM   40  C   UNL     1      -8.220   5.887  69.274  1.00  0.00    -0.113 A  
HETATM   41  C   UNL     1      -8.370   7.273  69.052  1.00  0.00    -0.126 A  
HETATM   42  C   UNL     1      -7.653   8.198  69.842  1.00  0.00    -0.089 A  
ENDBRANCH  32  33
ENDBRANCH  27  32
ENDBRANCH  24  27
ENDBRANCH  11  23
ENDBRANCH   7  11
TORSDOF 8
ENDMDL
MODEL      412
REMARK 921   NORMALIZED FREE ENERGY PREDICTED BY IDOCK:   -2.52 KCAL/MOL
REMARK 922        TOTAL FREE ENERGY PREDICTED BY IDOCK:   -5.84 KCAL/MOL
REMARK 923 INTER-LIGAND FREE ENERGY PREDICTED BY IDOCK:   -4.06 KCAL/MOL
REMARK 924 INTRA-LIGAND FREE ENERGY PREDICTED BY IDOCK:   -1.78 KCAL/MOL
REMARK 927      BINDING AFFINITY PREDICTED BY RF-SCORE:    0.00 PKD
ROOT
HETATM    1  C   UNL     1      -6.557   9.627  71.319  1.00  0.00     0.074 C  
HETATM    2  C   UNL     1      -7.333   8.586  70.488  1.00  0.00    -0.060 C  
HETATM    3  C   UNL     1      -7.098   8.750  68.839  1.00  0.00    -0.066 C  
HETATM    4  N   UNL     1      -8.782   8.771  70.788  1.00  0.00    -0.170 NA 
HETATM    5  C   UNL     1      -6.930   7.212  71.092  1.00  0.00    -0.061 C  
HETATM    6  H2  UNL     1      -9.103   9.727  70.631  1.00  0.00     0.000 HD 
HETATM    7  N   UNL     1      -7.953   9.617  68.148  1.00  0.00    -0.100 N  
HETATM    8  H1  UNL     1      -9.295   8.082  70.239  1.00  0.00     0.000 HD 
HETATM    9  O   UNL     1      -6.183   8.165  68.260  1.00  0.00    -0.047 OA 
HETATM   10  H   UNL     1      -8.744   9.921  68.714  1.00  0.00     0.000 HD 
ENDROOT
BRANCH   7  11
HETATM   11  C   UNL     1      -7.972  10.228  66.703  1.00  0.00    -0.116 C  
BRANCH  11  12
HETATM   12  C   UNL     1      -8.400  11.729  66.355  1.00  0.00    -0.040 C  
BRANCH  12  13
HETATM   13  C   UNL     1      -8.084  12.920  67.383  1.00  0.00    -0.181 A  
HETATM   14  C   UNL     1      -7.332  12.885  68.542  1.00  0.00    -0.115 A  
HETATM   15  C   UNL     1      -9.625  16.435  66.623  1.00  0.00    -0.273 A  
HETATM   16  C   UNL     1      -9.405  16.991  67.880  1.00  0.00    -0.240 A  
HETATM   17  C   UNL     1      -8.697  16.271  68.842  1.00  0.00    -0.253 A  
HETATM   18  N   UNL     1      -7.458  14.095  69.223  1.00  0.00    -0.309 NA 
HETATM   19  C   UNL     1      -9.210  15.119  66.330  1.00  0.00    -0.334 A  
HETATM   20  C   UNL     1      -8.547  14.327  67.305  1.00  0.00    -0.229 A  
HETATM   21  C   UNL     1      -8.252  14.963  68.513  1.00  0.00    -0.153 A  
HETATM   22  H   UNL     1      -7.022  14.306  70.121  1.00  0.00     0.000 HD 
ENDBRANCH  12  13
ENDBRANCH  11  12
BRANCH  11  23
HETATM   23  C   UNL     1      -8.590   9.155  65.767  1.00  0.00    -0.153 C  
HETATM   24  N   UNL     1      -7.717   8.327  65.089  1.00  0.00    -0.096 N  
HETATM   25  H   UNL     1      -6.724   8.343  65.317  1.00  0.00     0.000 HD 
HETATM   26  O   UNL     1      -9.811   9.118  65.584  1.00  0.00    -0.264 OA 
BRANCH  24  27
HETATM   27  C   UNL     1      -8.203   7.438  64.059  1.00  0.00     0.053 C  
BRANCH  27  28
HETATM   28  N   UNL     1      -7.481   7.705  62.841  1.00  0.00    -0.100 N  
HETATM   29  O   UNL     1      -5.388   7.282  63.724  1.00  0.00    -0.032 OA 
HETATM   30  C   UNL     1      -6.110   7.596  62.790  1.00  0.00    -0.063 C  
HETATM   31  H   UNL     1      -7.994   7.979  62.004  1.00  0.00     0.000 HD 
ENDBRANCH  27  28
BRANCH  27  32
HETATM   32  C   UNL     1      -8.368   5.942  64.403  1.00  0.00    -0.048 C  
BRANCH  32  33
HETATM   33  C   UNL     1      -8.278   5.261  65.759  1.00  0.00    -0.119 A  
HETATM   34  C   UNL     1      -7.904   4.249  67.795  1.00  0.00    -0.083 A  
HETATM   35  H   UNL     1      -9.963   3.942  68.182  1.00  0.00     0.000 HD 
HETATM   36  C   UNL     1      -7.250   3.723  68.921  1.00  0.00    -0.050 A  
HETATM   37  C   UNL     1      -9.481   4.896  66.358  1.00  0.00    -0.155 A  
HETATM   38  C   UNL     1      -5.861   3.751  68.930  1.00  0.00    -0.023 A  
HETATM   39  N   UNL     1      -9.243   4.300  67.554  1.00  0.00    -0.139 NA 
HETATM   40  C   UNL     1      -5.164   4.283  67.847  1.00  0.00    -0.011 A  
HETATM   41  C   UNL     1      -5.838   4.820  66.729  1.00  0.00    -0.026 A  
HETATM   42  C   UNL     1      -7.249   4.818  66.685  1.00  0.00    -0.080 A  
ENDBRANCH  32  33
ENDBRANCH  27  32
ENDBRANCH  24  27
ENDBRANCH  11  23
ENDBRANCH   7  11
TORSDOF 8
ENDMDL
MODEL      413
REMARK 921   NORMALIZED FREE ENERGY PREDICTED BY IDOCK:   -2.38 KCAL/MOL
REMARK 922        TOTAL FREE ENERGY PREDICTED BY IDOCK:   -5.63 KCAL/MOL
REMARK 923 INTER-LIGAND FREE ENERGY PREDICTED BY IDOCK:   -5.03 KCAL/MOL
REMARK 924 INTRA-LIGAND FREE ENERGY PREDICTED BY IDOCK:   -0.61 KCAL/MOL
REMARK 927      BINDING AFFINITY PREDICTED BY RF-SCORE:    0.00 PKD
ROOT
HETATM    1  C   UNL     1      -9.533   5.324  72.435  1.00  0.00    -0.160 C  
HETATM    2  C   UNL     1      -8.497   6.456  72.582  1.00  0.00    -0.122 C  
HETATM    3  C   UNL     1      -8.744   7.719  71.512  1.00  0.00    -0.121 C  
HETATM    4  N   UNL     1      -7.153   5.863  72.323  1.00  0.00    -0.082 NA 
HETATM    5  C   UNL     1      -8.529   6.834  74.089  1.00  0.00    -0.161 C  
HETATM    6  H2  UNL     1      -7.095   5.383  71.424  1.00  0.00     0.000 HD 
HETATM    7  N   UNL     1      -8.141   7.626  70.252  1.00  0.00    -0.112 N  
HETATM    8  H1  UNL     1      -6.468   6.612  72.420  1.00  0.00     0.000 HD 
HETATM    9  O   UNL     1      -9.463   8.675  71.803  1.00  0.00    -0.233 OA 
HETATM   10  H   UNL     1      -7.466   6.864  70.195  1.00  0.00     0.000 HD 
ENDROOT
BRANCH   7  11
HETATM   11  C   UNL     1      -8.264   8.426  68.907  1.00  0.00    -0.115 C  
BRANCH  11  12
HETATM   12  C   UNL     1      -9.390   9.519  68.597  1.00  0.00    -0.142 C  
BRANCH  12  13
HETATM   13  C   UNL     1      -9.016  11.078  68.557  1.00  0.00    -0.163 A  
HETATM   14  C   UNL     1      -7.791  11.679  68.777  1.00  0.00    -0.096 A  
HETATM   15  C   UNL     1     -11.886  13.618  67.771  1.00  0.00    -0.403 A  
HETATM   16  C   UNL     1     -11.215  14.765  68.185  1.00  0.00    -0.307 A  
HETATM   17  C   UNL     1      -9.880  14.682  68.579  1.00  0.00    -0.228 A  
HETATM   18  N   UNL     1      -7.945  13.065  68.815  1.00  0.00    -0.330 NA 
HETATM   19  C   UNL     1     -11.260  12.355  67.818  1.00  0.00    -0.327 A  
HETATM   20  C   UNL     1      -9.923  12.218  68.278  1.00  0.00    -0.216 A  
HETATM   21  C   UNL     1      -9.255  13.406  68.579  1.00  0.00    -0.082 A  
HETATM   22  H   UNL     1      -7.192  13.729  68.993  1.00  0.00     0.000 HD 
ENDBRANCH  12  13
ENDBRANCH  11  12
BRANCH  11  23
HETATM   23  C   UNL     1      -8.024   7.413  67.756  1.00  0.00    -0.118 C  
HETATM   24  N   UNL     1      -7.553   7.914  66.558  1.00  0.00    -0.091 N  
HETATM   25  H   UNL     1      -7.248   8.886  66.501  1.00  0.00     0.000 HD 
HETATM   26  O   UNL     1      -8.330   6.225  67.898  1.00  0.00    -0.117 OA 
BRANCH  24  27
HETATM   27  C   UNL     1      -7.489   7.071  65.387  1.00  0.00    -0.088 C  
BRANCH  27  28
HETATM   28  N   UNL     1      -7.073   7.872  64.264  1.00  0.00    -0.071 N  
HETATM   29  O   UNL     1      -8.185   9.786  64.929  1.00  0.00    -0.127 OA 
HETATM   30  C   UNL     1      -7.469   9.185  64.142  1.00  0.00    -0.109 C  
HETATM   31  H   UNL     1      -6.475   7.460  63.548  1.00  0.00     0.000 HD 
ENDBRANCH  27  28
BRANCH  27  32
HETATM   32  C   UNL     1      -6.781   5.705  65.509  1.00  0.00    -0.041 C  
BRANCH  32  33
HETATM   33  C   UNL     1      -7.227   4.349  64.985  1.00  0.00    -0.071 A  
HETATM   34  C   UNL     1      -8.105   2.403  64.120  1.00  0.00    -0.081 A  
HETATM   35  H   UNL     1      -6.420   1.238  64.651  1.00  0.00     0.000 HD 
HETATM   36  C   UNL     1      -8.976   1.499  63.490  1.00  0.00    -0.088 A  
HETATM   37  C   UNL     1      -6.341   3.289  65.157  1.00  0.00    -0.031 A  
HETATM   38  C   UNL     1     -10.206   1.983  63.060  1.00  0.00    -0.116 A  
HETATM   39  N   UNL     1      -6.875   2.150  64.644  1.00  0.00    -0.041 NA 
HETATM   40  C   UNL     1     -10.543   3.320  63.264  1.00  0.00    -0.241 A  
HETATM   41  C   UNL     1      -9.649   4.218  63.888  1.00  0.00    -0.102 A  
HETATM   42  C   UNL     1      -8.387   3.767  64.330  1.00  0.00    -0.094 A  
ENDBRANCH  32  33
ENDBRANCH  27  32
ENDBRANCH  24  27
ENDBRANCH  11  23
ENDBRANCH   7  11
TORSDOF 8
ENDMDL
MODEL      414
REMARK 921   NORMALIZED FREE ENERGY PREDICTED BY IDOCK:   -2.28 KCAL/MOL
REMARK 922        TOTAL FREE ENERGY PREDICTED BY IDOCK:   -5.50 KCAL/MOL
REMARK 923 INTER-LIGAND FREE ENERGY PREDICTED BY IDOCK:   -4.99 KCAL/MOL
REMARK 924 INTRA-LIGAND FREE ENERGY PREDICTED BY IDOCK:   -0.51 KCAL/MOL
REMARK 927      BINDING AFFINITY PREDICTED BY RF-SCORE:    0.00 PKD
ROOT
HETATM    1  C   UNL     1      -9.219   3.932  73.109  1.00  0.00    -0.121 C  
HETATM    2  C   UNL     1      -7.784   4.452  72.895  1.00  0.00    -0.086 C  
HETATM    3  C   UNL     1      -7.730   5.949  72.147  1.00  0.00    -0.102 C  
HETATM    4  N   UNL     1      -7.077   3.459  72.035  1.00  0.00    -0.040 NA 
HETATM    5  C   UNL     1      -7.118   4.376  74.296  1.00  0.00    -0.071 C  
HETATM    6  H2  UNL     1      -7.567   3.268  71.161  1.00  0.00     0.000 HD 
HETATM    7  N   UNL     1      -7.714   5.971  70.747  1.00  0.00    -0.096 N  
HETATM    8  H1  UNL     1      -6.127   3.804  71.894  1.00  0.00     0.000 HD 
HETATM    9  O   UNL     1      -7.747   6.992  72.799  1.00  0.00    -0.088 OA 
HETATM   10  H   UNL     1      -7.560   5.048  70.342  1.00  0.00     0.000 HD 
ENDROOT
BRANCH   7  11
HETATM   11  C   UNL     1      -7.879   7.090  69.659  1.00  0.00    -0.119 C  
BRANCH  11  12
HETATM   12  C   UNL     1      -9.121   8.092  69.564  1.00  0.00    -0.152 C  
BRANCH  12  13
HETATM   13  C   UNL     1     -10.576   7.627  70.055  1.00  0.00    -0.240 A  
HETATM   14  C   UNL     1     -11.219   6.423  69.835  1.00  0.00    -0.420 A  
HETATM   15  C   UNL     1     -12.692  10.173  72.141  1.00  0.00    -0.316 A  
HETATM   16  C   UNL     1     -13.913   9.515  72.021  1.00  0.00    -0.275 A  
HETATM   17  C   UNL     1     -13.972   8.273  71.392  1.00  0.00    -0.341 A  
HETATM   18  N   UNL     1     -12.536   6.501  70.289  1.00  0.00    -0.200 NA 
HETATM   19  C   UNL     1     -11.521   9.637  71.564  1.00  0.00    -0.439 A  
HETATM   20  C   UNL     1     -11.552   8.406  70.856  1.00  0.00    -0.288 A  
HETATM   21  C   UNL     1     -12.773   7.731  70.854  1.00  0.00     0.023 A  
HETATM   22  H   UNL     1     -13.223   5.753  70.212  1.00  0.00     0.000 HD 
ENDBRANCH  12  13
ENDBRANCH  11  12
BRANCH  11  23
HETATM   23  C   UNL     1      -7.456   6.465  68.302  1.00  0.00    -0.091 C  
HETATM   24  N   UNL     1      -7.541   7.268  67.181  1.00  0.00    -0.101 N  
HETATM   25  H   UNL     1      -7.737   8.264  67.285  1.00  0.00     0.000 HD 
HETATM   26  O   UNL     1      -7.144   5.273  68.236  1.00  0.00    -0.060 OA 
BRANCH  24  27
HETATM   27  C   UNL     1      -7.353   6.707  65.864  1.00  0.00    -0.079 C  
BRANCH  27  28
HETATM   28  N   UNL     1      -6.685   7.681  65.038  1.00  0.00    -0.047 N  
HETATM   29  O   UNL     1      -8.585   8.903  64.551  1.00  0.00    -0.175 OA 
HETATM   30  C   UNL     1      -7.383   8.711  64.450  1.00  0.00    -0.103 C  
HETATM   31  H   UNL     1      -5.680   7.605  64.888  1.00  0.00     0.000 HD 
ENDBRANCH  27  28
BRANCH  27  32
HETATM   32  C   UNL     1      -6.797   5.271  65.755  1.00  0.00    -0.064 C  
BRANCH  32  33
HETATM   33  C   UNL     1      -7.476   4.024  65.211  1.00  0.00    -0.080 A  
HETATM   34  C   UNL     1      -8.682   2.278  64.313  1.00  0.00    -0.098 A  
HETATM   35  H   UNL     1      -7.247   0.820  64.855  1.00  0.00     0.000 HD 
HETATM   36  C   UNL     1      -9.694   1.554  63.662  1.00  0.00    -0.122 A  
HETATM   37  C   UNL     1      -6.802   2.818  65.383  1.00  0.00    -0.048 A  
HETATM   38  C   UNL     1     -10.808   2.259  63.221  1.00  0.00    -0.226 A  
HETATM   39  N   UNL     1      -7.527   1.800  64.852  1.00  0.00    -0.060 NA 
HETATM   40  C   UNL     1     -10.897   3.633  63.434  1.00  0.00    -0.181 A  
HETATM   41  C   UNL     1      -9.864   4.347  64.079  1.00  0.00     0.019 A  
HETATM   42  C   UNL     1      -8.712   3.670  64.534  1.00  0.00    -0.105 A  
ENDBRANCH  32  33
ENDBRANCH  27  32
ENDBRANCH  24  27
ENDBRANCH  11  23
ENDBRANCH   7  11
TORSDOF 8
ENDMDL
MODEL      415
REMARK 921   NORMALIZED FREE ENERGY PREDICTED BY IDOCK:   -2.21 KCAL/MOL
REMARK 922        TOTAL FREE ENERGY PREDICTED BY IDOCK:   -5.38 KCAL/MOL
REMARK 923 INTER-LIGAND FREE ENERGY PREDICTED BY IDOCK:   -4.10 KCAL/MOL
REMARK 924 INTRA-LIGAND FREE ENERGY PREDICTED BY IDOCK:   -1.29 KCAL/MOL
REMARK 927      BINDING AFFINITY PREDICTED BY RF-SCORE:    0.00 PKD
ROOT
HETATM    1  C   UNL     1      -6.902  16.193  69.062  1.00  0.00    -0.176 C  
HETATM    2  C   UNL     1      -6.364  15.722  67.697  1.00  0.00    -0.161 C  
HETATM    3  C   UNL     1      -7.448  14.763  66.856  1.00  0.00     0.345 C  
HETATM    4  N   UNL     1      -5.125  14.932  67.958  1.00  0.00    -0.137 NA 
HETATM    5  C   UNL     1      -5.913  17.021  66.974  1.00  0.00    -0.214 C  
HETATM    6  H2  UNL     1      -5.273  14.165  68.616  1.00  0.00     0.000 HD 
HETATM    7  N   UNL     1      -7.415  13.385  67.100  1.00  0.00    -0.370 N  
HETATM    8  H1  UNL     1      -4.769  14.620  67.055  1.00  0.00     0.000 HD 
HETATM    9  O   UNL     1      -8.272  15.252  66.084  1.00  0.00     0.126 OA 
HETATM   10  H   UNL     1      -6.601  13.101  67.645  1.00  0.00     0.000 HD 
ENDROOT
BRANCH   7  11
HETATM   11  C   UNL     1      -8.343  12.175  66.727  1.00  0.00    -0.111 C  
BRANCH  11  12
HETATM   12  C   UNL     1      -9.702  12.294  65.891  1.00  0.00    -0.247 C  
BRANCH  12  13
HETATM   13  C   UNL     1     -10.931  13.152  66.462  1.00  0.00    -0.303 A  
HETATM   14  C   UNL     1     -12.095  13.529  65.818  1.00  0.00    -0.433 A  
HETATM   15  C   UNL     1     -10.700  14.429  70.153  1.00  0.00     0.203 A  
HETATM   16  C   UNL     1     -11.733  15.359  70.075  1.00  0.00    -0.349 A  
HETATM   17  C   UNL     1     -12.498  15.448  68.913  1.00  0.00     0.175 A  
HETATM   18  N   UNL     1     -12.814  14.413  66.622  1.00  0.00    -0.208 NA 
HETATM   19  C   UNL     1     -10.363  13.625  69.043  1.00  0.00    -0.048 A  
HETATM   20  C   UNL     1     -11.074  13.734  67.819  1.00  0.00    -0.288 A  
HETATM   21  C   UNL     1     -12.169  14.601  67.821  1.00  0.00    -0.047 A  
HETATM   22  H   UNL     1     -13.693  14.857  66.358  1.00  0.00     0.000 HD 
ENDBRANCH  12  13
ENDBRANCH  11  12
BRANCH  11  23
HETATM   23  C   UNL     1      -8.447  11.279  67.990  1.00  0.00    -0.138 C  
HETATM   24  N   UNL     1      -9.241  10.152  67.905  1.00  0.00    -0.137 N  
HETATM   25  H   UNL     1      -9.617   9.865  67.001  1.00  0.00     0.000 HD 
HETATM   26  O   UNL     1      -7.904  11.624  69.044  1.00  0.00    -0.080 OA 
BRANCH  24  27
HETATM   27  C   UNL     1      -9.542   9.378  69.087  1.00  0.00    -0.163 C  
BRANCH  27  28
HETATM   28  N   UNL     1     -10.511  10.096  69.874  1.00  0.00    -0.266 N  
HETATM   29  O   UNL     1      -9.802   9.272  71.913  1.00  0.00    -0.235 OA 
HETATM   30  C   UNL     1     -10.547   9.973  71.244  1.00  0.00     0.361 C  
HETATM   31  H   UNL     1     -11.183  10.706  69.408  1.00  0.00     0.000 HD 
ENDBRANCH  27  28
BRANCH  27  32
HETATM   32  C   UNL     1      -9.828   7.871  68.919  1.00  0.00    -0.174 C  
BRANCH  32  33
HETATM   33  C   UNL     1      -8.924   6.688  69.226  1.00  0.00    -0.135 A  
HETATM   34  C   UNL     1      -7.685   4.770  69.537  1.00  0.00    -0.062 A  
HETATM   35  H   UNL     1      -6.381   5.668  70.941  1.00  0.00     0.000 HD 
HETATM   36  C   UNL     1      -7.223   3.450  69.419  1.00  0.00    -0.045 A  
HETATM   37  C   UNL     1      -7.899   6.905  70.144  1.00  0.00    -0.106 A  
HETATM   38  C   UNL     1      -7.924   2.594  68.577  1.00  0.00    -0.061 A  
HETATM   39  N   UNL     1      -7.181   5.765  70.317  1.00  0.00    -0.072 NA 
HETATM   40  C   UNL     1      -9.047   3.053  67.889  1.00  0.00    -0.225 A  
HETATM   41  C   UNL     1      -9.489   4.388  68.009  1.00  0.00    -0.208 A  
HETATM   42  C   UNL     1      -8.799   5.290  68.847  1.00  0.00    -0.102 A  
ENDBRANCH  32  33
ENDBRANCH  27  32
ENDBRANCH  24  27
ENDBRANCH  11  23
ENDBRANCH   7  11
TORSDOF 8
ENDMDL
MODEL      416
REMARK 921   NORMALIZED FREE ENERGY PREDICTED BY IDOCK:   -2.11 KCAL/MOL
REMARK 922        TOTAL FREE ENERGY PREDICTED BY IDOCK:   -5.24 KCAL/MOL
REMARK 923 INTER-LIGAND FREE ENERGY PREDICTED BY IDOCK:   -3.48 KCAL/MOL
REMARK 924 INTRA-LIGAND FREE ENERGY PREDICTED BY IDOCK:   -1.76 KCAL/MOL
REMARK 927      BINDING AFFINITY PREDICTED BY RF-SCORE:    0.00 PKD
ROOT
HETATM    1  C   UNL     1      -6.638   9.898  71.597  1.00  0.00     0.542 C  
HETATM    2  C   UNL     1      -7.205   8.803  70.672  1.00  0.00    -0.066 C  
HETATM    3  C   UNL     1      -6.714   8.966  69.080  1.00  0.00    -0.051 C  
HETATM    4  N   UNL     1      -8.693   8.903  70.729  1.00  0.00    -0.186 NA 
HETATM    5  C   UNL     1      -6.827   7.463  71.361  1.00  0.00    -0.050 C  
HETATM    6  H2  UNL     1      -9.039   9.836  70.502  1.00  0.00     0.000 HD 
HETATM    7  N   UNL     1      -7.493   9.772  68.243  1.00  0.00    -0.080 N  
HETATM    8  H1  UNL     1      -9.068   8.179  70.117  1.00  0.00     0.000 HD 
HETATM    9  O   UNL     1      -5.684   8.432  68.670  1.00  0.00    -0.035 OA 
HETATM   10  H   UNL     1      -8.383  10.032  68.666  1.00  0.00     0.000 HD 
ENDROOT
BRANCH   7  11
HETATM   11  C   UNL     1      -7.312  10.366  66.801  1.00  0.00    -0.110 C  
BRANCH  11  12
HETATM   12  C   UNL     1      -7.450  11.916  66.432  1.00  0.00     0.263 C  
BRANCH  12  13
HETATM   13  C   UNL     1      -8.687  12.773  66.987  1.00  0.00    -0.197 A  
HETATM   14  C   UNL     1      -9.012  13.077  68.295  1.00  0.00    -0.177 A  
HETATM   15  C   UNL     1     -11.212  14.223  64.372  1.00  0.00    -0.262 A  
HETATM   16  C   UNL     1     -12.226  14.537  65.273  1.00  0.00    -0.321 A  
HETATM   17  C   UNL     1     -12.012  14.376  66.641  1.00  0.00    -0.414 A  
HETATM   18  N   UNL     1     -10.261  13.696  68.341  1.00  0.00    -0.242 NA 
HETATM   19  C   UNL     1      -9.994  13.667  64.817  1.00  0.00    -0.147 A  
HETATM   20  C   UNL     1      -9.763  13.423  66.197  1.00  0.00    -0.260 A  
HETATM   21  C   UNL     1     -10.762  13.853  67.072  1.00  0.00    -0.283 A  
HETATM   22  H   UNL     1     -10.734  13.991  69.195  1.00  0.00     0.000 HD 
ENDBRANCH  12  13
ENDBRANCH  11  12
BRANCH  11  23
HETATM   23  C   UNL     1      -8.043   9.409  65.822  1.00  0.00    -0.114 C  
HETATM   24  N   UNL     1      -7.290   8.836  64.816  1.00  0.00    -0.091 N  
HETATM   25  H   UNL     1      -6.276   8.938  64.822  1.00  0.00     0.000 HD 
HETATM   26  O   UNL     1      -9.264   9.248  65.905  1.00  0.00    -0.185 OA 
BRANCH  24  27
HETATM   27  C   UNL     1      -7.931   8.092  63.756  1.00  0.00    -0.137 C  
BRANCH  27  28
HETATM   28  N   UNL     1      -7.219   8.333  62.528  1.00  0.00    -0.094 N  
HETATM   29  O   UNL     1      -5.165   7.622  63.316  1.00  0.00    -0.037 OA 
HETATM   30  C   UNL     1      -5.872   8.065  62.423  1.00  0.00    -0.070 C  
HETATM   31  H   UNL     1      -7.720   8.707  61.723  1.00  0.00     0.000 HD 
ENDBRANCH  27  28
BRANCH  27  32
HETATM   32  C   UNL     1      -8.296   6.615  64.019  1.00  0.00     0.156 C  
BRANCH  32  33
HETATM   33  C   UNL     1      -8.156   5.812  65.301  1.00  0.00    -0.130 A  
HETATM   34  C   UNL     1      -8.176   4.643  67.287  1.00  0.00    -0.105 A  
HETATM   35  H   UNL     1      -6.141   4.079  67.141  1.00  0.00     0.000 HD 
HETATM   36  C   UNL     1      -8.617   4.065  68.488  1.00  0.00    -0.115 A  
HETATM   37  C   UNL     1      -6.906   5.255  65.559  1.00  0.00    -0.061 A  
HETATM   38  C   UNL     1      -9.932   4.302  68.872  1.00  0.00    -0.032 A  
HETATM   39  N   UNL     1      -6.934   4.573  66.733  1.00  0.00    -0.062 NA 
HETATM   40  C   UNL     1     -10.761   5.095  68.079  1.00  0.00     0.114 A  
HETATM   41  C   UNL     1     -10.303   5.658  66.869  1.00  0.00    -0.312 A  
HETATM   42  C   UNL     1      -8.978   5.432  66.439  1.00  0.00    -0.131 A  
ENDBRANCH  32  33
ENDBRANCH  27  32
ENDBRANCH  24  27
ENDBRANCH  11  23
ENDBRANCH   7  11
TORSDOF 8
ENDMDL
MODEL      417
REMARK 921   NORMALIZED FREE ENERGY PREDICTED BY IDOCK:   -2.07 KCAL/MOL
REMARK 922        TOTAL FREE ENERGY PREDICTED BY IDOCK:   -5.19 KCAL/MOL
REMARK 923 INTER-LIGAND FREE ENERGY PREDICTED BY IDOCK:   -4.94 KCAL/MOL
REMARK 924 INTRA-LIGAND FREE ENERGY PREDICTED BY IDOCK:   -0.25 KCAL/MOL
REMARK 927      BINDING AFFINITY PREDICTED BY RF-SCORE:    0.00 PKD
ROOT
HETATM    1  C   UNL     1      -8.194   7.322  72.735  1.00  0.00    -0.125 C  
HETATM    2  C   UNL     1      -9.478   7.109  71.910  1.00  0.00    -0.146 C  
HETATM    3  C   UNL     1      -9.487   7.965  70.471  1.00  0.00    -0.162 C  
HETATM    4  N   UNL     1     -10.624   7.566  72.749  1.00  0.00    -0.280 NA 
HETATM    5  C   UNL     1      -9.617   5.567  71.777  1.00  0.00    -0.183 C  
HETATM    6  H2  UNL     1     -10.517   8.525  73.081  1.00  0.00     0.000 HD 
HETATM    7  N   UNL     1      -9.984   9.273  70.501  1.00  0.00    -0.230 N  
HETATM    8  H1  UNL     1     -11.474   7.425  72.202  1.00  0.00     0.000 HD 
HETATM    9  O   UNL     1      -9.036   7.481  69.434  1.00  0.00    -0.143 OA 
HETATM   10  H   UNL     1     -10.451   9.496  71.380  1.00  0.00     0.000 HD 
ENDROOT
BRANCH   7  11
HETATM   11  C   UNL     1      -9.987  10.477  69.494  1.00  0.00    -0.158 C  
BRANCH  11  12
HETATM   12  C   UNL     1     -11.002  10.635  68.268  1.00  0.00    -0.314 C  
BRANCH  12  13
HETATM   13  C   UNL     1     -11.008  11.977  67.390  1.00  0.00    -0.311 A  
HETATM   14  C   UNL     1     -11.062  12.110  66.015  1.00  0.00    -0.313 A  
HETATM   15  C   UNL     1     -10.817  15.393  69.287  1.00  0.00    -0.253 A  
HETATM   16  C   UNL     1     -10.496  16.181  68.185  1.00  0.00    -0.279 A  
HETATM   17  C   UNL     1     -10.467  15.612  66.912  1.00  0.00    -0.307 A  
HETATM   18  N   UNL     1     -10.871  13.446  65.662  1.00  0.00    -0.280 NA 
HETATM   19  C   UNL     1     -11.037  14.007  69.147  1.00  0.00    -0.294 A  
HETATM   20  C   UNL     1     -10.949  13.377  67.877  1.00  0.00    -0.276 A  
HETATM   21  C   UNL     1     -10.733  14.222  66.788  1.00  0.00    -0.287 A  
HETATM   22  H   UNL     1     -10.838  13.797  64.705  1.00  0.00     0.000 HD 
ENDBRANCH  12  13
ENDBRANCH  11  12
BRANCH  11  23
HETATM   23  C   UNL     1      -8.505  10.773  69.138  1.00  0.00    -0.097 C  
HETATM   24  N   UNL     1      -7.793   9.772  68.506  1.00  0.00    -0.081 N  
HETATM   25  H   UNL     1      -8.278   8.940  68.170  1.00  0.00     0.000 HD 
HETATM   26  O   UNL     1      -7.980  11.832  69.493  1.00  0.00     0.359 OA 
BRANCH  24  27
HETATM   27  C   UNL     1      -6.366   9.896  68.319  1.00  0.00    -0.054 C  
BRANCH  27  28
HETATM   28  N   UNL     1      -5.811  10.589  69.453  1.00  0.00    -0.038 N  
HETATM   29  O   UNL     1      -5.366  12.554  68.320  1.00  0.00    -0.054 OA 
HETATM   30  C   UNL     1      -5.356  11.884  69.342  1.00  0.00    -0.061 C  
HETATM   31  H   UNL     1      -5.754  10.113  70.353  1.00  0.00     0.000 HD 
ENDBRANCH  27  28
BRANCH  27  32
HETATM   32  C   UNL     1      -5.578   8.648  67.869  1.00  0.00    -0.035 C  
BRANCH  32  33
HETATM   33  C   UNL     1      -5.922   7.181  68.064  1.00  0.00    -0.030 A  
HETATM   34  C   UNL     1      -6.600   4.982  68.180  1.00  0.00    -0.049 A  
HETATM   35  H   UNL     1      -5.305   4.517  69.788  1.00  0.00     0.000 HD 
HETATM   36  C   UNL     1      -7.268   3.778  67.905  1.00  0.00    -0.059 A  
HETATM   37  C   UNL     1      -5.241   6.506  69.074  1.00  0.00    -0.012 A  
HETATM   38  C   UNL     1      -8.229   3.789  66.900  1.00  0.00    -0.096 A  
HETATM   39  N   UNL     1      -5.653   5.213  69.130  1.00  0.00    -0.008 NA 
HETATM   40  C   UNL     1      -8.506   4.967  66.209  1.00  0.00    -0.112 A  
HETATM   41  C   UNL     1      -7.815   6.166  66.490  1.00  0.00    -0.104 A  
HETATM   42  C   UNL     1      -6.825   6.193  67.497  1.00  0.00    -0.063 A  
ENDBRANCH  32  33
ENDBRANCH  27  32
ENDBRANCH  24  27
ENDBRANCH  11  23
ENDBRANCH   7  11
TORSDOF 8
ENDMDL
MODEL      418
REMARK 921   NORMALIZED FREE ENERGY PREDICTED BY IDOCK:   -1.23 KCAL/MOL
REMARK 922        TOTAL FREE ENERGY PREDICTED BY IDOCK:   -3.95 KCAL/MOL
REMARK 923 INTER-LIGAND FREE ENERGY PREDICTED BY IDOCK:   -4.01 KCAL/MOL
REMARK 924 INTRA-LIGAND FREE ENERGY PREDICTED BY IDOCK:    0.06 KCAL/MOL
REMARK 927      BINDING AFFINITY PREDICTED BY RF-SCORE:    0.00 PKD
ROOT
HETATM    1  C   UNL     1      -9.947  20.280  68.009  1.00  0.00    -0.459 C  
HETATM    2  C   UNL     1     -10.098  19.658  66.607  1.00  0.00    -0.445 C  
HETATM    3  C   UNL     1     -10.154  17.985  66.630  1.00  0.00    -0.372 C  
HETATM    4  N   UNL     1      -8.919  20.089  65.802  1.00  0.00    -0.507 NA 
HETATM    5  C   UNL     1     -11.336  20.365  65.987  1.00  0.00     1.289 C  
HETATM    6  H2  UNL     1      -8.028  19.861  66.246  1.00  0.00     0.000 HD 
HETATM    7  N   UNL     1      -8.937  17.297  66.565  1.00  0.00    -0.259 N  
HETATM    8  H1  UNL     1      -9.019  19.677  64.874  1.00  0.00     0.000 HD 
HETATM    9  O   UNL     1     -11.220  17.381  66.742  1.00  0.00     0.228 OA 
HETATM   10  H   UNL     1      -8.154  17.907  66.333  1.00  0.00     0.000 HD 
ENDROOT
BRANCH   7  11
HETATM   11  C   UNL     1      -8.501  15.803  66.768  1.00  0.00    -0.269 C  
BRANCH  11  12
HETATM   12  C   UNL     1      -6.993  15.276  66.686  1.00  0.00     1.031 C  
BRANCH  12  13
HETATM   13  C   UNL     1      -6.409  14.314  67.828  1.00  0.00    -0.168 A  
HETATM   14  C   UNL     1      -6.006  12.996  67.726  1.00  0.00    -0.145 A  
HETATM   15  C   UNL     1      -6.061  15.780  71.439  1.00  0.00     0.982 A  
HETATM   16  C   UNL     1      -5.886  14.567  72.098  1.00  0.00     0.148 A  
HETATM   17  C   UNL     1      -5.781  13.387  71.362  1.00  0.00    -0.060 A  
HETATM   18  N   UNL     1      -5.727  12.487  68.994  1.00  0.00    -0.065 NA 
HETATM   19  C   UNL     1      -6.214  15.828  70.037  1.00  0.00    -0.125 A  
HETATM   20  C   UNL     1      -6.181  14.642  69.257  1.00  0.00    -0.111 A  
HETATM   21  C   UNL     1      -5.896  13.463  69.947  1.00  0.00    -0.127 A  
HETATM   22  H   UNL     1      -5.440  11.528  69.187  1.00  0.00     0.000 HD 
ENDBRANCH  12  13
ENDBRANCH  11  12
BRANCH  11  23
HETATM   23  C   UNL     1      -9.527  14.926  66.002  1.00  0.00    -0.281 C  
HETATM   24  N   UNL     1      -9.600  13.590  66.347  1.00  0.00    -0.321 N  
HETATM   25  H   UNL     1      -9.097  13.251  67.167  1.00  0.00     0.000 HD 
HETATM   26  O   UNL     1     -10.178  15.402  65.068  1.00  0.00    -0.357 OA 
BRANCH  24  27
HETATM   27  C   UNL     1     -10.386  12.672  65.555  1.00  0.00    -0.286 C  
BRANCH  27  28
HETATM   28  N   UNL     1     -10.703  13.302  64.299  1.00  0.00    -0.460 N  
HETATM   29  O   UNL     1     -12.952  12.771  64.342  1.00  0.00    -0.723 OA 
HETATM   30  C   UNL     1     -11.987  13.293  63.804  1.00  0.00    -0.491 C  
HETATM   31  H   UNL     1      -9.964  13.763  63.769  1.00  0.00     0.000 HD 
ENDBRANCH  27  28
BRANCH  27  32
HETATM   32  C   UNL     1      -9.907  11.209  65.446  1.00  0.00    -0.289 C  
BRANCH  32  33
HETATM   33  C   UNL     1      -9.180  10.364  66.479  1.00  0.00    -0.184 A  
HETATM   34  C   UNL     1      -8.235   9.167  68.207  1.00  0.00    -0.116 A  
HETATM   35  H   UNL     1      -6.752   8.290  66.978  1.00  0.00     0.000 HD 
HETATM   36  C   UNL     1      -7.993   8.639  69.485  1.00  0.00    -0.097 A  
HETATM   37  C   UNL     1      -8.102   9.609  66.026  1.00  0.00    -0.112 A  
HETATM   38  C   UNL     1      -8.804   9.074  70.526  1.00  0.00    -0.242 A  
HETATM   39  N   UNL     1      -7.555   8.913  67.055  1.00  0.00    -0.094 NA 
HETATM   40  C   UNL     1      -9.812  10.007  70.286  1.00  0.00    -0.144 A  
HETATM   41  C   UNL     1     -10.049  10.518  68.992  1.00  0.00    -0.230 A  
HETATM   42  C   UNL     1      -9.253  10.093  67.906  1.00  0.00    -0.144 A  
ENDBRANCH  32  33
ENDBRANCH  27  32
ENDBRANCH  24  27
ENDBRANCH  11  23
ENDBRANCH   7  11
TORSDOF 8
ENDMDL
MODEL      419
REMARK 921   NORMALIZED FREE ENERGY PREDICTED BY IDOCK:   -0.57 KCAL/MOL
REMARK 922        TOTAL FREE ENERGY PREDICTED BY IDOCK:   -2.99 KCAL/MOL
REMARK 923 INTER-LIGAND FREE ENERGY PREDICTED BY IDOCK:   -4.00 KCAL/MOL
REMARK 924 INTRA-LIGAND FREE ENERGY PREDICTED BY IDOCK:    1.02 KCAL/MOL
REMARK 927      BINDING AFFINITY PREDICTED BY RF-SCORE:    0.00 PKD
ROOT
HETATM    1  C   UNL     1      -7.488   3.816  73.665  1.00  0.00    -0.069 C  
HETATM    2  C   UNL     1      -8.703   4.243  72.819  1.00  0.00    -0.104 C  
HETATM    3  C   UNL     1      -8.298   5.244  71.540  1.00  0.00    -0.121 C  
HETATM    4  N   UNL     1      -9.637   4.974  73.724  1.00  0.00    -0.128 NA 
HETATM    5  C   UNL     1      -9.411   2.914  72.436  1.00  0.00    -0.173 C  
HETATM    6  H2  UNL     1      -9.194   5.755  74.208  1.00  0.00     0.000 HD 
HETATM    7  N   UNL     1      -8.259   6.621  71.785  1.00  0.00    -0.110 N  
HETATM    8  H1  UNL     1     -10.442   5.257  73.164  1.00  0.00     0.000 HD 
HETATM    9  O   UNL     1      -8.003   4.786  70.436  1.00  0.00    -0.063 OA 
HETATM   10  H   UNL     1      -8.659   6.871  72.689  1.00  0.00     0.000 HD 
ENDROOT
BRANCH   7  11
HETATM   11  C   UNL     1      -7.742   7.871  70.987  1.00  0.00    -0.084 C  
BRANCH  11  12
HETATM   12  C   UNL     1      -8.369   9.338  71.088  1.00  0.00    -0.057 C  
BRANCH  12  13
HETATM   13  C   UNL     1      -8.103  10.414  69.928  1.00  0.00     0.024 A  
HETATM   14  C   UNL     1      -6.897  10.880  69.441  1.00  0.00    -0.114 A  
HETATM   15  C   UNL     1     -11.218  12.023  68.191  1.00  0.00    -0.316 A  
HETATM   16  C   UNL     1     -10.545  13.074  67.577  1.00  0.00    -0.237 A  
HETATM   17  C   UNL     1      -9.155  13.148  67.657  1.00  0.00    -0.201 A  
HETATM   18  N   UNL     1      -7.120  11.934  68.556  1.00  0.00    -0.083 NA 
HETATM   19  C   UNL     1     -10.522  11.069  68.964  1.00  0.00    -0.242 A  
HETATM   20  C   UNL     1      -9.114  11.148  69.128  1.00  0.00     0.048 A  
HETATM   21  C   UNL     1      -8.469  12.154  68.406  1.00  0.00    -0.145 A  
HETATM   22  H   UNL     1      -6.388  12.466  68.087  1.00  0.00     0.000 HD 
ENDBRANCH  12  13
ENDBRANCH  11  12
BRANCH  11  23
HETATM   23  C   UNL     1      -7.458   7.395  69.537  1.00  0.00    -0.090 C  
HETATM   24  N   UNL     1      -6.441   6.478  69.358  1.00  0.00    -0.041 N  
HETATM   25  H   UNL     1      -6.006   6.040  70.170  1.00  0.00     0.000 HD 
HETATM   26  O   UNL     1      -8.070   7.894  68.588  1.00  0.00    -0.122 OA 
BRANCH  24  27
HETATM   27  C   UNL     1      -5.990   6.136  68.029  1.00  0.00    -0.016 C  
BRANCH  27  28
HETATM   28  N   UNL     1      -5.199   4.935  68.106  1.00  0.00    -0.010 N  
HETATM   29  O   UNL     1      -6.871   3.517  67.375  1.00  0.00    -0.045 OA 
HETATM   30  C   UNL     1      -5.728   3.712  67.760  1.00  0.00    -0.022 C  
HETATM   31  H   UNL     1      -4.231   4.991  68.421  1.00  0.00     0.000 HD 
ENDBRANCH  27  28
BRANCH  27  32
HETATM   32  C   UNL     1      -7.020   6.165  66.879  1.00  0.00    -0.071 C  
BRANCH  32  33
HETATM   33  C   UNL     1      -7.107   7.121  65.701  1.00  0.00    -0.068 A  
HETATM   34  C   UNL     1      -7.420   8.677  64.031  1.00  0.00    -0.118 A  
HETATM   35  H   UNL     1      -5.861   7.907  62.824  1.00  0.00     0.000 HD 
HETATM   36  C   UNL     1      -7.928   9.764  63.302  1.00  0.00    -0.145 A  
HETATM   37  C   UNL     1      -6.199   6.923  64.664  1.00  0.00    -0.036 A  
HETATM   38  C   UNL     1      -9.008  10.454  63.841  1.00  0.00    -0.247 A  
HETATM   39  N   UNL     1      -6.399   7.846  63.689  1.00  0.00    -0.062 NA 
HETATM   40  C   UNL     1      -9.553  10.058  65.061  1.00  0.00    -0.362 A  
HETATM   41  C   UNL     1      -9.021   8.971  65.787  1.00  0.00    -0.242 A  
HETATM   42  C   UNL     1      -7.918   8.251  65.278  1.00  0.00    -0.128 A  
ENDBRANCH  32  33
ENDBRANCH  27  32
ENDBRANCH  24  27
ENDBRANCH  11  23
ENDBRANCH   7  11
TORSDOF 8
ENDMDL
MODEL      420
REMARK 921   NORMALIZED FREE ENERGY PREDICTED BY IDOCK:   -0.57 KCAL/MOL
REMARK 922        TOTAL FREE ENERGY PREDICTED BY IDOCK:   -2.97 KCAL/MOL
REMARK 923 INTER-LIGAND FREE ENERGY PREDICTED BY IDOCK:   -2.59 KCAL/MOL
REMARK 924 INTRA-LIGAND FREE ENERGY PREDICTED BY IDOCK:   -0.38 KCAL/MOL
REMARK 927      BINDING AFFINITY PREDICTED BY RF-SCORE:    0.00 PKD
ROOT
HETATM    1  C   UNL     1     -10.260  20.453  68.108  1.00  0.00    -0.297 C  
HETATM    2  C   UNL     1     -10.276  19.439  66.947  1.00  0.00    -0.410 C  
HETATM    3  C   UNL     1     -10.124  17.852  67.457  1.00  0.00    -0.342 C  
HETATM    4  N   UNL     1      -9.128  19.769  66.054  1.00  0.00    -0.395 NA 
HETATM    5  C   UNL     1     -11.567  19.768  66.147  1.00  0.00     1.170 C  
HETATM    6  H2  UNL     1      -8.235  19.798  66.547  1.00  0.00     0.000 HD 
HETATM    7  N   UNL     1      -8.828  17.340  67.598  1.00  0.00    -0.218 N  
HETATM    8  H1  UNL     1      -9.139  19.098  65.286  1.00  0.00     0.000 HD 
HETATM    9  O   UNL     1     -11.109  17.171  67.739  1.00  0.00    -0.263 OA 
HETATM   10  H   UNL     1      -8.118  17.954  67.199  1.00  0.00     0.000 HD 
ENDROOT
BRANCH   7  11
HETATM   11  C   UNL     1      -8.218  16.039  68.227  1.00  0.00    -0.159 C  
BRANCH  11  12
HETATM   12  C   UNL     1      -6.744  15.928  68.838  1.00  0.00    -0.134 C  
BRANCH  12  13
HETATM   13  C   UNL     1      -6.176  17.083  69.796  1.00  0.00    -0.198 A  
HETATM   14  C   UNL     1      -5.974  17.052  71.163  1.00  0.00     1.065 A  
HETATM   15  C   UNL     1      -5.229  20.506  68.153  1.00  0.00    -0.254 A  
HETATM   16  C   UNL     1      -5.152  21.243  69.331  1.00  0.00    -0.195 A  
HETATM   17  C   UNL     1      -5.295  20.601  70.561  1.00  0.00    -0.300 A  
HETATM   18  N   UNL     1      -5.630  18.324  71.619  1.00  0.00     0.062 NA 
HETATM   19  C   UNL     1      -5.528  19.127  68.179  1.00  0.00    -0.192 A  
HETATM   20  C   UNL     1      -5.748  18.450  69.408  1.00  0.00    -0.232 A  
HETATM   21  C   UNL     1      -5.554  19.204  70.566  1.00  0.00    -0.225 A  
HETATM   22  H   UNL     1      -5.459  18.567  72.594  1.00  0.00     0.000 HD 
ENDBRANCH  12  13
ENDBRANCH  11  12
BRANCH  11  23
HETATM   23  C   UNL     1      -8.615  14.859  67.300  1.00  0.00    -0.213 C  
HETATM   24  N   UNL     1      -8.563  13.587  67.836  1.00  0.00    -0.170 N  
HETATM   25  H   UNL     1      -8.406  13.464  68.836  1.00  0.00     0.000 HD 
HETATM   26  O   UNL     1      -8.879  15.063  66.112  1.00  0.00    -0.217 OA 
BRANCH  24  27
HETATM   27  C   UNL     1      -8.728  12.429  66.988  1.00  0.00    -0.207 C  
BRANCH  27  28
HETATM   28  N   UNL     1      -8.359  12.786  65.642  1.00  0.00     0.861 N  
HETATM   29  O   UNL     1     -10.354  12.129  64.679  1.00  0.00    -0.276 OA 
HETATM   30  C   UNL     1      -9.230  12.600  64.593  1.00  0.00     0.841 C  
HETATM   31  H   UNL     1      -7.437  13.184  65.464  1.00  0.00     0.000 HD 
ENDBRANCH  27  28
BRANCH  27  32
HETATM   32  C   UNL     1      -8.166  11.078  67.480  1.00  0.00    -0.117 C  
BRANCH  32  33
HETATM   33  C   UNL     1      -8.382  10.384  68.815  1.00  0.00    -0.134 A  
HETATM   34  C   UNL     1      -8.904   9.234  70.742  1.00  0.00    -0.225 A  
HETATM   35  H   UNL     1      -7.238   9.984  71.812  1.00  0.00     0.000 HD 
HETATM   36  C   UNL     1      -9.560   8.391  71.654  1.00  0.00    -0.288 A  
HETATM   37  C   UNL     1      -7.445  10.641  69.813  1.00  0.00    -0.079 A  
HETATM   38  C   UNL     1     -10.733   7.777  71.234  1.00  0.00    -0.251 A  
HETATM   39  N   UNL     1      -7.769   9.958  70.941  1.00  0.00    -0.174 NA 
HETATM   40  C   UNL     1     -11.226   8.010  69.950  1.00  0.00    -0.040 A  
HETATM   41  C   UNL     1     -10.546   8.851  69.043  1.00  0.00    -0.203 A  
HETATM   42  C   UNL     1      -9.346   9.486  69.428  1.00  0.00    -0.185 A  
ENDBRANCH  32  33
ENDBRANCH  27  32
ENDBRANCH  24  27
ENDBRANCH  11  23
ENDBRANCH   7  11
TORSDOF 8
ENDMDL
MODEL      421
REMARK 921   NORMALIZED FREE ENERGY PREDICTED BY IDOCK:   -0.22 KCAL/MOL
REMARK 922        TOTAL FREE ENERGY PREDICTED BY IDOCK:   -2.46 KCAL/MOL
REMARK 923 INTER-LIGAND FREE ENERGY PREDICTED BY IDOCK:   -5.50 KCAL/MOL
REMARK 924 INTRA-LIGAND FREE ENERGY PREDICTED BY IDOCK:    3.04 KCAL/MOL
REMARK 927      BINDING AFFINITY PREDICTED BY RF-SCORE:    0.00 PKD
ROOT
HETATM    1  C   UNL     1     -12.603  11.777  64.140  1.00  0.00    -0.207 C  
HETATM    2  C   UNL     1     -11.821  13.099  64.018  1.00  0.00    -0.453 C  
HETATM    3  C   UNL     1     -11.139  13.596  65.464  1.00  0.00    -0.295 C  
HETATM    4  N   UNL     1     -12.782  14.141  63.556  1.00  0.00    -0.807 NA 
HETATM    5  C   UNL     1     -10.824  12.868  62.849  1.00  0.00     1.472 C  
HETATM    6  H2  UNL     1     -13.605  14.218  64.154  1.00  0.00     0.000 HD 
HETATM    7  N   UNL     1     -11.924  14.391  66.308  1.00  0.00    -0.396 N  
HETATM    8  H1  UNL     1     -12.264  15.016  63.476  1.00  0.00     0.000 HD 
HETATM    9  O   UNL     1     -10.008  13.244  65.795  1.00  0.00    -0.283 OA 
HETATM   10  H   UNL     1     -12.775  14.723  65.856  1.00  0.00     0.000 HD 
ENDROOT
BRANCH   7  11
HETATM   11  C   UNL     1     -11.795  14.888  67.791  1.00  0.00    -0.251 C  
BRANCH  11  12
HETATM   12  C   UNL     1     -10.714  15.950  68.305  1.00  0.00    -0.291 C  
BRANCH  12  13
HETATM   13  C   UNL     1      -9.230  15.475  68.685  1.00  0.00    -0.202 A  
HETATM   14  C   UNL     1      -8.828  14.616  69.690  1.00  0.00     0.337 A  
HETATM   15  C   UNL     1      -6.266  16.899  66.565  1.00  0.00    -0.127 A  
HETATM   16  C   UNL     1      -5.244  16.530  67.434  1.00  0.00    -0.163 A  
HETATM   17  C   UNL     1      -5.537  15.771  68.566  1.00  0.00    -0.102 A  
HETATM   18  N   UNL     1      -7.436  14.613  69.780  1.00  0.00    -0.389 NA 
HETATM   19  C   UNL     1      -7.611  16.583  66.852  1.00  0.00    -0.272 A  
HETATM   20  C   UNL     1      -7.959  15.870  68.029  1.00  0.00    -0.141 A  
HETATM   21  C   UNL     1      -6.893  15.427  68.815  1.00  0.00    -0.113 A  
HETATM   22  H   UNL     1      -6.897  14.083  70.464  1.00  0.00     0.000 HD 
ENDBRANCH  12  13
ENDBRANCH  11  12
BRANCH  11  23
HETATM   23  C   UNL     1     -11.946  13.640  68.701  1.00  0.00    -0.360 C  
HETATM   24  N   UNL     1     -10.935  12.700  68.661  1.00  0.00    -0.247 N  
HETATM   25  H   UNL     1     -10.072  12.906  68.159  1.00  0.00     0.000 HD 
HETATM   26  O   UNL     1     -12.977  13.472  69.360  1.00  0.00     0.524 OA 
BRANCH  24  27
HETATM   27  C   UNL     1     -11.093  11.427  69.327  1.00  0.00    -0.254 C  
BRANCH  27  28
HETATM   28  N   UNL     1      -9.925  10.625  69.070  1.00  0.00    -0.206 N  
HETATM   29  O   UNL     1      -9.713  11.240  66.852  1.00  0.00    -0.188 OA 
HETATM   30  C   UNL     1      -9.332  10.610  67.828  1.00  0.00    -0.146 C  
HETATM   31  H   UNL     1      -9.531  10.058  69.820  1.00  0.00     0.000 HD 
ENDBRANCH  27  28
BRANCH  27  32
HETATM   32  C   UNL     1     -11.573  11.426  70.794  1.00  0.00     0.130 C  
BRANCH  32  33
HETATM   33  C   UNL     1     -12.438  12.447  71.515  1.00  0.00    -0.123 A  
HETATM   34  C   UNL     1     -13.569  14.149  72.580  1.00  0.00    -0.515 A  
HETATM   35  H   UNL     1     -15.289  12.971  72.945  1.00  0.00     0.000 HD 
HETATM   36  C   UNL     1     -13.877  15.405  73.127  1.00  0.00    -0.199 A  
HETATM   37  C   UNL     1     -13.700  12.022  71.925  1.00  0.00     0.138 A  
HETATM   38  C   UNL     1     -12.900  16.391  73.068  1.00  0.00    -0.233 A  
HETATM   39  N   UNL     1     -14.351  13.035  72.552  1.00  0.00    -0.444 NA 
HETATM   40  C   UNL     1     -11.662  16.117  72.487  1.00  0.00    -0.525 A  
HETATM   41  C   UNL     1     -11.374  14.851  71.932  1.00  0.00    -0.133 A  
HETATM   42  C   UNL     1     -12.344  13.826  71.963  1.00  0.00    -0.034 A  
ENDBRANCH  32  33
ENDBRANCH  27  32
ENDBRANCH  24  27
ENDBRANCH  11  23
ENDBRANCH   7  11
TORSDOF 8
ENDMDL
MODEL      422
REMARK 921   NORMALIZED FREE ENERGY PREDICTED BY IDOCK:    1.25 KCAL/MOL
REMARK 922        TOTAL FREE ENERGY PREDICTED BY IDOCK:   -0.31 KCAL/MOL
REMARK 923 INTER-LIGAND FREE ENERGY PREDICTED BY IDOCK:   -3.05 KCAL/MOL
REMARK 924 INTRA-LIGAND FREE ENERGY PREDICTED BY IDOCK:    2.74 KCAL/MOL
REMARK 927      BINDING AFFINITY PREDICTED BY RF-SCORE:    0.00 PKD
ROOT
HETATM    1  C   UNL     1      -8.026   6.827  66.319  1.00  0.00    -0.108 C  
HETATM    2  C   UNL     1      -8.001   8.254  65.738  1.00  0.00    -0.099 C  
HETATM    3  C   UNL     1      -7.852   9.441  66.909  1.00  0.00    -0.105 C  
HETATM    4  N   UNL     1      -9.287   8.457  65.009  1.00  0.00    -0.209 NA 
HETATM    5  C   UNL     1      -6.882   8.228  64.660  1.00  0.00    -0.068 C  
HETATM    6  H2  UNL     1     -10.107   8.276  65.588  1.00  0.00     0.000 HD 
HETATM    7  N   UNL     1      -9.030   9.930  67.486  1.00  0.00    -0.134 N  
HETATM    8  H1  UNL     1      -9.270   9.402  64.624  1.00  0.00     0.000 HD 
HETATM    9  O   UNL     1      -6.750   9.840  67.281  1.00  0.00    -0.073 OA 
HETATM   10  H   UNL     1      -9.867   9.623  66.991  1.00  0.00     0.000 HD 
ENDROOT
BRANCH   7  11
HETATM   11  C   UNL     1      -9.359  10.844  68.719  1.00  0.00    -0.185 C  
BRANCH  11  12
HETATM   12  C   UNL     1     -10.834  11.257  69.179  1.00  0.00    -0.269 C  
BRANCH  12  13
HETATM   13  C   UNL     1     -11.625  10.368  70.254  1.00  0.00    -0.410 A  
HETATM   14  C   UNL     1     -12.890  10.565  70.776  1.00  0.00    -0.367 A  
HETATM   15  C   UNL     1      -9.817   7.207  71.685  1.00  0.00    -0.170 A  
HETATM   16  C   UNL     1     -10.672   6.996  72.763  1.00  0.00    -0.306 A  
HETATM   17  C   UNL     1     -11.811   7.786  72.908  1.00  0.00    -0.152 A  
HETATM   18  N   UNL     1     -13.121   9.655  71.808  1.00  0.00    -0.390 NA 
HETATM   19  C   UNL     1     -10.042   8.262  70.776  1.00  0.00    -0.218 A  
HETATM   20  C   UNL     1     -11.154   9.133  70.928  1.00  0.00    -0.356 A  
HETATM   21  C   UNL     1     -12.042   8.818  71.958  1.00  0.00    -0.377 A  
HETATM   22  H   UNL     1     -13.970   9.618  72.372  1.00  0.00     0.000 HD 
ENDBRANCH  12  13
ENDBRANCH  11  12
BRANCH  11  23
HETATM   23  C   UNL     1      -8.346  12.020  68.693  1.00  0.00    -0.036 C  
HETATM   24  N   UNL     1      -7.251  11.932  69.531  1.00  0.00    -0.339 N  
HETATM   25  H   UNL     1      -7.063  11.062  70.029  1.00  0.00     0.000 HD 
HETATM   26  O   UNL     1      -8.573  13.022  68.008  1.00  0.00    -0.168 OA 
BRANCH  24  27
HETATM   27  C   UNL     1      -6.372  13.065  69.706  1.00  0.00    -0.063 C  
BRANCH  27  28
HETATM   28  N   UNL     1      -5.174  12.842  68.938  1.00  0.00    -0.066 N  
HETATM   29  O   UNL     1      -6.170  13.148  66.875  1.00  0.00    -0.038 OA 
HETATM   30  C   UNL     1      -5.189  12.909  67.563  1.00  0.00    -0.046 C  
HETATM   31  H   UNL     1      -4.301  12.631  69.420  1.00  0.00     0.000 HD 
ENDBRANCH  27  28
BRANCH  27  32
HETATM   32  C   UNL     1      -6.972  14.481  69.579  1.00  0.00    -0.147 C  
BRANCH  32  33
HETATM   33  C   UNL     1      -8.430  14.908  69.639  1.00  0.00     0.072 A  
HETATM   34  C   UNL     1     -10.633  15.565  69.491  1.00  0.00    -0.258 A  
HETATM   35  H   UNL     1     -10.930  15.545  71.586  1.00  0.00     0.000 HD 
HETATM   36  C   UNL     1     -11.875  15.951  68.961  1.00  0.00    -0.328 A  
HETATM   37  C   UNL     1      -9.002  15.008  70.905  1.00  0.00     2.394 A  
HETATM   38  C   UNL     1     -11.973  16.089  67.582  1.00  0.00     0.592 A  
HETATM   39  N   UNL     1     -10.299  15.398  70.799  1.00  0.00     0.030 NA 
HETATM   40  C   UNL     1     -10.861  15.854  66.774  1.00  0.00    -0.228 A  
HETATM   41  C   UNL     1      -9.624  15.454  67.323  1.00  0.00    -0.213 A  
HETATM   42  C   UNL     1      -9.487  15.294  68.719  1.00  0.00    -0.212 A  
ENDBRANCH  32  33
ENDBRANCH  27  32
ENDBRANCH  24  27
ENDBRANCH  11  23
ENDBRANCH   7  11
TORSDOF 8
ENDMDL
MODEL      423
REMARK 921   NORMALIZED FREE ENERGY PREDICTED BY IDOCK:    2.42 KCAL/MOL
REMARK 922        TOTAL FREE ENERGY PREDICTED BY IDOCK:    1.41 KCAL/MOL
REMARK 923 INTER-LIGAND FREE ENERGY PREDICTED BY IDOCK:    1.26 KCAL/MOL
REMARK 924 INTRA-LIGAND FREE ENERGY PREDICTED BY IDOCK:    0.15 KCAL/MOL
REMARK 927      BINDING AFFINITY PREDICTED BY RF-SCORE:    0.00 PKD
ROOT
HETATM    1  C   UNL     1     -11.074  20.548  68.174  1.00  0.00     0.978 C  
HETATM    2  C   UNL     1     -11.340  19.466  67.109  1.00  0.00     0.314 C  
HETATM    3  C   UNL     1     -10.866  17.935  67.592  1.00  0.00    -0.229 C  
HETATM    4  N   UNL     1     -10.569  19.846  65.890  1.00  0.00    -0.482 NA 
HETATM    5  C   UNL     1     -12.843  19.623  66.746  1.00  0.00     5.762 C  
HETATM    6  H2  UNL     1      -9.575  19.989  66.074  1.00  0.00     0.000 HD 
HETATM    7  N   UNL     1      -9.544  17.556  67.332  1.00  0.00    -0.261 N  
HETATM    8  H1  UNL     1     -10.745  19.130  65.185  1.00  0.00     0.000 HD 
HETATM    9  O   UNL     1     -11.636  17.185  68.190  1.00  0.00     0.185 OA 
HETATM   10  H   UNL     1      -9.063  18.208  66.712  1.00  0.00     0.000 HD 
ENDROOT
BRANCH   7  11
HETATM   11  C   UNL     1      -8.631  16.360  67.776  1.00  0.00    -0.168 C  
BRANCH  11  12
HETATM   12  C   UNL     1      -7.037  16.426  67.896  1.00  0.00    -0.149 C  
BRANCH  12  13
HETATM   13  C   UNL     1      -6.291  17.842  68.001  1.00  0.00    -0.178 A  
HETATM   14  C   UNL     1      -5.794  18.476  69.125  1.00  0.00    -0.227 A  
HETATM   15  C   UNL     1      -5.783  19.881  64.701  1.00  0.00    -0.261 A  
HETATM   16  C   UNL     1      -5.462  21.095  65.300  1.00  0.00    -0.230 A  
HETATM   17  C   UNL     1      -5.321  21.169  66.685  1.00  0.00    -0.273 A  
HETATM   18  N   UNL     1      -5.379  19.766  68.794  1.00  0.00    -0.193 NA 
HETATM   19  C   UNL     1      -6.047  18.735  65.481  1.00  0.00    -0.275 A  
HETATM   20  C   UNL     1      -5.981  18.785  66.899  1.00  0.00    -0.170 A  
HETATM   21  C   UNL     1      -5.550  19.993  67.450  1.00  0.00    -0.171 A  
HETATM   22  H   UNL     1      -5.003  20.444  69.456  1.00  0.00     0.000 HD 
ENDBRANCH  12  13
ENDBRANCH  11  12
BRANCH  11  23
HETATM   23  C   UNL     1      -9.165  15.092  67.056  1.00  0.00    -0.223 C  
HETATM   24  N   UNL     1      -8.695  13.869  67.494  1.00  0.00    -0.181 N  
HETATM   25  H   UNL     1      -8.134  13.817  68.344  1.00  0.00     0.000 HD 
HETATM   26  O   UNL     1      -9.911  15.200  66.079  1.00  0.00    -0.270 OA 
BRANCH  24  27
HETATM   27  C   UNL     1      -8.992  12.665  66.754  1.00  0.00    -0.197 C  
BRANCH  27  28
HETATM   28  N   UNL     1      -9.382  13.030  65.416  1.00  0.00    -0.338 N  
HETATM   29  O   UNL     1     -11.523  12.171  65.563  1.00  0.00    -0.340 OA 
HETATM   30  C   UNL     1     -10.641  12.743  64.939  1.00  0.00    -0.314 C  
HETATM   31  H   UNL     1      -8.714  13.508  64.812  1.00  0.00     0.000 HD 
ENDBRANCH  27  28
BRANCH  27  32
HETATM   32  C   UNL     1      -7.996  11.489  66.843  1.00  0.00    -0.164 C  
BRANCH  32  33
HETATM   33  C   UNL     1      -7.337  10.889  68.075  1.00  0.00    -0.088 A  
HETATM   34  C   UNL     1      -6.420   9.768  69.867  1.00  0.00    -0.062 A  
HETATM   35  H   UNL     1      -5.590  11.518  70.721  1.00  0.00     0.000 HD 
HETATM   36  C   UNL     1      -6.047   8.736  70.742  1.00  0.00    -0.037 A  
HETATM   37  C   UNL     1      -6.661  11.770  68.915  1.00  0.00    -0.082 A  
HETATM   38  C   UNL     1      -6.493   7.452  70.452  1.00  0.00    -0.039 A  
HETATM   39  N   UNL     1      -6.129  11.094  69.966  1.00  0.00    -0.119 NA 
HETATM   40  C   UNL     1      -7.286   7.223  69.329  1.00  0.00    -0.081 A  
HETATM   41  C   UNL     1      -7.641   8.271  68.452  1.00  0.00    -0.101 A  
HETATM   42  C   UNL     1      -7.200   9.588  68.707  1.00  0.00    -0.073 A  
ENDBRANCH  32  33
ENDBRANCH  27  32
ENDBRANCH  24  27
ENDBRANCH  11  23
ENDBRANCH   7  11
TORSDOF 8
ENDMDL
MODEL      424
REMARK 921   NORMALIZED FREE ENERGY PREDICTED BY IDOCK:    2.50 KCAL/MOL
REMARK 922        TOTAL FREE ENERGY PREDICTED BY IDOCK:    1.53 KCAL/MOL
REMARK 923 INTER-LIGAND FREE ENERGY PREDICTED BY IDOCK:    2.08 KCAL/MOL
REMARK 924 INTRA-LIGAND FREE ENERGY PREDICTED BY IDOCK:   -0.55 KCAL/MOL
REMARK 927      BINDING AFFINITY PREDICTED BY RF-SCORE:    0.00 PKD
ROOT
HETATM    1  C   UNL     1     -12.486  15.235  71.434  1.00  0.00    -0.428 C  
HETATM    2  C   UNL     1     -12.968  14.157  70.445  1.00  0.00    -0.093 C  
HETATM    3  C   UNL     1     -11.874  12.905  70.249  1.00  0.00    -0.213 C  
HETATM    4  N   UNL     1     -13.175  14.826  69.127  1.00  0.00     0.758 NA 
HETATM    5  C   UNL     1     -14.377  13.746  70.956  1.00  0.00     0.992 C  
HETATM    6  H2  UNL     1     -12.348  15.326  68.800  1.00  0.00     0.000 HD 
HETATM    7  N   UNL     1     -10.889  13.056  69.266  1.00  0.00    -0.442 N  
HETATM    8  H1  UNL     1     -13.494  14.111  68.472  1.00  0.00     0.000 HD 
HETATM    9  O   UNL     1     -11.906  11.907  70.968  1.00  0.00    -0.008 OA 
HETATM   10  H   UNL     1     -11.063  13.854  68.655  1.00  0.00     0.000 HD 
ENDROOT
BRANCH   7  11
HETATM   11  C   UNL     1      -9.578  12.280  68.888  1.00  0.00     0.181 C  
BRANCH  11  12
HETATM   12  C   UNL     1      -9.379  10.701  69.041  1.00  0.00    -0.191 C  
BRANCH  12  13
HETATM   13  C   UNL     1      -9.383   9.754  67.746  1.00  0.00    -0.148 A  
HETATM   14  C   UNL     1      -9.412   8.374  67.684  1.00  0.00    -0.149 A  
HETATM   15  C   UNL     1      -9.265  11.477  64.235  1.00  0.00     0.079 A  
HETATM   16  C   UNL     1      -8.932  10.342  63.501  1.00  0.00    -0.259 A  
HETATM   17  C   UNL     1      -8.872   9.101  64.134  1.00  0.00    -0.127 A  
HETATM   18  N   UNL     1      -9.229   7.956  66.366  1.00  0.00    -0.184 NA 
HETATM   19  C   UNL     1      -9.468  11.405  65.629  1.00  0.00    -0.253 A  
HETATM   20  C   UNL     1      -9.349  10.171  66.322  1.00  0.00    -0.214 A  
HETATM   21  C   UNL     1      -9.121   9.043  65.531  1.00  0.00    -0.214 A  
HETATM   22  H   UNL     1      -9.181   6.984  66.064  1.00  0.00     0.000 HD 
ENDBRANCH  12  13
ENDBRANCH  11  12
BRANCH  11  23
HETATM   23  C   UNL     1      -8.386  13.127  69.406  1.00  0.00     1.031 C  
HETATM   24  N   UNL     1      -7.831  14.042  68.533  1.00  0.00    -0.137 N  
HETATM   25  H   UNL     1      -8.291  14.236  67.643  1.00  0.00     0.000 HD 
HETATM   26  O   UNL     1      -7.912  12.915  70.527  1.00  0.00     3.287 OA 
BRANCH  24  27
HETATM   27  C   UNL     1      -6.604  14.726  68.872  1.00  0.00    -0.091 C  
BRANCH  27  28
HETATM   28  N   UNL     1      -5.585  14.338  67.930  1.00  0.00    -0.120 N  
HETATM   29  O   UNL     1      -6.945  12.940  66.690  1.00  0.00     0.336 OA 
HETATM   30  C   UNL     1      -5.862  13.464  66.904  1.00  0.00     1.297 C  
HETATM   31  H   UNL     1      -4.644  14.718  68.026  1.00  0.00     0.000 HD 
ENDBRANCH  27  28
BRANCH  27  32
HETATM   32  C   UNL     1      -6.671  16.239  69.172  1.00  0.00    -0.196 C  
BRANCH  32  33
HETATM   33  C   UNL     1      -7.361  17.338  68.382  1.00  0.00    -0.224 A  
HETATM   34  C   UNL     1      -8.573  18.842  67.125  1.00  0.00    -0.280 A  
HETATM   35  H   UNL     1      -7.244  20.446  67.501  1.00  0.00     0.000 HD 
HETATM   36  C   UNL     1      -9.573  19.395  66.309  1.00  0.00    -0.437 A  
HETATM   37  C   UNL     1      -6.758  18.593  68.395  1.00  0.00    -0.241 A  
HETATM   38  C   UNL     1     -10.582  18.549  65.863  1.00  0.00    -0.336 A  
HETATM   39  N   UNL     1      -7.482  19.466  67.648  1.00  0.00    -0.247 NA 
HETATM   40  C   UNL     1     -10.575  17.202  66.222  1.00  0.00    -0.185 A  
HETATM   41  C   UNL     1      -9.569  16.666  67.053  1.00  0.00    -0.250 A  
HETATM   42  C   UNL     1      -8.532  17.495  67.535  1.00  0.00    -0.216 A  
ENDBRANCH  32  33
ENDBRANCH  27  32
ENDBRANCH  24  27
ENDBRANCH  11  23
ENDBRANCH   7  11
TORSDOF 8
ENDMDL
MODEL      425
REMARK 921   NORMALIZED FREE ENERGY PREDICTED BY IDOCK:    2.92 KCAL/MOL
REMARK 922        TOTAL FREE ENERGY PREDICTED BY IDOCK:    2.14 KCAL/MOL
REMARK 923 INTER-LIGAND FREE ENERGY PREDICTED BY IDOCK:   -2.31 KCAL/MOL
REMARK 924 INTRA-LIGAND FREE ENERGY PREDICTED BY IDOCK:    4.45 KCAL/MOL
REMARK 927      BINDING AFFINITY PREDICTED BY RF-SCORE:    0.00 PKD
ROOT
HETATM    1  C   UNL     1     -12.284  15.464  70.557  1.00  0.00    -0.436 C  
HETATM    2  C   UNL     1     -10.954  15.889  71.211  1.00  0.00     0.024 C  
HETATM    3  C   UNL     1      -9.721  16.126  70.103  1.00  0.00     0.532 C  
HETATM    4  N   UNL     1     -10.555  14.800  72.149  1.00  0.00     0.879 NA 
HETATM    5  C   UNL     1     -11.315  17.119  72.089  1.00  0.00     1.052 C  
HETATM    6  H2  UNL     1     -10.505  13.885  71.701  1.00  0.00     0.000 HD 
HETATM    7  N   UNL     1      -8.944  15.015  69.755  1.00  0.00    -0.453 N  
HETATM    8  H1  UNL     1      -9.675  15.082  72.582  1.00  0.00     0.000 HD 
HETATM    9  O   UNL     1      -9.530  17.224  69.582  1.00  0.00     0.241 OA 
HETATM   10  H   UNL     1      -9.114  14.212  70.360  1.00  0.00     0.000 HD 
ENDROOT
BRANCH   7  11
HETATM   11  C   UNL     1      -7.870  14.722  68.649  1.00  0.00    -0.140 C  
BRANCH  11  12
HETATM   12  C   UNL     1      -7.824  15.429  67.215  1.00  0.00    -0.237 C  
BRANCH  12  13
HETATM   13  C   UNL     1      -7.998  17.019  67.091  1.00  0.00    -0.214 A  
HETATM   14  C   UNL     1      -8.484  17.755  66.027  1.00  0.00    -0.026 A  
HETATM   15  C   UNL     1      -6.899  19.213  70.139  1.00  0.00     0.238 A  
HETATM   16  C   UNL     1      -6.887  20.434  69.472  1.00  0.00     0.027 A  
HETATM   17  C   UNL     1      -7.324  20.507  68.150  1.00  0.00    -0.138 A  
HETATM   18  N   UNL     1      -8.301  19.116  66.271  1.00  0.00    -0.348 NA 
HETATM   19  C   UNL     1      -7.274  18.027  69.472  1.00  0.00     0.147 A  
HETATM   20  C   UNL     1      -7.660  18.047  68.106  1.00  0.00    -0.260 A  
HETATM   21  C   UNL     1      -7.737  19.307  67.510  1.00  0.00    -0.249 A  
HETATM   22  H   UNL     1      -8.551  19.863  65.624  1.00  0.00     0.000 HD 
ENDBRANCH  12  13
ENDBRANCH  11  12
BRANCH  11  23
HETATM   23  C   UNL     1      -7.672  13.183  68.608  1.00  0.00    -0.073 C  
HETATM   24  N   UNL     1      -6.390  12.704  68.797  1.00  0.00    -0.074 N  
HETATM   25  H   UNL     1      -5.650  13.341  69.090  1.00  0.00     0.000 HD 
HETATM   26  O   UNL     1      -8.618  12.441  68.330  1.00  0.00    -0.173 OA 
BRANCH  24  27
HETATM   27  C   UNL     1      -6.093  11.307  68.582  1.00  0.00    -0.043 C  
BRANCH  27  28
HETATM   28  N   UNL     1      -5.269  10.838  69.667  1.00  0.00    -0.038 N  
HETATM   29  O   UNL     1      -5.769  12.583  71.098  1.00  0.00    -0.357 OA 
HETATM   30  C   UNL     1      -5.187  11.538  70.850  1.00  0.00    -0.131 C  
HETATM   31  H   UNL     1      -4.738   9.975  69.557  1.00  0.00     0.000 HD 
ENDBRANCH  27  28
BRANCH  27  32
HETATM   32  C   UNL     1      -7.252  10.365  68.192  1.00  0.00    -0.087 C  
BRANCH  32  33
HETATM   33  C   UNL     1      -7.823  10.076  66.813  1.00  0.00    -0.110 A  
HETATM   34  C   UNL     1      -8.796   9.850  64.737  1.00  0.00    -0.202 A  
HETATM   35  H   UNL     1      -7.947   7.942  64.388  1.00  0.00     0.000 HD 
HETATM   36  C   UNL     1      -9.544  10.121  63.580  1.00  0.00    -0.268 A  
HETATM   37  C   UNL     1      -7.468   8.862  66.231  1.00  0.00    -0.091 A  
HETATM   38  C   UNL     1     -10.257  11.313  63.539  1.00  0.00    -0.456 A  
HETATM   39  N   UNL     1      -8.051   8.744  65.010  1.00  0.00    -0.135 NA 
HETATM   40  C   UNL     1     -10.221  12.189  64.623  1.00  0.00    -0.312 A  
HETATM   41  C   UNL     1      -9.453  11.906  65.773  1.00  0.00    -0.210 A  
HETATM   42  C   UNL     1      -8.707  10.710  65.849  1.00  0.00    -0.186 A  
ENDBRANCH  32  33
ENDBRANCH  27  32
ENDBRANCH  24  27
ENDBRANCH  11  23
ENDBRANCH   7  11
TORSDOF 8
ENDMDL
MODEL      426
REMARK 921   NORMALIZED FREE ENERGY PREDICTED BY IDOCK:    4.59 KCAL/MOL
REMARK 922        TOTAL FREE ENERGY PREDICTED BY IDOCK:    4.59 KCAL/MOL
REMARK 923 INTER-LIGAND FREE ENERGY PREDICTED BY IDOCK:    5.40 KCAL/MOL
REMARK 924 INTRA-LIGAND FREE ENERGY PREDICTED BY IDOCK:   -0.80 KCAL/MOL
REMARK 927      BINDING AFFINITY PREDICTED BY RF-SCORE:    0.00 PKD
ROOT
HETATM    1  C   UNL     1     -12.496  15.228  71.433  1.00  0.00    -0.428 C  
HETATM    2  C   UNL     1     -12.939  14.066  70.522  1.00  0.00    -0.133 C  
HETATM    3  C   UNL     1     -11.830  12.813  70.469  1.00  0.00    -0.055 C  
HETATM    4  N   UNL     1     -13.106  14.620  69.147  1.00  0.00     0.424 NA 
HETATM    5  C   UNL     1     -14.361  13.686  71.021  1.00  0.00     1.237 C  
HETATM    6  H2  UNL     1     -12.272  15.099  68.806  1.00  0.00     0.000 HD 
HETATM    7  N   UNL     1     -10.814  12.890  69.509  1.00  0.00    -0.432 N  
HETATM    8  H1  UNL     1     -13.399  13.850  68.545  1.00  0.00     0.000 HD 
HETATM    9  O   UNL     1     -11.879  11.879  71.268  1.00  0.00     0.286 OA 
HETATM   10  H   UNL     1     -10.973  13.632  68.828  1.00  0.00     0.000 HD 
ENDROOT
BRANCH   7  11
HETATM   11  C   UNL     1      -9.487  12.097  69.240  1.00  0.00     0.734 C  
BRANCH  11  12
HETATM   12  C   UNL     1      -9.265  10.550  69.580  1.00  0.00     0.008 C  
BRANCH  12  13
HETATM   13  C   UNL     1      -9.223   9.460  68.404  1.00  0.00    -0.127 A  
HETATM   14  C   UNL     1      -9.850   9.493  67.173  1.00  0.00    -0.185 A  
HETATM   15  C   UNL     1      -7.118   6.218  69.004  1.00  0.00    -0.081 A  
HETATM   16  C   UNL     1      -7.648   5.475  67.953  1.00  0.00    -0.085 A  
HETATM   17  C   UNL     1      -8.545   6.071  67.067  1.00  0.00    -0.107 A  
HETATM   18  N   UNL     1      -9.687   8.267  66.528  1.00  0.00    -0.253 NA 
HETATM   19  C   UNL     1      -7.534   7.546  69.235  1.00  0.00    -0.091 A  
HETATM   20  C   UNL     1      -8.496   8.167  68.396  1.00  0.00    -0.126 A  
HETATM   21  C   UNL     1      -8.919   7.423  67.293  1.00  0.00    -0.124 A  
HETATM   22  H   UNL     1     -10.082   8.030  65.618  1.00  0.00     0.000 HD 
ENDBRANCH  12  13
ENDBRANCH  11  12
BRANCH  11  23
HETATM   23  C   UNL     1      -8.315  13.020  69.670  1.00  0.00     1.737 C  
HETATM   24  N   UNL     1      -7.714  13.781  68.687  1.00  0.00    -0.167 N  
HETATM   25  H   UNL     1      -8.130  13.827  67.757  1.00  0.00     0.000 HD 
HETATM   26  O   UNL     1      -7.896  12.993  70.831  1.00  0.00     4.234 OA 
BRANCH  24  27
HETATM   27  C   UNL     1      -6.500  14.512  68.968  1.00  0.00    -0.099 C  
BRANCH  27  28
HETATM   28  N   UNL     1      -5.427  13.940  68.196  1.00  0.00    -0.112 N  
HETATM   29  O   UNL     1      -6.784  13.053  66.548  1.00  0.00     0.665 OA 
HETATM   30  C   UNL     1      -5.679  13.251  67.031  1.00  0.00     0.805 C  
HETATM   31  H   UNL     1      -4.466  14.046  68.517  1.00  0.00     0.000 HD 
ENDBRANCH  27  28
BRANCH  27  32
HETATM   32  C   UNL     1      -6.559  16.055  68.957  1.00  0.00    -0.151 C  
BRANCH  32  33
HETATM   33  C   UNL     1      -7.123  16.980  67.891  1.00  0.00    -0.166 A  
HETATM   34  C   UNL     1      -7.929  18.564  66.424  1.00  0.00    -0.267 A  
HETATM   35  H   UNL     1      -8.456  17.139  64.950  1.00  0.00     0.000 HD 
HETATM   36  C   UNL     1      -8.288  19.800  65.865  1.00  0.00    -0.211 A  
HETATM   37  C   UNL     1      -7.587  16.381  66.722  1.00  0.00    -0.255 A  
HETATM   38  C   UNL     1      -8.090  20.939  66.637  1.00  0.00     0.132 A  
HETATM   39  N   UNL     1      -8.060  17.327  65.871  1.00  0.00    -0.536 NA 
HETATM   40  C   UNL     1      -7.558  20.830  67.921  1.00  0.00    -0.082 A  
HETATM   41  C   UNL     1      -7.191  19.580  68.463  1.00  0.00    -0.361 A  
HETATM   42  C   UNL     1      -7.368  18.401  67.706  1.00  0.00    -0.229 A  
ENDBRANCH  32  33
ENDBRANCH  27  32
ENDBRANCH  24  27
ENDBRANCH  11  23
ENDBRANCH   7  11
TORSDOF 8
ENDMDL
MODEL      427
REMARK 921   NORMALIZED FREE ENERGY PREDICTED BY IDOCK:    5.67 KCAL/MOL
REMARK 922        TOTAL FREE ENERGY PREDICTED BY IDOCK:    6.17 KCAL/MOL
REMARK 923 INTER-LIGAND FREE ENERGY PREDICTED BY IDOCK:   -1.27 KCAL/MOL
REMARK 924 INTRA-LIGAND FREE ENERGY PREDICTED BY IDOCK:    7.44 KCAL/MOL
REMARK 927      BINDING AFFINITY PREDICTED BY RF-SCORE:    0.00 PKD
ROOT
HETATM    1  C   UNL     1      -7.590  20.202  68.243  1.00  0.00    -0.208 C  
HETATM    2  C   UNL     1      -6.607  19.343  67.425  1.00  0.00    -0.193 C  
HETATM    3  C   UNL     1      -7.370  18.279  66.382  1.00  0.00    -0.248 C  
HETATM    4  N   UNL     1      -5.788  18.560  68.396  1.00  0.00    -0.186 NA 
HETATM    5  C   UNL     1      -5.643  20.363  66.758  1.00  0.00    -0.196 C  
HETATM    6  H2  UNL     1      -6.355  18.011  69.043  1.00  0.00     0.000 HD 
HETATM    7  N   UNL     1      -7.714  17.018  66.884  1.00  0.00    -0.195 N  
HETATM    8  H1  UNL     1      -5.137  17.992  67.854  1.00  0.00     0.000 HD 
HETATM    9  O   UNL     1      -7.658  18.604  65.231  1.00  0.00    -0.267 OA 
HETATM   10  H   UNL     1      -7.295  16.830  67.794  1.00  0.00     0.000 HD 
ENDROOT
BRANCH   7  11
HETATM   11  C   UNL     1      -8.596  15.827  66.367  1.00  0.00    -0.311 C  
BRANCH  11  12
HETATM   12  C   UNL     1      -9.398  15.822  64.983  1.00  0.00     1.156 C  
BRANCH  12  13
HETATM   13  C   UNL     1     -10.818  15.084  64.874  1.00  0.00    -0.430 A  
HETATM   14  C   UNL     1     -12.049  15.503  65.342  1.00  0.00     0.534 A  
HETATM   15  C   UNL     1     -10.926  11.604  63.088  1.00  0.00    -0.247 A  
HETATM   16  C   UNL     1     -12.187  11.223  63.537  1.00  0.00     0.405 A  
HETATM   17  C   UNL     1     -12.960  12.118  64.275  1.00  0.00    -0.173 A  
HETATM   18  N   UNL     1     -12.986  14.481  65.188  1.00  0.00    -0.486 NA 
HETATM   19  C   UNL     1     -10.382  12.859  63.435  1.00  0.00     0.426 A  
HETATM   20  C   UNL     1     -11.109  13.773  64.243  1.00  0.00    -0.300 A  
HETATM   21  C   UNL     1     -12.410  13.393  64.579  1.00  0.00    -0.360 A  
HETATM   22  H   UNL     1     -13.960  14.535  65.484  1.00  0.00     0.000 HD 
ENDBRANCH  12  13
ENDBRANCH  11  12
BRANCH  11  23
HETATM   23  C   UNL     1      -9.412  15.309  67.581  1.00  0.00    -0.205 C  
HETATM   24  N   UNL     1      -9.963  16.254  68.424  1.00  0.00    -0.228 N  
HETATM   25  H   UNL     1      -9.943  17.239  68.162  1.00  0.00     0.000 HD 
HETATM   26  O   UNL     1      -9.480  14.098  67.814  1.00  0.00    -0.198 OA 
BRANCH  24  27
HETATM   27  C   UNL     1     -10.568  15.856  69.674  1.00  0.00    -0.301 C  
BRANCH  27  28
HETATM   28  N   UNL     1     -11.424  16.919  70.131  1.00  0.00    -0.139 N  
HETATM   29  O   UNL     1     -10.521  18.543  68.756  1.00  0.00    -0.253 OA 
HETATM   30  C   UNL     1     -11.317  18.190  69.614  1.00  0.00     2.946 C  
HETATM   31  H   UNL     1     -12.121  16.728  70.851  1.00  0.00     0.000 HD 
ENDBRANCH  27  28
BRANCH  27  32
HETATM   32  C   UNL     1     -11.179  14.441  69.770  1.00  0.00    -0.251 C  
BRANCH  32  33
HETATM   33  C   UNL     1     -11.255  13.361  68.704  1.00  0.00    -0.304 A  
HETATM   34  C   UNL     1     -11.152  11.655  67.158  1.00  0.00    -0.299 A  
HETATM   35  H   UNL     1     -13.074  12.061  66.370  1.00  0.00     0.000 HD 
HETATM   36  C   UNL     1     -10.690  10.557  66.415  1.00  0.00    -0.166 A  
HETATM   37  C   UNL     1     -12.423  13.308  67.948  1.00  0.00     0.379 A  
HETATM   38  C   UNL     1      -9.412  10.085  66.691  1.00  0.00    -0.215 A  
HETATM   39  N   UNL     1     -12.345  12.300  67.041  1.00  0.00    -0.233 NA 
HETATM   40  C   UNL     1      -8.635  10.699  67.672  1.00  0.00    -0.118 A  
HETATM   41  C   UNL     1      -9.121  11.795  68.418  1.00  0.00    -0.176 A  
HETATM   42  C   UNL     1     -10.417  12.298  68.174  1.00  0.00    -0.228 A  
ENDBRANCH  32  33
ENDBRANCH  27  32
ENDBRANCH  24  27
ENDBRANCH  11  23
ENDBRANCH   7  11
TORSDOF 8
ENDMDL
MODEL      428
REMARK 921   NORMALIZED FREE ENERGY PREDICTED BY IDOCK:   11.22 KCAL/MOL
REMARK 922        TOTAL FREE ENERGY PREDICTED BY IDOCK:   14.33 KCAL/MOL
REMARK 923 INTER-LIGAND FREE ENERGY PREDICTED BY IDOCK:   -1.67 KCAL/MOL
REMARK 924 INTRA-LIGAND FREE ENERGY PREDICTED BY IDOCK:   16.00 KCAL/MOL
REMARK 927      BINDING AFFINITY PREDICTED BY RF-SCORE:    0.00 PKD
ROOT
HETATM    1  C   UNL     1      -7.643  20.291  68.108  1.00  0.00    -0.189 C  
HETATM    2  C   UNL     1      -6.681  19.542  67.166  1.00  0.00    -0.195 C  
HETATM    3  C   UNL     1      -7.425  18.314  66.305  1.00  0.00    -0.260 C  
HETATM    4  N   UNL     1      -5.604  18.951  68.012  1.00  0.00    -0.187 NA 
HETATM    5  C   UNL     1      -6.011  20.653  66.311  1.00  0.00    -0.252 C  
HETATM    6  H2  UNL     1      -5.964  18.364  68.765  1.00  0.00     0.000 HD 
HETATM    7  N   UNL     1      -7.480  17.048  66.901  1.00  0.00    -0.189 N  
HETATM    8  H1  UNL     1      -4.967  18.455  67.388  1.00  0.00     0.000 HD 
HETATM    9  O   UNL     1      -7.942  18.522  65.208  1.00  0.00     0.117 OA 
HETATM   10  H   UNL     1      -6.895  16.981  67.734  1.00  0.00     0.000 HD 
ENDROOT
BRANCH   7  11
HETATM   11  C   UNL     1      -8.233  15.709  66.582  1.00  0.00    -0.249 C  
BRANCH  11  12
HETATM   12  C   UNL     1      -9.805  15.482  66.771  1.00  0.00    -0.252 C  
BRANCH  12  13
HETATM   13  C   UNL     1     -10.361  14.081  67.320  1.00  0.00    -0.264 A  
HETATM   14  C   UNL     1     -10.544  13.676  68.628  1.00  0.00    -0.248 A  
HETATM   15  C   UNL     1     -11.332  11.353  64.688  1.00  0.00    -0.156 A  
HETATM   16  C   UNL     1     -11.393  10.280  65.572  1.00  0.00     1.439 A  
HETATM   17  C   UNL     1     -11.233  10.499  66.940  1.00  0.00     0.003 A  
HETATM   18  N   UNL     1     -10.882  12.323  68.662  1.00  0.00    -0.229 NA 
HETATM   19  C   UNL     1     -11.032  12.653  65.146  1.00  0.00    -0.324 A  
HETATM   20  C   UNL     1     -10.795  12.906  66.524  1.00  0.00    -0.290 A  
HETATM   21  C   UNL     1     -10.973  11.823  67.385  1.00  0.00    -0.262 A  
HETATM   22  H   UNL     1     -11.039  11.783  69.512  1.00  0.00     0.000 HD 
ENDBRANCH  12  13
ENDBRANCH  11  12
BRANCH  11  23
HETATM   23  C   UNL     1      -7.351  14.554  67.126  1.00  0.00     0.092 C  
HETATM   24  N   UNL     1      -6.508  14.843  68.181  1.00  0.00    -0.120 N  
HETATM   25  H   UNL     1      -6.582  15.742  68.657  1.00  0.00     0.000 HD 
HETATM   26  O   UNL     1      -7.355  13.452  66.569  1.00  0.00     0.741 OA 
BRANCH  24  27
HETATM   27  C   UNL     1      -5.521  13.880  68.614  1.00  0.00    -0.087 C  
BRANCH  27  28
HETATM   28  N   UNL     1      -5.227  14.115  70.005  1.00  0.00    -0.089 N  
HETATM   29  O   UNL     1      -6.333  16.141  70.130  1.00  0.00    -0.136 OA 
HETATM   30  C   UNL     1      -5.675  15.249  70.644  1.00  0.00    -0.080 C  
HETATM   31  H   UNL     1      -4.679  13.430  70.524  1.00  0.00     0.000 HD 
ENDBRANCH  27  28
BRANCH  27  32
HETATM   32  C   UNL     1      -5.732  12.399  68.235  1.00  0.00    -0.060 C  
BRANCH  32  33
HETATM   33  C   UNL     1      -6.810  11.783  67.357  1.00  0.00    -0.122 A  
HETATM   34  C   UNL     1      -8.278  10.840  65.852  1.00  0.00    -0.155 A  
HETATM   35  H   UNL     1      -9.893  10.824  67.220  1.00  0.00     0.000 HD 
HETATM   36  C   UNL     1      -8.804  10.280  64.677  1.00  0.00    -0.220 A  
HETATM   37  C   UNL     1      -8.063  11.604  67.936  1.00  0.00    -0.138 A  
HETATM   38  C   UNL     1      -7.965  10.196  63.572  1.00  0.00    -0.161 A  
HETATM   39  N   UNL     1      -8.916  11.050  67.036  1.00  0.00    -0.146 NA 
HETATM   40  C   UNL     1      -6.655  10.664  63.650  1.00  0.00     0.162 A  
HETATM   41  C   UNL     1      -6.139  11.213  64.844  1.00  0.00     0.691 A  
HETATM   42  C   UNL     1      -6.956  11.307  65.991  1.00  0.00     0.143 A  
ENDBRANCH  32  33
ENDBRANCH  27  32
ENDBRANCH  24  27
ENDBRANCH  11  23
ENDBRANCH   7  11
TORSDOF 8
ENDMDL
MODEL      429
REMARK 921   NORMALIZED FREE ENERGY PREDICTED BY IDOCK:   12.60 KCAL/MOL
REMARK 922        TOTAL FREE ENERGY PREDICTED BY IDOCK:   16.36 KCAL/MOL
REMARK 923 INTER-LIGAND FREE ENERGY PREDICTED BY IDOCK:   17.50 KCAL/MOL
REMARK 924 INTRA-LIGAND FREE ENERGY PREDICTED BY IDOCK:   -1.15 KCAL/MOL
REMARK 927      BINDING AFFINITY PREDICTED BY RF-SCORE:    0.00 PKD
ROOT
HETATM    1  C   UNL     1     -10.346  14.076  73.370  1.00  0.00     7.139 C  
HETATM    2  C   UNL     1     -10.789  14.148  71.896  1.00  0.00     3.025 C  
HETATM    3  C   UNL     1     -10.987  12.641  71.193  1.00  0.00     3.985 C  
HETATM    4  N   UNL     1      -9.732  14.890  71.151  1.00  0.00     1.121 NA 
HETATM    5  C   UNL     1     -12.048  15.059  71.900  1.00  0.00    -0.443 C  
HETATM    6  H2  UNL     1      -8.802  14.486  71.269  1.00  0.00     0.000 HD 
HETATM    7  N   UNL     1      -9.864  12.052  70.600  1.00  0.00     4.287 N  
HETATM    8  H1  UNL     1     -10.025  14.937  70.175  1.00  0.00     0.000 HD 
HETATM    9  O   UNL     1     -12.067  12.053  71.232  1.00  0.00    -0.063 OA 
HETATM   10  H   UNL     1      -9.082  12.700  70.513  1.00  0.00     0.000 HD 
ENDROOT
BRANCH   7  11
HETATM   11  C   UNL     1      -9.533  10.625  70.038  1.00  0.00     0.579 C  
BRANCH  11  12
HETATM   12  C   UNL     1      -9.414   9.301  70.928  1.00  0.00    -0.330 C  
BRANCH  12  13
HETATM   13  C   UNL     1     -10.067   7.926  70.425  1.00  0.00    -0.194 A  
HETATM   14  C   UNL     1     -11.148   7.738  69.583  1.00  0.00    -0.042 A  
HETATM   15  C   UNL     1      -8.490   4.585  71.713  1.00  0.00    -0.116 A  
HETATM   16  C   UNL     1      -9.539   3.748  71.341  1.00  0.00    -0.236 A  
HETATM   17  C   UNL     1     -10.614   4.265  70.620  1.00  0.00     0.623 A  
HETATM   18  N   UNL     1     -11.488   6.386  69.545  1.00  0.00    -0.586 NA 
HETATM   19  C   UNL     1      -8.535   5.969  71.441  1.00  0.00    -0.128 A  
HETATM   20  C   UNL     1      -9.645   6.546  70.768  1.00  0.00    -0.190 A  
HETATM   21  C   UNL     1     -10.620   5.654  70.319  1.00  0.00    -0.300 A  
HETATM   22  H   UNL     1     -12.270   5.997  69.019  1.00  0.00     0.000 HD 
ENDBRANCH  12  13
ENDBRANCH  11  12
BRANCH  11  23
HETATM   23  C   UNL     1      -8.392  10.801  69.001  1.00  0.00    -0.136 C  
HETATM   24  N   UNL     1      -8.523  10.139  67.796  1.00  0.00    -0.114 N  
HETATM   25  H   UNL     1      -9.403   9.678  67.565  1.00  0.00     0.000 HD 
HETATM   26  O   UNL     1      -7.378  11.441  69.294  1.00  0.00    -0.109 OA 
BRANCH  24  27
HETATM   27  C   UNL     1      -7.422  10.096  66.861  1.00  0.00    -0.096 C  
BRANCH  27  28
HETATM   28  N   UNL     1      -6.415   9.205  67.377  1.00  0.00    -0.063 N  
HETATM   29  O   UNL     1      -7.900   7.669  68.257  1.00  0.00    -0.117 OA 
HETATM   30  C   UNL     1      -6.760   8.049  68.039  1.00  0.00    -0.065 C  
HETATM   31  H   UNL     1      -5.429   9.436  67.250  1.00  0.00     0.000 HD 
ENDBRANCH  27  28
BRANCH  27  32
HETATM   32  C   UNL     1      -7.744   9.916  65.362  1.00  0.00    -0.130 C  
BRANCH  32  33
HETATM   33  C   UNL     1      -7.919   8.630  64.572  1.00  0.00    -0.144 A  
HETATM   34  C   UNL     1      -8.311   6.597  63.560  1.00  0.00     0.188 A  
HETATM   35  H   UNL     1      -7.234   7.100  61.808  1.00  0.00     0.000 HD 
HETATM   36  C   UNL     1      -8.776   5.293  63.327  1.00  0.00     0.009 A  
HETATM   37  C   UNL     1      -7.328   8.583  63.312  1.00  0.00    -0.103 A  
HETATM   38  C   UNL     1      -9.497   4.676  64.342  1.00  0.00    -0.010 A  
HETATM   39  N   UNL     1      -7.566   7.379  62.731  1.00  0.00    -0.105 NA 
HETATM   40  C   UNL     1      -9.733   5.346  65.542  1.00  0.00     0.094 A  
HETATM   41  C   UNL     1      -9.269   6.662  65.753  1.00  0.00     0.067 A  
HETATM   42  C   UNL     1      -8.541   7.327  64.743  1.00  0.00     0.205 A  
ENDBRANCH  32  33
ENDBRANCH  27  32
ENDBRANCH  24  27
ENDBRANCH  11  23
ENDBRANCH   7  11
TORSDOF 8
ENDMDL
MODEL      430
REMARK 921   NORMALIZED FREE ENERGY PREDICTED BY IDOCK:   16.25 KCAL/MOL
REMARK 922        TOTAL FREE ENERGY PREDICTED BY IDOCK:   21.71 KCAL/MOL
REMARK 923 INTER-LIGAND FREE ENERGY PREDICTED BY IDOCK:   23.01 KCAL/MOL
REMARK 924 INTRA-LIGAND FREE ENERGY PREDICTED BY IDOCK:   -1.30 KCAL/MOL
REMARK 927      BINDING AFFINITY PREDICTED BY RF-SCORE:    0.00 PKD
ROOT
HETATM    1  C   UNL     1     -10.315  14.063  73.401  1.00  0.00     7.139 C  
HETATM    2  C   UNL     1     -10.717  14.136  71.915  1.00  0.00     3.456 C  
HETATM    3  C   UNL     1     -10.937  12.631  71.216  1.00  0.00     4.451 C  
HETATM    4  N   UNL     1      -9.620  14.845  71.194  1.00  0.00     1.314 NA 
HETATM    5  C   UNL     1     -11.950  15.082  71.880  1.00  0.00    -0.454 C  
HETATM    6  H2  UNL     1      -8.705  14.417  71.340  1.00  0.00     0.000 HD 
HETATM    7  N   UNL     1      -9.816  12.008  70.657  1.00  0.00     4.287 N  
HETATM    8  H1  UNL     1      -9.887  14.894  70.211  1.00  0.00     0.000 HD 
HETATM    9  O   UNL     1     -12.033  12.072  71.230  1.00  0.00     0.113 OA 
HETATM   10  H   UNL     1      -9.014  12.634  70.586  1.00  0.00     0.000 HD 
ENDROOT
BRANCH   7  11
HETATM   11  C   UNL     1      -9.508  10.569  70.113  1.00  0.00     0.576 C  
BRANCH  11  12
HETATM   12  C   UNL     1      -9.460   9.247  71.012  1.00  0.00    -0.313 C  
BRANCH  12  13
HETATM   13  C   UNL     1     -10.145   7.891  70.495  1.00  0.00    -0.192 A  
HETATM   14  C   UNL     1     -11.134   7.730  69.544  1.00  0.00     0.006 A  
HETATM   15  C   UNL     1      -8.951   4.527  72.097  1.00  0.00    -0.145 A  
HETATM   16  C   UNL     1     -10.006   3.740  71.642  1.00  0.00    -0.211 A  
HETATM   17  C   UNL     1     -10.956   4.286  70.781  1.00  0.00     1.617 A  
HETATM   18  N   UNL     1     -11.559   6.401  69.525  1.00  0.00    -0.616 NA 
HETATM   19  C   UNL     1      -8.872   5.895  71.762  1.00  0.00    -0.139 A  
HETATM   20  C   UNL     1      -9.858   6.506  70.943  1.00  0.00    -0.201 A  
HETATM   21  C   UNL     1     -10.835   5.656  70.423  1.00  0.00    -0.256 A  
HETATM   22  H   UNL     1     -12.302   6.036  68.929  1.00  0.00     0.000 HD 
ENDBRANCH  12  13
ENDBRANCH  11  12
BRANCH  11  23
HETATM   23  C   UNL     1      -8.328  10.705  69.114  1.00  0.00    -0.135 C  
HETATM   24  N   UNL     1      -8.451  10.068  67.895  1.00  0.00    -0.117 N  
HETATM   25  H   UNL     1      -9.344   9.652  67.630  1.00  0.00     0.000 HD 
HETATM   26  O   UNL     1      -7.294  11.291  69.450  1.00  0.00    -0.105 OA 
BRANCH  24  27
HETATM   27  C   UNL     1      -7.324   9.986  66.995  1.00  0.00    -0.091 C  
BRANCH  27  28
HETATM   28  N   UNL     1      -6.388   9.022  67.515  1.00  0.00    -0.062 N  
HETATM   29  O   UNL     1      -7.990   7.559  68.312  1.00  0.00    -0.119 OA 
HETATM   30  C   UNL     1      -6.822   7.873  68.136  1.00  0.00    -0.068 C  
HETATM   31  H   UNL     1      -5.387   9.194  67.422  1.00  0.00     0.000 HD 
ENDBRANCH  27  28
BRANCH  27  32
HETATM   32  C   UNL     1      -7.606   9.868  65.482  1.00  0.00    -0.125 C  
BRANCH  32  33
HETATM   33  C   UNL     1      -8.922  10.038  64.741  1.00  0.00    -0.247 A  
HETATM   34  C   UNL     1     -10.957  10.486  63.757  1.00  0.00     1.110 A  
HETATM   35  H   UNL     1     -10.832   8.850  62.420  1.00  0.00     0.000 HD 
HETATM   36  C   UNL     1     -12.182  11.099  63.453  1.00  0.00     0.808 A  
HETATM   37  C   UNL     1      -9.202   9.111  63.741  1.00  0.00     0.368 A  
HETATM   38  C   UNL     1     -12.558  12.201  64.212  1.00  0.00    -0.432 A  
HETATM   39  N   UNL     1     -10.404   9.387  63.174  1.00  0.00     2.899 NA 
HETATM   40  C   UNL     1     -11.733  12.658  65.239  1.00  0.00    -0.417 A  
HETATM   41  C   UNL     1     -10.498  12.037  65.523  1.00  0.00    -0.307 A  
HETATM   42  C   UNL     1     -10.076  10.921  64.768  1.00  0.00    -0.383 A  
ENDBRANCH  32  33
ENDBRANCH  27  32
ENDBRANCH  24  27
ENDBRANCH  11  23
ENDBRANCH   7  11
TORSDOF 8
ENDMDL
MODEL      431
REMARK 921   NORMALIZED FREE ENERGY PREDICTED BY IDOCK:   34.77 KCAL/MOL
REMARK 922        TOTAL FREE ENERGY PREDICTED BY IDOCK:   48.88 KCAL/MOL
REMARK 923 INTER-LIGAND FREE ENERGY PREDICTED BY IDOCK:   29.68 KCAL/MOL
REMARK 924 INTRA-LIGAND FREE ENERGY PREDICTED BY IDOCK:   19.20 KCAL/MOL
REMARK 927      BINDING AFFINITY PREDICTED BY RF-SCORE:    0.00 PKD
ROOT
HETATM    1  C   UNL     1      -7.588   5.902  65.970  1.00  0.00    -0.086 C  
HETATM    2  C   UNL     1      -7.810   7.147  65.089  1.00  0.00    -0.124 C  
HETATM    3  C   UNL     1      -7.565   8.587  65.909  1.00  0.00    -0.085 C  
HETATM    4  N   UNL     1      -9.221   7.103  64.608  1.00  0.00     0.509 NA 
HETATM    5  C   UNL     1      -6.911   6.921  63.842  1.00  0.00    -0.056 C  
HETATM    6  H2  UNL     1      -9.900   7.024  65.366  1.00  0.00     0.000 HD 
HETATM    7  N   UNL     1      -8.659   9.139  66.586  1.00  0.00    -0.125 N  
HETATM    8  H1  UNL     1      -9.368   7.927  64.025  1.00  0.00     0.000 HD 
HETATM    9  O   UNL     1      -6.457   9.120  65.951  1.00  0.00    -0.060 OA 
HETATM   10  H   UNL     1      -9.538   8.679  66.352  1.00  0.00     0.000 HD 
ENDROOT
BRANCH   7  11
HETATM   11  C   UNL     1      -8.843  10.304  67.621  1.00  0.00    -0.121 C  
BRANCH  11  12
HETATM   12  C   UNL     1     -10.224  10.676  68.336  1.00  0.00    -0.191 C  
BRANCH  12  13
HETATM   13  C   UNL     1     -10.393  10.487  69.920  1.00  0.00    -0.164 A  
HETATM   14  C   UNL     1     -10.021  11.345  70.938  1.00  0.00     4.907 A  
HETATM   15  C   UNL     1     -12.041   7.173  71.190  1.00  0.00    -0.397 A  
HETATM   16  C   UNL     1     -11.657   7.294  72.522  1.00  0.00    -0.285 A  
HETATM   17  C   UNL     1     -11.006   8.448  72.954  1.00  0.00    -0.030 A  
HETATM   18  N   UNL     1     -10.192  10.716  72.171  1.00  0.00     4.895 NA 
HETATM   19  C   UNL     1     -11.710   8.170  70.247  1.00  0.00     0.097 A  
HETATM   20  C   UNL     1     -10.987   9.330  70.634  1.00  0.00    -0.336 A  
HETATM   21  C   UNL     1     -10.719   9.459  71.997  1.00  0.00     0.220 A  
HETATM   22  H   UNL     1      -9.960  11.131  73.073  1.00  0.00     0.000 HD 
ENDBRANCH  12  13
ENDBRANCH  11  12
BRANCH  11  23
HETATM   23  C   UNL     1      -8.058  11.525  67.072  1.00  0.00    -0.161 C  
HETATM   24  N   UNL     1      -6.679  11.445  67.074  1.00  0.00    -0.119 N  
HETATM   25  H   UNL     1      -6.223  10.561  67.297  1.00  0.00     0.000 HD 
HETATM   26  O   UNL     1      -8.658  12.549  66.733  1.00  0.00    -0.183 OA 
BRANCH  24  27
HETATM   27  C   UNL     1      -5.879  12.607  66.762  1.00  0.00     0.727 C  
BRANCH  27  28
HETATM   28  N   UNL     1      -5.180  12.368  65.526  1.00  0.00     2.352 N  
HETATM   29  O   UNL     1      -7.029  12.639  64.166  1.00  0.00     7.385 OA 
HETATM   30  C   UNL     1      -5.839  12.410  64.318  1.00  0.00     7.478 C  
HETATM   31  H   UNL     1      -4.181  12.163  65.546  1.00  0.00     0.000 HD 
ENDBRANCH  27  28
BRANCH  27  32
HETATM   32  C   UNL     1      -6.537  13.999  66.879  1.00  0.00     1.333 C  
BRANCH  32  33
HETATM   33  C   UNL     1      -7.944  14.353  67.332  1.00  0.00    -0.220 A  
HETATM   34  C   UNL     1     -10.054  14.717  68.183  1.00  0.00    -0.221 A  
HETATM   35  H   UNL     1     -10.484  16.288  66.830  1.00  0.00     0.000 HD 
HETATM   36  C   UNL     1     -11.207  14.607  68.975  1.00  0.00    -0.287 A  
HETATM   37  C   UNL     1      -8.580  15.388  66.651  1.00  0.00    -0.283 A  
HETATM   38  C   UNL     1     -11.230  13.612  69.946  1.00  0.00    -0.023 A  
HETATM   39  N   UNL     1      -9.821  15.587  67.162  1.00  0.00    -0.233 NA 
HETATM   40  C   UNL     1     -10.136  12.763  70.103  1.00  0.00     2.789 A  
HETATM   41  C   UNL     1      -8.979  12.897  69.306  1.00  0.00     0.964 A  
HETATM   42  C   UNL     1      -8.913  13.901  68.316  1.00  0.00    -0.187 A  
ENDBRANCH  32  33
ENDBRANCH  27  32
ENDBRANCH  24  27
ENDBRANCH  11  23
ENDBRANCH   7  11
TORSDOF 8
ENDMDL
MODEL      432
REMARK 921   NORMALIZED FREE ENERGY PREDICTED BY IDOCK:   62.92 KCAL/MOL
REMARK 922        TOTAL FREE ENERGY PREDICTED BY IDOCK:   90.21 KCAL/MOL
REMARK 923 INTER-LIGAND FREE ENERGY PREDICTED BY IDOCK:   84.35 KCAL/MOL
REMARK 924 INTRA-LIGAND FREE ENERGY PREDICTED BY IDOCK:    5.85 KCAL/MOL
REMARK 927      BINDING AFFINITY PREDICTED BY RF-SCORE:    0.00 PKD
ROOT
HETATM    1  C   UNL     1      -6.403  13.437  71.203  1.00  0.00     0.806 C  
HETATM    2  C   UNL     1      -7.664  12.819  70.568  1.00  0.00     4.193 C  
HETATM    3  C   UNL     1      -8.136  13.585  69.157  1.00  0.00     0.378 C  
HETATM    4  N   UNL     1      -8.764  12.933  71.569  1.00  0.00    13.313 NA 
HETATM    5  C   UNL     1      -7.343  11.304  70.437  1.00  0.00     1.487 C  
HETATM    6  H2  UNL     1      -8.910  13.889  71.894  1.00  0.00     0.000 HD 
HETATM    7  N   UNL     1      -8.998  14.681  69.275  1.00  0.00    -0.395 N  
HETATM    8  H1  UNL     1      -9.599  12.523  71.148  1.00  0.00     0.000 HD 
HETATM    9  O   UNL     1      -7.709  13.228  68.059  1.00  0.00    -0.119 OA 
HETATM   10  H   UNL     1      -9.382  14.779  70.214  1.00  0.00     0.000 HD 
ENDROOT
BRANCH   7  11
HETATM   11  C   UNL     1      -9.510  15.794  68.293  1.00  0.00    -0.200 C  
BRANCH  11  12
HETATM   12  C   UNL     1     -11.003  16.366  68.264  1.00  0.00    -0.355 C  
BRANCH  12  13
HETATM   13  C   UNL     1     -11.514  17.355  69.419  1.00  0.00     1.438 A  
HETATM   14  C   UNL     1     -11.200  18.686  69.620  1.00  0.00     3.121 A  
HETATM   15  C   UNL     1     -13.962  15.903  72.104  1.00  0.00    -0.234 A  
HETATM   16  C   UNL     1     -13.835  16.939  73.026  1.00  0.00     2.141 A  
HETATM   17  C   UNL     1     -13.081  18.066  72.702  1.00  0.00     9.794 A  
HETATM   18  N   UNL     1     -11.725  19.117  70.838  1.00  0.00     6.407 NA 
HETATM   19  C   UNL     1     -13.274  15.940  70.873  1.00  0.00     0.179 A  
HETATM   20  C   UNL     1     -12.441  17.040  70.534  1.00  0.00     4.258 A  
HETATM   21  C   UNL     1     -12.429  18.102  71.440  1.00  0.00    11.624 A  
HETATM   22  H   UNL     1     -11.604  20.051  71.226  1.00  0.00     0.000 HD 
ENDBRANCH  12  13
ENDBRANCH  11  12
BRANCH  11  23
HETATM   23  C   UNL     1      -8.923  15.467  66.894  1.00  0.00    -0.247 C  
HETATM   24  N   UNL     1      -9.718  15.733  65.796  1.00  0.00    -0.339 N  
HETATM   25  H   UNL     1     -10.588  16.252  65.914  1.00  0.00     0.000 HD 
HETATM   26  O   UNL     1      -7.825  14.911  66.794  1.00  0.00    -0.071 OA 
BRANCH  24  27
HETATM   27  C   UNL     1      -9.325  15.279  64.482  1.00  0.00     3.294 C  
BRANCH  27  28
HETATM   28  N   UNL     1      -8.352  16.199  63.949  1.00  0.00    11.727 N  
HETATM   29  O   UNL     1      -8.637  17.803  65.588  1.00  0.00    -0.389 OA 
HETATM   30  C   UNL     1      -8.094  17.399  64.570  1.00  0.00     7.150 C  
HETATM   31  H   UNL     1      -7.847  15.956  63.097  1.00  0.00     0.000 HD 
ENDBRANCH  27  28
BRANCH  27  32
HETATM   32  C   UNL     1      -8.978  13.786  64.298  1.00  0.00     4.478 C  
BRANCH  32  33
HETATM   33  C   UNL     1      -8.922  12.685  65.344  1.00  0.00     0.751 A  
HETATM   34  C   UNL     1      -8.614  10.971  66.853  1.00  0.00    -0.143 A  
HETATM   35  H   UNL     1     -10.547  11.170  67.692  1.00  0.00     0.000 HD 
HETATM   36  C   UNL     1      -8.022   9.922  67.574  1.00  0.00    -0.106 A  
HETATM   37  C   UNL     1     -10.058  12.508  66.129  1.00  0.00    -0.251 A  
HETATM   38  C   UNL     1      -6.738   9.535  67.211  1.00  0.00    -0.072 A  
HETATM   39  N   UNL     1      -9.861  11.494  67.011  1.00  0.00    -0.190 NA 
HETATM   40  C   UNL     1      -6.083  10.177  66.161  1.00  0.00    -0.080 A  
HETATM   41  C   UNL     1      -6.689  11.239  65.455  1.00  0.00     0.523 A  
HETATM   42  C   UNL     1      -7.989  11.668  65.801  1.00  0.00     0.480 A  
ENDBRANCH  32  33
ENDBRANCH  27  32
ENDBRANCH  24  27
ENDBRANCH  11  23
ENDBRANCH   7  11
TORSDOF 8
ENDMDL
