MODEL        1
REMARK 921   NORMALIZED FREE ENERGY PREDICTED BY IDOCK:   -7.61 KCAL/MOL
REMARK 922        TOTAL FREE ENERGY PREDICTED BY IDOCK:  -13.41 KCAL/MOL
REMARK 923 INTER-LIGAND FREE ENERGY PREDICTED BY IDOCK:  -11.17 KCAL/MOL
REMARK 924 INTRA-LIGAND FREE ENERGY PREDICTED BY IDOCK:   -2.24 KCAL/MOL
REMARK 927      BINDING AFFINITY PREDICTED BY RF-SCORE:    0.00 PKD
ROOT
HETATM    1 MG   UNL     3      -7.815  12.435  66.304  1.00  0.00    -0.332 Mg 
HETATM    2  O   UNL     4     -11.376  16.819  63.732  1.00  0.00    -1.303 OA 
HETATM    3  C   UNL     4     -10.973  16.128  64.898  1.00  0.00    -0.349 C  
HETATM    4  H   UNL     4     -11.005  17.691  63.671  1.00  0.00     0.000 HD 
HETATM    5  O   UNL     5      -9.214   5.388  69.059  1.00  0.00    -0.115 OA 
HETATM    6  H   UNL     5      -9.139   4.726  68.382  1.00  0.00     0.000 HD 
HETATM    7  C   UNL     5     -10.033   6.480  68.642  1.00  0.00    -0.146 C  
ENDROOT
BRANCH   3   8
HETATM    8  C   UNL     4     -11.573  14.717  64.996  1.00  0.00    -0.378 C  
HETATM    9  O   UNL     4     -12.541  14.530  63.947  1.00  0.00    -0.901 OA 
HETATM   10  H   UNL     4     -12.913  13.657  64.007  1.00  0.00     0.000 HD 
BRANCH   8  11
HETATM   11  C   UNL     4     -10.618  13.490  64.939  1.00  0.00    -0.397 C  
HETATM   12  O   UNL     4      -9.419  13.675  65.684  1.00  0.00    -0.498 OA 
HETATM   13  H   UNL     4      -8.836  12.926  65.649  1.00  0.00     0.000 HD 
BRANCH  11  14
HETATM   14  C   UNL     4     -11.225  12.082  65.184  1.00  0.00    -0.315 C  
HETATM   15  H   UNL     4     -13.017  11.412  65.579  1.00  0.00     0.000 HD 
HETATM   16  O   UNL     4     -12.646  12.273  65.429  1.00  0.00    -0.572 OA 
BRANCH  14  17
HETATM   17  C   UNL     4     -10.607  11.142  66.259  1.00  0.00    -0.253 C  
HETATM   18  C   UNL     4      -9.865   9.894  65.624  1.00  0.00    -0.298 C  
HETATM   19  H   UNL     4     -11.167  10.243  67.953  1.00  0.00     0.000 HD 
HETATM   20  O   UNL     4     -11.545  10.816  67.297  1.00  0.00    -0.439 OA 
HETATM   21  O   UNL     4      -9.219  10.171  64.527  1.00  0.00    -0.213 OA 
HETATM   22  O   UNL     4     -10.022   8.758  66.149  1.00  0.00    -0.275 OA 
ENDBRANCH  14  17
ENDBRANCH  11  14
ENDBRANCH   8  11
ENDBRANCH   3   8
BRANCH   7  23
HETATM   23  C   UNL     5     -10.154   7.555  69.741  1.00  0.00    -0.194 C  
HETATM   24  O   UNL     5     -10.271   8.831  69.109  1.00  0.00    -0.197 OA 
HETATM   25  H   UNL     5     -10.346   9.493  69.787  1.00  0.00     0.000 HD 
BRANCH  23  26
HETATM   26  C   UNL     5     -11.354   7.284  70.675  1.00  0.00    -0.284 C  
HETATM   27  O   UNL     5     -11.295   5.920  71.149  1.00  0.00    -0.262 OA 
HETATM   28  H   UNL     5     -12.033   5.753  71.723  1.00  0.00     0.000 HD 
BRANCH  26  29
HETATM   29  C   UNL     5     -11.585   8.258  71.864  1.00  0.00    -0.315 C  
HETATM   30  O   UNL     5     -11.339   7.652  73.133  1.00  0.00    -0.573 OA 
HETATM   31  H   UNL     5     -11.480   8.247  73.860  1.00  0.00     0.000 HD 
BRANCH  29  32
HETATM   32  C   UNL     5     -12.884   9.080  71.878  1.00  0.00    -0.387 C  
HETATM   33  C   UNL     5     -12.749  10.565  71.479  1.00  0.00    -0.452 C  
HETATM   34  O   UNL     5     -13.551   8.966  73.186  1.00  0.00    -0.997 OA 
HETATM   35  O   UNL     5     -11.886  10.849  70.595  1.00  0.00    -0.327 OA 
HETATM   36  O   UNL     5     -13.501  11.348  72.161  1.00  0.00    -0.397 OA 
HETATM   37  H   UNL     5     -14.353   9.474  73.195  1.00  0.00     0.000 HD 
ENDBRANCH  29  32
ENDBRANCH  26  29
ENDBRANCH  23  26
ENDBRANCH   7  23
TORSDOF 8
ENDMDL
MODEL        2
REMARK 921   NORMALIZED FREE ENERGY PREDICTED BY IDOCK:   -7.49 KCAL/MOL
REMARK 922        TOTAL FREE ENERGY PREDICTED BY IDOCK:  -13.23 KCAL/MOL
REMARK 923 INTER-LIGAND FREE ENERGY PREDICTED BY IDOCK:  -10.85 KCAL/MOL
REMARK 924 INTRA-LIGAND FREE ENERGY PREDICTED BY IDOCK:   -2.38 KCAL/MOL
REMARK 927      BINDING AFFINITY PREDICTED BY RF-SCORE:    0.00 PKD
ROOT
HETATM    1 MG   UNL     3      -8.163  11.827  65.775  1.00  0.00    -0.283 Mg 
HETATM    2  O   UNL     4     -11.429  16.698  63.746  1.00  0.00    -1.518 OA 
HETATM    3  C   UNL     4     -10.998  15.910  64.838  1.00  0.00    -0.411 C  
HETATM    4  H   UNL     4     -10.968  17.527  63.681  1.00  0.00     0.000 HD 
HETATM    5  O   UNL     5     -10.089   4.849  68.384  1.00  0.00    -0.145 OA 
HETATM    6  H   UNL     5     -10.155   4.217  67.678  1.00  0.00     0.000 HD 
HETATM    7  C   UNL     5     -10.813   6.044  68.095  1.00  0.00    -0.281 C  
ENDROOT
BRANCH   3   8
HETATM    8  C   UNL     4     -11.743  14.572  64.942  1.00  0.00    -0.402 C  
HETATM    9  O   UNL     4     -12.237  14.191  63.644  1.00  0.00    -0.936 OA 
HETATM   10  H   UNL     4     -12.699  13.363  63.708  1.00  0.00     0.000 HD 
BRANCH   8  11
HETATM   11  C   UNL     4     -10.987  13.334  65.506  1.00  0.00    -0.282 C  
HETATM   12  O   UNL     4      -9.756  13.074  64.840  1.00  0.00    -0.529 OA 
HETATM   13  H   UNL     4      -9.295  12.319  65.186  1.00  0.00     0.000 HD 
BRANCH  11  14
HETATM   14  C   UNL     4     -10.835  13.213  67.047  1.00  0.00    -0.264 C  
HETATM   15  H   UNL     4      -9.394  12.654  68.243  1.00  0.00     0.000 HD 
HETATM   16  O   UNL     4      -9.488  12.728  67.300  1.00  0.00    -0.193 OA 
BRANCH  14  17
HETATM   17  C   UNL     4     -11.873  12.401  67.873  1.00  0.00    -0.308 C  
HETATM   18  C   UNL     4     -11.916  12.837  69.396  1.00  0.00    -0.263 C  
HETATM   19  H   UNL     4     -12.382  10.490  68.163  1.00  0.00     0.000 HD 
HETATM   20  O   UNL     4     -11.748  10.987  67.659  1.00  0.00    -0.576 OA 
HETATM   21  O   UNL     4     -11.773  14.119  69.578  1.00  0.00    -0.272 OA 
HETATM   22  O   UNL     4     -11.990  11.944  70.284  1.00  0.00    -0.344 OA 
ENDBRANCH  14  17
ENDBRANCH  11  14
ENDBRANCH   8  11
ENDBRANCH   3   8
BRANCH   7  23
HETATM   23  C   UNL     5     -10.704   7.070  69.241  1.00  0.00    -0.225 C  
HETATM   24  O   UNL     5     -11.017   8.362  68.717  1.00  0.00    -0.432 OA 
HETATM   25  H   UNL     5     -10.950   8.994  69.423  1.00  0.00     0.000 HD 
BRANCH  23  26
HETATM   26  C   UNL     5     -11.632   6.708  70.421  1.00  0.00    -0.398 C  
HETATM   27  O   UNL     5     -11.033   5.641  71.191  1.00  0.00    -0.246 OA 
HETATM   28  H   UNL     5     -11.604   5.418  71.918  1.00  0.00     0.000 HD 
BRANCH  26  29
HETATM   29  C   UNL     5     -12.096   7.856  71.361  1.00  0.00    -0.307 C  
HETATM   30  O   UNL     5     -12.661   8.959  70.653  1.00  0.00    -0.478 OA 
HETATM   31  H   UNL     5     -12.945   9.661  71.228  1.00  0.00     0.000 HD 
BRANCH  29  32
HETATM   32  C   UNL     5     -11.121   8.330  72.451  1.00  0.00    -0.377 C  
HETATM   33  C   UNL     5      -9.786   8.923  71.954  1.00  0.00    -0.294 C  
HETATM   34  O   UNL     5     -10.868   7.250  73.419  1.00  0.00    -0.432 OA 
HETATM   35  O   UNL     5      -9.813   9.576  70.869  1.00  0.00    -0.275 OA 
HETATM   36  O   UNL     5      -8.783   8.610  72.689  1.00  0.00    -0.380 OA 
HETATM   37  H   UNL     5     -10.266   7.543  74.093  1.00  0.00     0.000 HD 
ENDBRANCH  29  32
ENDBRANCH  26  29
ENDBRANCH  23  26
ENDBRANCH   7  23
TORSDOF 8
ENDMDL
MODEL        3
REMARK 921   NORMALIZED FREE ENERGY PREDICTED BY IDOCK:   -7.39 KCAL/MOL
REMARK 922        TOTAL FREE ENERGY PREDICTED BY IDOCK:  -13.10 KCAL/MOL
REMARK 923 INTER-LIGAND FREE ENERGY PREDICTED BY IDOCK:  -10.20 KCAL/MOL
REMARK 924 INTRA-LIGAND FREE ENERGY PREDICTED BY IDOCK:   -2.89 KCAL/MOL
REMARK 927      BINDING AFFINITY PREDICTED BY RF-SCORE:    0.00 PKD
ROOT
HETATM    1 MG   UNL     3      -8.376  12.193  66.725  1.00  0.00    -0.147 Mg 
HETATM    2  O   UNL     4     -11.697  16.391  63.583  1.00  0.00    -1.520 OA 
HETATM    3  C   UNL     4     -11.462  15.709  64.800  1.00  0.00    -0.283 C  
HETATM    4  H   UNL     4     -11.375  17.285  63.591  1.00  0.00     0.000 HD 
HETATM    5  O   UNL     5      -9.799   5.037  69.169  1.00  0.00    -0.161 OA 
HETATM    6  H   UNL     5      -9.566   4.390  68.514  1.00  0.00     0.000 HD 
HETATM    7  C   UNL     5     -10.598   6.084  68.619  1.00  0.00    -0.266 C  
ENDROOT
BRANCH   3   8
HETATM    8  C   UNL     4     -11.982  14.264  64.786  1.00  0.00    -0.440 C  
HETATM    9  O   UNL     4     -12.402  13.913  63.454  1.00  0.00    -1.063 OA 
HETATM   10  H   UNL     4     -12.725  13.019  63.446  1.00  0.00     0.000 HD 
BRANCH   8  11
HETATM   11  C   UNL     4     -11.039  13.123  65.266  1.00  0.00    -0.283 C  
HETATM   12  O   UNL     4      -9.700  13.267  64.803  1.00  0.00    -0.566 OA 
HETATM   13  H   UNL     4      -9.125  12.570  65.096  1.00  0.00     0.000 HD 
BRANCH  11  14
HETATM   14  C   UNL     4     -11.080  12.726  66.767  1.00  0.00    -0.277 C  
HETATM   15  H   UNL     4     -12.165  11.499  67.831  1.00  0.00     0.000 HD 
HETATM   16  O   UNL     4     -12.140  11.741  66.913  1.00  0.00    -0.566 OA 
BRANCH  14  17
HETATM   17  C   UNL     4     -11.199  13.825  67.861  1.00  0.00    -0.274 C  
HETATM   18  C   UNL     4      -9.797  14.454  68.249  1.00  0.00    -0.229 C  
HETATM   19  H   UNL     4     -12.064  14.064  69.647  1.00  0.00     0.000 HD 
HETATM   20  O   UNL     4     -11.991  13.392  68.979  1.00  0.00    -0.319 OA 
HETATM   21  O   UNL     4      -8.992  14.604  67.237  1.00  0.00    -0.184 OA 
HETATM   22  O   UNL     4      -9.539  14.667  69.466  1.00  0.00    -0.016 OA 
ENDBRANCH  14  17
ENDBRANCH  11  14
ENDBRANCH   8  11
ENDBRANCH   3   8
BRANCH   7  23
HETATM   23  C   UNL     5     -10.975   7.134  69.684  1.00  0.00    -0.212 C  
HETATM   24  O   UNL     5     -10.391   6.742  70.927  1.00  0.00    -0.198 OA 
HETATM   25  H   UNL     5     -10.623   7.389  71.583  1.00  0.00     0.000 HD 
BRANCH  23  26
HETATM   26  C   UNL     5     -10.517   8.551  69.276  1.00  0.00    -0.215 C  
HETATM   27  O   UNL     5     -11.211   8.951  68.072  1.00  0.00    -0.441 OA 
HETATM   28  H   UNL     5     -10.929   9.823  67.821  1.00  0.00     0.000 HD 
BRANCH  26  29
HETATM   29  C   UNL     5     -10.598   9.678  70.343  1.00  0.00    -0.295 C  
HETATM   30  O   UNL     5      -9.789   9.416  71.490  1.00  0.00    -0.245 OA 
HETATM   31  H   UNL     5      -9.839  10.105  72.142  1.00  0.00     0.000 HD 
BRANCH  29  32
HETATM   32  C   UNL     5     -11.992  10.187  70.746  1.00  0.00    -0.348 C  
HETATM   33  C   UNL     5     -12.795   9.278  71.701  1.00  0.00    -0.372 C  
HETATM   34  O   UNL     5     -12.791  10.498  69.550  1.00  0.00    -0.642 OA 
HETATM   35  O   UNL     5     -12.138   8.626  72.566  1.00  0.00    -0.374 OA 
HETATM   36  O   UNL     5     -14.050   9.249  71.442  1.00  0.00    -0.268 OA 
HETATM   37  H   UNL     5     -13.652  10.813  69.798  1.00  0.00     0.000 HD 
ENDBRANCH  29  32
ENDBRANCH  26  29
ENDBRANCH  23  26
ENDBRANCH   7  23
TORSDOF 8
ENDMDL
MODEL        4
REMARK 921   NORMALIZED FREE ENERGY PREDICTED BY IDOCK:   -7.32 KCAL/MOL
REMARK 922        TOTAL FREE ENERGY PREDICTED BY IDOCK:  -12.99 KCAL/MOL
REMARK 923 INTER-LIGAND FREE ENERGY PREDICTED BY IDOCK:  -10.73 KCAL/MOL
REMARK 924 INTRA-LIGAND FREE ENERGY PREDICTED BY IDOCK:   -2.26 KCAL/MOL
REMARK 927      BINDING AFFINITY PREDICTED BY RF-SCORE:    0.00 PKD
ROOT
HETATM    1 MG   UNL     3     -13.092  14.302  69.354  1.00  0.00    -0.522 Mg 
HETATM    2  O   UNL     4     -11.490  16.319  63.708  1.00  0.00    -1.475 OA 
HETATM    3  C   UNL     4     -12.255  15.425  64.494  1.00  0.00    -0.124 C  
HETATM    4  H   UNL     4     -12.007  17.027  63.343  1.00  0.00     0.000 HD 
HETATM    5  O   UNL     5     -11.376   8.009  73.437  1.00  0.00    -0.403 OA 
HETATM    6  H   UNL     5     -10.591   8.132  73.957  1.00  0.00     0.000 HD 
HETATM    7  C   UNL     5     -11.181   8.406  72.080  1.00  0.00    -0.361 C  
ENDROOT
BRANCH   3   8
HETATM    8  C   UNL     4     -11.418  14.280  65.083  1.00  0.00    -0.351 C  
HETATM    9  O   UNL     4     -10.121  14.257  64.457  1.00  0.00    -0.628 OA 
HETATM   10  H   UNL     4      -9.603  13.548  64.822  1.00  0.00     0.000 HD 
BRANCH   8  11
HETATM   11  C   UNL     4     -11.168  14.247  66.619  1.00  0.00    -0.334 C  
HETATM   12  O   UNL     4     -11.592  13.034  67.232  1.00  0.00    -0.315 OA 
HETATM   13  H   UNL     4     -11.438  13.015  68.170  1.00  0.00     0.000 HD 
BRANCH  11  14
HETATM   14  C   UNL     4      -9.773  14.688  67.139  1.00  0.00    -0.235 C  
HETATM   15  H   UNL     4      -8.808  14.475  68.825  1.00  0.00     0.000 HD 
HETATM   16  O   UNL     4      -9.661  14.205  68.506  1.00  0.00    -0.219 OA 
BRANCH  14  17
HETATM   17  C   UNL     4      -9.343  16.180  67.050  1.00  0.00    -0.218 C  
HETATM   18  C   UNL     4     -10.497  17.175  67.486  1.00  0.00    -0.348 C  
HETATM   19  H   UNL     4      -8.466  17.403  65.734  1.00  0.00     0.000 HD 
HETATM   20  O   UNL     4      -8.729  16.492  65.789  1.00  0.00    -0.460 OA 
HETATM   21  O   UNL     4     -11.209  16.744  68.487  1.00  0.00    -0.319 OA 
HETATM   22  O   UNL     4     -10.692  18.219  66.805  1.00  0.00    -0.342 OA 
ENDBRANCH  14  17
ENDBRANCH  11  14
ENDBRANCH   8  11
ENDBRANCH   3   8
BRANCH   7  23
HETATM   23  C   UNL     5     -12.456   8.206  71.237  1.00  0.00    -0.252 C  
HETATM   24  O   UNL     5     -13.076   6.985  71.644  1.00  0.00    -0.377 OA 
HETATM   25  H   UNL     5     -13.862   6.862  71.125  1.00  0.00     0.000 HD 
BRANCH  23  26
HETATM   26  C   UNL     5     -13.428   9.398  71.379  1.00  0.00    -0.332 C  
HETATM   27  O   UNL     5     -13.549   9.753  72.775  1.00  0.00    -0.636 OA 
HETATM   28  H   UNL     5     -14.147  10.487  72.863  1.00  0.00     0.000 HD 
BRANCH  26  29
HETATM   29  C   UNL     5     -13.153  10.666  70.523  1.00  0.00    -0.110 C  
HETATM   30  O   UNL     5     -12.639  10.362  69.227  1.00  0.00    -0.686 OA 
HETATM   31  H   UNL     5     -12.472  11.137  68.704  1.00  0.00     0.000 HD 
BRANCH  29  32
HETATM   32  C   UNL     5     -12.376  11.820  71.177  1.00  0.00    -0.224 C  
HETATM   33  C   UNL     5     -13.228  12.890  71.892  1.00  0.00    -0.423 C  
HETATM   34  O   UNL     5     -11.481  12.457  70.197  1.00  0.00    -0.519 OA 
HETATM   35  O   UNL     5     -14.284  12.496  72.470  1.00  0.00    -0.194 OA 
HETATM   36  O   UNL     5     -12.778  14.082  71.747  1.00  0.00    -0.325 OA 
HETATM   37  H   UNL     5     -11.000  13.170  70.601  1.00  0.00     0.000 HD 
ENDBRANCH  29  32
ENDBRANCH  26  29
ENDBRANCH  23  26
ENDBRANCH   7  23
TORSDOF 8
ENDMDL
MODEL        5
REMARK 921   NORMALIZED FREE ENERGY PREDICTED BY IDOCK:   -7.24 KCAL/MOL
REMARK 922        TOTAL FREE ENERGY PREDICTED BY IDOCK:  -12.87 KCAL/MOL
REMARK 923 INTER-LIGAND FREE ENERGY PREDICTED BY IDOCK:  -10.24 KCAL/MOL
REMARK 924 INTRA-LIGAND FREE ENERGY PREDICTED BY IDOCK:   -2.63 KCAL/MOL
REMARK 927      BINDING AFFINITY PREDICTED BY RF-SCORE:    0.00 PKD
ROOT
HETATM    1 MG   UNL     3      -8.232  11.226  64.355  1.00  0.00    -0.340 Mg 
HETATM    2  O   UNL     4     -11.558  16.426  63.713  1.00  0.00    -1.605 OA 
HETATM    3  C   UNL     4     -10.979  15.467  64.578  1.00  0.00    -0.206 C  
HETATM    4  H   UNL     4     -11.075  17.244  63.690  1.00  0.00     0.000 HD 
HETATM    5  O   UNL     5     -10.012   3.970  66.199  1.00  0.00    -0.329 OA 
HETATM    6  H   UNL     5     -10.235   3.458  65.431  1.00  0.00     0.000 HD 
HETATM    7  C   UNL     5     -10.715   5.212  66.230  1.00  0.00    -0.209 C  
ENDROOT
BRANCH   3   8
HETATM    8  C   UNL     4     -11.761  14.146  64.615  1.00  0.00    -0.417 C  
HETATM    9  O   UNL     4     -12.580  14.035  63.436  1.00  0.00    -1.056 OA 
HETATM   10  H   UNL     4     -13.065  13.218  63.459  1.00  0.00     0.000 HD 
BRANCH   8  11
HETATM   11  C   UNL     4     -10.971  12.810  64.730  1.00  0.00    -0.305 C  
HETATM   12  O   UNL     4      -9.880  12.721  63.820  1.00  0.00    -0.679 OA 
HETATM   13  H   UNL     4      -9.398  11.905  63.890  1.00  0.00     0.000 HD 
BRANCH  11  14
HETATM   14  C   UNL     4     -10.567  12.323  66.148  1.00  0.00    -0.249 C  
HETATM   15  H   UNL     4      -9.019  12.605  67.305  1.00  0.00     0.000 HD 
HETATM   16  O   UNL     4      -9.266  12.904  66.438  1.00  0.00    -0.221 OA 
BRANCH  14  17
HETATM   17  C   UNL     4     -10.574  10.803  66.482  1.00  0.00    -0.218 C  
HETATM   18  C   UNL     4     -11.191  10.495  67.908  1.00  0.00    -0.289 C  
HETATM   19  H   UNL     4      -9.303   9.261  66.440  1.00  0.00     0.000 HD 
HETATM   20  O   UNL     4      -9.299  10.189  66.236  1.00  0.00    -0.161 OA 
HETATM   21  O   UNL     4     -12.207  11.251  68.214  1.00  0.00    -0.611 OA 
HETATM   22  O   UNL     4     -10.624   9.644  68.648  1.00  0.00    -0.210 OA 
ENDBRANCH  14  17
ENDBRANCH  11  14
ENDBRANCH   8  11
ENDBRANCH   3   8
BRANCH   7  23
HETATM   23  C   UNL     5     -10.353   6.043  67.478  1.00  0.00    -0.210 C  
HETATM   24  O   UNL     5     -11.184   7.205  67.499  1.00  0.00    -0.556 OA 
HETATM   25  H   UNL     5     -10.960   7.717  68.267  1.00  0.00     0.000 HD 
BRANCH  23  26
HETATM   26  C   UNL     5     -10.511   5.223  68.776  1.00  0.00    -0.095 C  
HETATM   27  O   UNL     5      -9.282   4.509  69.044  1.00  0.00    -0.114 OA 
HETATM   28  H   UNL     5      -9.379   4.004  69.844  1.00  0.00     0.000 HD 
BRANCH  26  29
HETATM   29  C   UNL     5     -10.990   5.967  70.053  1.00  0.00    -0.380 C  
HETATM   30  O   UNL     5     -12.209   6.683  69.854  1.00  0.00    -0.598 OA 
HETATM   31  H   UNL     5     -12.503   7.138  70.635  1.00  0.00     0.000 HD 
BRANCH  29  32
HETATM   32  C   UNL     5      -9.962   6.814  70.821  1.00  0.00    -0.187 C  
HETATM   33  C   UNL     5     -10.534   7.762  71.896  1.00  0.00    -0.220 C  
HETATM   34  O   UNL     5      -9.112   7.565  69.883  1.00  0.00    -0.144 OA 
HETATM   35  O   UNL     5     -11.556   7.365  72.531  1.00  0.00    -0.298 OA 
HETATM   36  O   UNL     5      -9.924   8.888  71.961  1.00  0.00    -0.329 OA 
HETATM   37  H   UNL     5      -8.477   8.088  70.357  1.00  0.00     0.000 HD 
ENDBRANCH  29  32
ENDBRANCH  26  29
ENDBRANCH  23  26
ENDBRANCH   7  23
TORSDOF 8
ENDMDL
MODEL        6
REMARK 921   NORMALIZED FREE ENERGY PREDICTED BY IDOCK:   -7.16 KCAL/MOL
REMARK 922        TOTAL FREE ENERGY PREDICTED BY IDOCK:  -12.75 KCAL/MOL
REMARK 923 INTER-LIGAND FREE ENERGY PREDICTED BY IDOCK:   -9.80 KCAL/MOL
REMARK 924 INTRA-LIGAND FREE ENERGY PREDICTED BY IDOCK:   -2.96 KCAL/MOL
REMARK 927      BINDING AFFINITY PREDICTED BY RF-SCORE:    0.00 PKD
ROOT
HETATM    1 MG   UNL     3      -8.238  13.780  68.136  1.00  0.00    -0.111 Mg 
HETATM    2  O   UNL     4     -11.735   8.946  69.846  1.00  0.00    -0.443 OA 
HETATM    3  C   UNL     4     -11.408   9.905  68.859  1.00  0.00    -0.007 C  
HETATM    4  H   UNL     4     -11.395   8.080  69.649  1.00  0.00     0.000 HD 
HETATM    5  O   UNL     5      -9.586  21.320  67.400  1.00  0.00    -0.581 OA 
HETATM    6  H   UNL     5      -9.424  21.786  68.212  1.00  0.00     0.000 HD 
HETATM    7  C   UNL     5     -10.408  20.171  67.603  1.00  0.00    -0.325 C  
ENDROOT
BRANCH   3   8
HETATM    8  C   UNL     4     -11.957  11.303  69.179  1.00  0.00    -0.336 C  
HETATM    9  O   UNL     4     -11.971  11.503  70.605  1.00  0.00    -0.363 OA 
HETATM   10  H   UNL     4     -12.311  12.368  70.803  1.00  0.00     0.000 HD 
BRANCH   8  11
HETATM   11  C   UNL     4     -11.246  12.546  68.567  1.00  0.00    -0.283 C  
HETATM   12  O   UNL     4      -9.923  12.735  69.057  1.00  0.00    -0.417 OA 
HETATM   13  H   UNL     4      -9.489  13.494  68.683  1.00  0.00     0.000 HD 
BRANCH  11  14
HETATM   14  C   UNL     4     -11.314  12.739  67.028  1.00  0.00    -0.314 C  
HETATM   15  H   UNL     4      -9.983  12.902  65.607  1.00  0.00     0.000 HD 
HETATM   16  O   UNL     4      -9.942  12.784  66.548  1.00  0.00    -0.241 OA 
BRANCH  14  17
HETATM   17  C   UNL     4     -12.142  13.910  66.425  1.00  0.00    -0.455 C  
HETATM   18  C   UNL     4     -12.654  13.601  64.957  1.00  0.00    -0.390 C  
HETATM   19  H   UNL     4     -11.985  15.890  66.206  1.00  0.00     0.000 HD 
HETATM   20  O   UNL     4     -11.479  15.175  66.574  1.00  0.00    -0.291 OA 
HETATM   21  O   UNL     4     -13.018  12.364  64.778  1.00  0.00    -0.786 OA 
HETATM   22  O   UNL     4     -12.588  14.510  64.084  1.00  0.00    -0.730 OA 
ENDBRANCH  14  17
ENDBRANCH  11  14
ENDBRANCH   8  11
ENDBRANCH   3   8
BRANCH   7  23
HETATM   23  C   UNL     5     -10.670  19.415  66.285  1.00  0.00    -0.411 C  
HETATM   24  O   UNL     5     -10.048  20.140  65.222  1.00  0.00    -0.332 OA 
HETATM   25  H   UNL     5     -10.210  19.674  64.410  1.00  0.00     0.000 HD 
BRANCH  23  26
HETATM   26  C   UNL     5     -10.151  17.962  66.346  1.00  0.00    -0.369 C  
HETATM   27  O   UNL     5     -10.511  17.273  65.128  1.00  0.00    -0.656 OA 
HETATM   28  H   UNL     5     -10.191  16.379  65.166  1.00  0.00     0.000 HD 
BRANCH  26  29
HETATM   29  C   UNL     5      -8.646  17.740  66.666  1.00  0.00    -0.258 C  
HETATM   30  O   UNL     5      -7.783  18.211  65.632  1.00  0.00    -0.532 OA 
HETATM   31  H   UNL     5      -6.863  18.076  65.827  1.00  0.00     0.000 HD 
BRANCH  29  32
HETATM   32  C   UNL     5      -8.215  16.353  67.167  1.00  0.00    -0.180 C  
HETATM   33  C   UNL     5      -6.717  16.189  67.501  1.00  0.00    -0.169 C  
HETATM   34  O   UNL     5      -8.640  15.309  66.220  1.00  0.00    -0.426 OA 
HETATM   35  O   UNL     5      -6.119  17.197  67.983  1.00  0.00    -0.126 OA 
HETATM   36  O   UNL     5      -6.243  15.044  67.173  1.00  0.00    -0.264 OA 
HETATM   37  H   UNL     5      -8.374  14.451  66.530  1.00  0.00     0.000 HD 
ENDBRANCH  29  32
ENDBRANCH  26  29
ENDBRANCH  23  26
ENDBRANCH   7  23
TORSDOF 8
ENDMDL
MODEL        7
REMARK 921   NORMALIZED FREE ENERGY PREDICTED BY IDOCK:   -7.16 KCAL/MOL
REMARK 922        TOTAL FREE ENERGY PREDICTED BY IDOCK:  -12.75 KCAL/MOL
REMARK 923 INTER-LIGAND FREE ENERGY PREDICTED BY IDOCK:   -9.73 KCAL/MOL
REMARK 924 INTRA-LIGAND FREE ENERGY PREDICTED BY IDOCK:   -3.02 KCAL/MOL
REMARK 927      BINDING AFFINITY PREDICTED BY RF-SCORE:    0.00 PKD
ROOT
HETATM    1 MG   UNL     3      -8.232  11.586  65.181  1.00  0.00    -0.344 Mg 
HETATM    2  O   UNL     4     -11.623  16.626  63.907  1.00  0.00    -1.582 OA 
HETATM    3  C   UNL     4     -11.188  15.679  64.863  1.00  0.00    -0.369 C  
HETATM    4  H   UNL     4     -11.190  17.467  63.995  1.00  0.00     0.000 HD 
HETATM    5  O   UNL     5      -9.968   4.211  66.527  1.00  0.00    -0.286 OA 
HETATM    6  H   UNL     5      -9.996   3.706  65.724  1.00  0.00     0.000 HD 
HETATM    7  C   UNL     5     -10.727   5.416  66.423  1.00  0.00    -0.217 C  
ENDROOT
BRANCH   3   8
HETATM    8  C   UNL     4     -11.888  14.319  64.720  1.00  0.00    -0.429 C  
HETATM    9  O   UNL     4     -12.283  14.121  63.350  1.00  0.00    -1.049 OA 
HETATM   10  H   UNL     4     -12.717  13.279  63.261  1.00  0.00     0.000 HD 
BRANCH   8  11
HETATM   11  C   UNL     4     -11.124  13.033  65.149  1.00  0.00    -0.292 C  
HETATM   12  O   UNL     4     -10.005  12.739  64.319  1.00  0.00    -0.579 OA 
HETATM   13  H   UNL     4      -9.539  11.954  64.581  1.00  0.00     0.000 HD 
BRANCH  11  14
HETATM   14  C   UNL     4     -10.774  12.860  66.652  1.00  0.00    -0.265 C  
HETATM   15  H   UNL     4      -9.546  11.716  67.652  1.00  0.00     0.000 HD 
HETATM   16  O   UNL     4      -9.760  11.822  66.732  1.00  0.00    -0.192 OA 
BRANCH  14  17
HETATM   17  C   UNL     4     -11.903  12.603  67.691  1.00  0.00    -0.329 C  
HETATM   18  C   UNL     4     -11.900  13.662  68.870  1.00  0.00    -0.364 C  
HETATM   19  H   UNL     4     -12.634  11.075  68.752  1.00  0.00     0.000 HD 
HETATM   20  O   UNL     4     -11.944  11.233  68.118  1.00  0.00    -0.610 OA 
HETATM   21  O   UNL     4     -11.607  14.872  68.487  1.00  0.00    -0.297 OA 
HETATM   22  O   UNL     4     -12.080  13.260  70.052  1.00  0.00    -0.322 OA 
ENDBRANCH  14  17
ENDBRANCH  11  14
ENDBRANCH   8  11
ENDBRANCH   3   8
BRANCH   7  23
HETATM   23  C   UNL     5     -10.681   6.236  67.727  1.00  0.00    -0.306 C  
HETATM   24  O   UNL     5      -9.615   5.733  68.535  1.00  0.00    -0.120 OA 
HETATM   25  H   UNL     5      -9.587   6.239  69.339  1.00  0.00     0.000 HD 
BRANCH  23  26
HETATM   26  C   UNL     5     -10.503   7.744  67.447  1.00  0.00    -0.292 C  
HETATM   27  O   UNL     5     -10.893   8.498  68.618  1.00  0.00    -0.420 OA 
HETATM   28  H   UNL     5     -10.784   9.426  68.445  1.00  0.00     0.000 HD 
BRANCH  26  29
HETATM   29  C   UNL     5      -9.120   8.230  66.931  1.00  0.00    -0.150 C  
HETATM   30  O   UNL     5      -8.561   9.270  67.733  1.00  0.00    -0.117 OA 
HETATM   31  H   UNL     5      -7.715   9.567  67.417  1.00  0.00     0.000 HD 
BRANCH  29  32
HETATM   32  C   UNL     5      -8.982   8.544  65.432  1.00  0.00    -0.099 C  
HETATM   33  C   UNL     5      -7.554   8.846  64.933  1.00  0.00    -0.108 C  
HETATM   34  O   UNL     5      -9.895   9.633  65.048  1.00  0.00    -0.423 OA 
HETATM   35  O   UNL     5      -6.603   8.221  65.490  1.00  0.00    -0.049 OA 
HETATM   36  O   UNL     5      -7.508   9.767  64.042  1.00  0.00    -0.120 OA 
HETATM   37  H   UNL     5      -9.810   9.827  64.123  1.00  0.00     0.000 HD 
ENDBRANCH  29  32
ENDBRANCH  26  29
ENDBRANCH  23  26
ENDBRANCH   7  23
TORSDOF 8
ENDMDL
MODEL        8
REMARK 921   NORMALIZED FREE ENERGY PREDICTED BY IDOCK:   -7.15 KCAL/MOL
REMARK 922        TOTAL FREE ENERGY PREDICTED BY IDOCK:  -12.74 KCAL/MOL
REMARK 923 INTER-LIGAND FREE ENERGY PREDICTED BY IDOCK:  -11.14 KCAL/MOL
REMARK 924 INTRA-LIGAND FREE ENERGY PREDICTED BY IDOCK:   -1.60 KCAL/MOL
REMARK 927      BINDING AFFINITY PREDICTED BY RF-SCORE:    0.00 PKD
ROOT
HETATM    1 MG   UNL     3      -8.324  11.671  65.989  1.00  0.00    -0.165 Mg 
HETATM    2  O   UNL     4     -11.687  16.355  63.694  1.00  0.00    -1.520 OA 
HETATM    3  C   UNL     4     -11.220  15.654  64.830  1.00  0.00    -0.369 C  
HETATM    4  H   UNL     4     -11.236  17.180  63.557  1.00  0.00     0.000 HD 
HETATM    5  O   UNL     5     -10.118   4.892  69.157  1.00  0.00    -0.199 OA 
HETATM    6  H   UNL     5     -10.197   4.209  68.501  1.00  0.00     0.000 HD 
HETATM    7  C   UNL     5     -10.860   6.057  68.799  1.00  0.00    -0.322 C  
ENDROOT
BRANCH   3   8
HETATM    8  C   UNL     4     -11.951  14.321  65.052  1.00  0.00    -0.410 C  
HETATM    9  O   UNL     4     -11.965  13.567  63.825  1.00  0.00    -0.568 OA 
HETATM   10  H   UNL     4     -12.417  12.742  63.963  1.00  0.00     0.000 HD 
BRANCH   8  11
HETATM   11  C   UNL     4     -11.431  13.356  66.157  1.00  0.00    -0.327 C  
HETATM   12  O   UNL     4     -10.614  12.307  65.650  1.00  0.00    -0.246 OA 
HETATM   13  H   UNL     4     -10.297  11.718  66.325  1.00  0.00     0.000 HD 
BRANCH  11  14
HETATM   14  C   UNL     4     -10.820  13.980  67.441  1.00  0.00    -0.282 C  
HETATM   15  H   UNL     4      -9.478  13.406  68.740  1.00  0.00     0.000 HD 
HETATM   16  O   UNL     4      -9.852  13.024  67.954  1.00  0.00    -0.211 OA 
BRANCH  14  17
HETATM   17  C   UNL     4     -11.749  14.483  68.582  1.00  0.00    -0.329 C  
HETATM   18  C   UNL     4     -11.350  15.926  69.103  1.00  0.00    -0.366 C  
HETATM   19  H   UNL     4     -12.487  13.807  70.313  1.00  0.00     0.000 HD 
HETATM   20  O   UNL     4     -11.919  13.500  69.616  1.00  0.00    -0.310 OA 
HETATM   21  O   UNL     4     -10.954  16.732  68.160  1.00  0.00    -0.356 OA 
HETATM   22  O   UNL     4     -11.356  16.150  70.345  1.00  0.00    -0.359 OA 
ENDBRANCH  14  17
ENDBRANCH  11  14
ENDBRANCH   8  11
ENDBRANCH   3   8
BRANCH   7  23
HETATM   23  C   UNL     5     -10.731   7.166  69.864  1.00  0.00    -0.239 C  
HETATM   24  O   UNL     5     -11.078   8.412  69.257  1.00  0.00    -0.432 OA 
HETATM   25  H   UNL     5     -10.999   9.095  69.912  1.00  0.00     0.000 HD 
BRANCH  23  26
HETATM   26  C   UNL     5     -11.617   6.880  71.096  1.00  0.00    -0.319 C  
HETATM   27  O   UNL     5     -11.212   5.630  71.698  1.00  0.00    -0.231 OA 
HETATM   28  H   UNL     5     -11.757   5.455  72.457  1.00  0.00     0.000 HD 
BRANCH  26  29
HETATM   29  C   UNL     5     -11.734   7.988  72.180  1.00  0.00    -0.344 C  
HETATM   30  O   UNL     5     -11.575   7.486  73.506  1.00  0.00    -0.568 OA 
HETATM   31  H   UNL     5     -11.646   8.163  74.169  1.00  0.00     0.000 HD 
BRANCH  29  32
HETATM   32  C   UNL     5     -12.920   8.961  72.088  1.00  0.00    -0.416 C  
HETATM   33  C   UNL     5     -12.574  10.415  71.704  1.00  0.00    -0.417 C  
HETATM   34  O   UNL     5     -13.702   8.939  73.336  1.00  0.00    -1.094 OA 
HETATM   35  O   UNL     5     -11.614  10.586  70.895  1.00  0.00    -0.338 OA 
HETATM   36  O   UNL     5     -13.280  11.289  72.323  1.00  0.00    -0.402 OA 
HETATM   37  H   UNL     5     -14.435   9.540  73.279  1.00  0.00     0.000 HD 
ENDBRANCH  29  32
ENDBRANCH  26  29
ENDBRANCH  23  26
ENDBRANCH   7  23
TORSDOF 8
ENDMDL
MODEL        9
REMARK 921   NORMALIZED FREE ENERGY PREDICTED BY IDOCK:   -7.15 KCAL/MOL
REMARK 922        TOTAL FREE ENERGY PREDICTED BY IDOCK:  -12.73 KCAL/MOL
REMARK 923 INTER-LIGAND FREE ENERGY PREDICTED BY IDOCK:  -10.64 KCAL/MOL
REMARK 924 INTRA-LIGAND FREE ENERGY PREDICTED BY IDOCK:   -2.09 KCAL/MOL
REMARK 927      BINDING AFFINITY PREDICTED BY RF-SCORE:    0.00 PKD
ROOT
HETATM    1 MG   UNL     3     -12.524  11.968  68.872  1.00  0.00    -0.289 Mg 
HETATM    2  O   UNL     4     -12.335  13.730  62.924  1.00  0.00    -1.008 OA 
HETATM    3  C   UNL     4     -12.744  12.774  63.883  1.00  0.00    -0.194 C  
HETATM    4  H   UNL     4     -13.050  14.274  62.616  1.00  0.00     0.000 HD 
HETATM    5  O   UNL     5      -8.805   6.605  72.949  1.00  0.00    -0.126 OA 
HETATM    6  H   UNL     5      -7.995   6.941  73.314  1.00  0.00     0.000 HD 
HETATM    7  C   UNL     5      -8.922   6.903  71.558  1.00  0.00    -0.140 C  
ENDROOT
BRANCH   3   8
HETATM    8  C   UNL     4     -11.587  11.895  64.381  1.00  0.00    -0.292 C  
HETATM    9  O   UNL     4     -11.140  11.033  63.317  1.00  0.00    -0.734 OA 
HETATM   10  H   UNL     4     -10.425  10.489  63.626  1.00  0.00     0.000 HD 
BRANCH   8  11
HETATM   11  C   UNL     4     -10.315  12.583  64.955  1.00  0.00    -0.299 C  
HETATM   12  O   UNL     4      -9.769  13.571  64.087  1.00  0.00    -0.627 OA 
HETATM   13  H   UNL     4      -8.993  13.991  64.437  1.00  0.00     0.000 HD 
BRANCH  11  14
HETATM   14  C   UNL     4     -10.356  13.082  66.425  1.00  0.00    -0.281 C  
HETATM   15  H   UNL     4     -10.928  12.302  68.122  1.00  0.00     0.000 HD 
HETATM   16  O   UNL     4     -10.902  11.996  67.223  1.00  0.00    -0.227 OA 
BRANCH  14  17
HETATM   17  C   UNL     4     -11.060  14.425  66.774  1.00  0.00    -0.323 C  
HETATM   18  C   UNL     4     -10.051  15.646  66.828  1.00  0.00    -0.272 C  
HETATM   19  H   UNL     4     -12.348  15.125  68.132  1.00  0.00     0.000 HD 
HETATM   20  O   UNL     4     -11.917  14.305  67.920  1.00  0.00    -0.356 OA 
HETATM   21  O   UNL     4      -9.119  15.597  65.920  1.00  0.00    -0.335 OA 
HETATM   22  O   UNL     4     -10.163  16.489  67.760  1.00  0.00    -0.261 OA 
ENDBRANCH  14  17
ENDBRANCH  11  14
ENDBRANCH   8  11
ENDBRANCH   3   8
BRANCH   7  23
HETATM   23  C   UNL     5     -10.236   6.356  70.964  1.00  0.00    -0.192 C  
HETATM   24  O   UNL     5     -10.707   5.305  71.811  1.00  0.00    -0.223 OA 
HETATM   25  H   UNL     5     -11.516   4.969  71.445  1.00  0.00     0.000 HD 
BRANCH  23  26
HETATM   26  C   UNL     5     -11.299   7.466  70.812  1.00  0.00    -0.280 C  
HETATM   27  O   UNL     5     -12.449   6.936  70.115  1.00  0.00    -0.602 OA 
HETATM   28  H   UNL     5     -13.103   7.619  70.021  1.00  0.00     0.000 HD 
BRANCH  26  29
HETATM   29  C   UNL     5     -11.748   8.224  72.093  1.00  0.00    -0.365 C  
HETATM   30  O   UNL     5     -11.783   7.389  73.249  1.00  0.00    -0.547 OA 
HETATM   31  H   UNL     5     -12.058   7.852  74.032  1.00  0.00     0.000 HD 
BRANCH  29  32
HETATM   32  C   UNL     5     -13.003   9.108  72.002  1.00  0.00    -0.424 C  
HETATM   33  C   UNL     5     -12.773  10.564  71.545  1.00  0.00    -0.452 C  
HETATM   34  O   UNL     5     -13.740   9.086  73.276  1.00  0.00    -1.072 OA 
HETATM   35  O   UNL     5     -11.854  10.765  70.697  1.00  0.00    -0.318 OA 
HETATM   36  O   UNL     5     -13.519  11.413  72.152  1.00  0.00    -0.397 OA 
HETATM   37  H   UNL     5     -14.515   9.631  73.220  1.00  0.00     0.000 HD 
ENDBRANCH  29  32
ENDBRANCH  26  29
ENDBRANCH  23  26
ENDBRANCH   7  23
TORSDOF 8
ENDMDL
MODEL       10
REMARK 921   NORMALIZED FREE ENERGY PREDICTED BY IDOCK:   -7.11 KCAL/MOL
REMARK 922        TOTAL FREE ENERGY PREDICTED BY IDOCK:  -12.68 KCAL/MOL
REMARK 923 INTER-LIGAND FREE ENERGY PREDICTED BY IDOCK:  -10.61 KCAL/MOL
REMARK 924 INTRA-LIGAND FREE ENERGY PREDICTED BY IDOCK:   -2.07 KCAL/MOL
REMARK 927      BINDING AFFINITY PREDICTED BY RF-SCORE:    0.00 PKD
ROOT
HETATM    1 MG   UNL     3     -12.111  10.301  68.890  1.00  0.00    -0.386 Mg 
HETATM    2  O   UNL     4     -13.599  15.322  72.220  1.00  0.00    -0.396 OA 
HETATM    3  C   UNL     4     -13.680  14.626  70.991  1.00  0.00    -0.224 C  
HETATM    4  H   UNL     4     -14.404  15.279  72.724  1.00  0.00     0.000 HD 
HETATM    5  O   UNL     5      -7.114   8.993  63.186  1.00  0.00    -0.090 OA 
HETATM    6  H   UNL     5      -6.261   8.741  63.519  1.00  0.00     0.000 HD 
HETATM    7  C   UNL     5      -7.610  10.165  63.834  1.00  0.00    -0.128 C  
ENDROOT
BRANCH   3   8
HETATM    8  C   UNL     4     -12.378  14.696  70.178  1.00  0.00    -0.336 C  
HETATM    9  O   UNL     4     -12.512  13.904  68.983  1.00  0.00    -0.439 OA 
HETATM   10  H   UNL     4     -11.707  13.947  68.480  1.00  0.00     0.000 HD 
BRANCH   8  11
HETATM   11  C   UNL     4     -11.848  16.088  69.729  1.00  0.00    -0.227 C  
HETATM   12  O   UNL     4     -11.236  16.824  70.783  1.00  0.00    -0.436 OA 
HETATM   13  H   UNL     4     -10.912  17.674  70.508  1.00  0.00     0.000 HD 
BRANCH  11  14
HETATM   14  C   UNL     4     -11.009  16.162  68.424  1.00  0.00    -0.341 C  
HETATM   15  H   UNL     4      -9.300  15.411  67.849  1.00  0.00     0.000 HD 
HETATM   16  O   UNL     4      -9.813  15.366  68.647  1.00  0.00    -0.197 OA 
BRANCH  14  17
HETATM   17  C   UNL     4     -10.640  17.543  67.811  1.00  0.00    -0.375 C  
HETATM   18  C   UNL     4     -10.119  17.429  66.319  1.00  0.00    -0.322 C  
HETATM   19  H   UNL     4      -9.571  19.158  68.308  1.00  0.00     0.000 HD 
HETATM   20  O   UNL     4      -9.796  18.314  68.682  1.00  0.00    -0.350 OA 
HETATM   21  O   UNL     4     -10.745  16.531  65.613  1.00  0.00    -0.331 OA 
HETATM   22  O   UNL     4      -9.122  18.118  65.966  1.00  0.00    -0.513 OA 
ENDBRANCH  14  17
ENDBRANCH  11  14
ENDBRANCH   8  11
ENDBRANCH   3   8
BRANCH   7  23
HETATM   23  C   UNL     5      -8.995  10.574  63.294  1.00  0.00    -0.229 C  
HETATM   24  O   UNL     5      -9.589   9.431  62.674  1.00  0.00    -0.531 OA 
HETATM   25  H   UNL     5     -10.443   9.683  62.341  1.00  0.00     0.000 HD 
BRANCH  23  26
HETATM   26  C   UNL     5      -9.901  11.135  64.411  1.00  0.00    -0.284 C  
HETATM   27  O   UNL     5      -9.196  12.178  65.121  1.00  0.00    -0.425 OA 
HETATM   28  H   UNL     5      -9.753  12.523  65.809  1.00  0.00     0.000 HD 
BRANCH  26  29
HETATM   29  C   UNL     5     -11.325  11.618  64.019  1.00  0.00    -0.345 C  
HETATM   30  O   UNL     5     -11.711  11.206  62.708  1.00  0.00    -0.613 OA 
HETATM   31  H   UNL     5     -12.582  11.501  62.469  1.00  0.00     0.000 HD 
BRANCH  29  32
HETATM   32  C   UNL     5     -11.678  13.093  64.269  1.00  0.00    -0.395 C  
HETATM   33  C   UNL     5     -12.451  13.393  65.570  1.00  0.00    -0.483 C  
HETATM   34  O   UNL     5     -12.395  13.653  63.112  1.00  0.00    -1.045 OA 
HETATM   35  O   UNL     5     -12.182  12.677  66.580  1.00  0.00    -0.517 OA 
HETATM   36  O   UNL     5     -13.339  14.309  65.437  1.00  0.00    -0.649 OA 
HETATM   37  H   UNL     5     -12.613  14.565  63.266  1.00  0.00     0.000 HD 
ENDBRANCH  29  32
ENDBRANCH  26  29
ENDBRANCH  23  26
ENDBRANCH   7  23
TORSDOF 8
ENDMDL
MODEL       11
REMARK 921   NORMALIZED FREE ENERGY PREDICTED BY IDOCK:   -6.98 KCAL/MOL
REMARK 922        TOTAL FREE ENERGY PREDICTED BY IDOCK:  -12.49 KCAL/MOL
REMARK 923 INTER-LIGAND FREE ENERGY PREDICTED BY IDOCK:   -9.85 KCAL/MOL
REMARK 924 INTRA-LIGAND FREE ENERGY PREDICTED BY IDOCK:   -2.64 KCAL/MOL
REMARK 927      BINDING AFFINITY PREDICTED BY RF-SCORE:    0.00 PKD
ROOT
HETATM    1 MG   UNL     3     -11.402  16.305  66.908  1.00  0.00    -0.288 Mg 
HETATM    2  O   UNL     4      -9.455  11.964  62.922  1.00  0.00    -0.544 OA 
HETATM    3  C   UNL     4     -10.481  12.446  63.769  1.00  0.00    -0.443 C  
HETATM    4  H   UNL     4      -9.633  12.117  62.001  1.00  0.00     0.000 HD 
HETATM    5  O   UNL     5     -12.351  16.471  74.542  1.00  0.00    -0.710 OA 
HETATM    6  H   UNL     5     -11.558  16.747  74.988  1.00  0.00     0.000 HD 
HETATM    7  C   UNL     5     -12.091  15.442  73.588  1.00  0.00    -0.522 C  
ENDROOT
BRANCH   3   8
HETATM    8  C   UNL     4     -10.193  12.199  65.258  1.00  0.00    -0.274 C  
HETATM    9  O   UNL     4     -11.122  12.950  66.062  1.00  0.00    -0.273 OA 
HETATM   10  H   UNL     4     -10.944  12.797  66.982  1.00  0.00     0.000 HD 
BRANCH   8  11
HETATM   11  C   UNL     4     -10.226  10.738  65.795  1.00  0.00    -0.257 C  
HETATM   12  O   UNL     4      -9.806   9.775  64.834  1.00  0.00    -0.399 OA 
HETATM   13  H   UNL     4      -9.826   8.884  65.163  1.00  0.00     0.000 HD 
BRANCH  11  14
HETATM   14  C   UNL     4      -9.600  10.460  67.188  1.00  0.00    -0.164 C  
HETATM   15  H   UNL     4      -7.953   9.608  67.805  1.00  0.00     0.000 HD 
HETATM   16  O   UNL     4      -8.337   9.778  66.953  1.00  0.00    -0.119 OA 
BRANCH  14  17
HETATM   17  C   UNL     4     -10.424   9.722  68.281  1.00  0.00    -0.216 C  
HETATM   18  C   UNL     4     -11.447  10.678  69.023  1.00  0.00    -0.274 C  
HETATM   19  H   UNL     4     -10.095   8.492  69.822  1.00  0.00     0.000 HD 
HETATM   20  O   UNL     4      -9.591   8.943  69.155  1.00  0.00    -0.158 OA 
HETATM   21  O   UNL     4     -12.009  11.553  68.239  1.00  0.00    -0.544 OA 
HETATM   22  O   UNL     4     -11.568  10.588  70.276  1.00  0.00    -0.280 OA 
ENDBRANCH  14  17
ENDBRANCH  11  14
ENDBRANCH   8  11
ENDBRANCH   3   8
BRANCH   7  23
HETATM   23  C   UNL     5     -13.378  14.995  72.865  1.00  0.00    -0.485 C  
HETATM   24  O   UNL     5     -14.378  15.995  73.071  1.00  0.00    -0.485 OA 
HETATM   25  H   UNL     5     -15.170  15.720  72.625  1.00  0.00     0.000 HD 
BRANCH  23  26
HETATM   26  C   UNL     5     -13.133  14.755  71.359  1.00  0.00    -0.354 C  
HETATM   27  O   UNL     5     -14.187  15.384  70.596  1.00  0.00    -0.781 OA 
HETATM   28  H   UNL     5     -14.037  15.236  69.669  1.00  0.00     0.000 HD 
BRANCH  26  29
HETATM   29  C   UNL     5     -11.744  15.141  70.778  1.00  0.00    -0.325 C  
HETATM   30  O   UNL     5     -11.590  16.548  70.593  1.00  0.00    -0.531 OA 
HETATM   31  H   UNL     5     -10.741  16.784  70.238  1.00  0.00     0.000 HD 
BRANCH  29  32
HETATM   32  C   UNL     5     -11.232  14.357  69.558  1.00  0.00    -0.254 C  
HETATM   33  C   UNL     5      -9.876  14.814  68.981  1.00  0.00    -0.206 C  
HETATM   34  O   UNL     5     -12.253  14.333  68.497  1.00  0.00    -0.542 OA 
HETATM   35  O   UNL     5      -9.014  15.244  69.804  1.00  0.00    -0.201 OA 
HETATM   36  O   UNL     5      -9.822  14.761  67.701  1.00  0.00    -0.216 OA 
HETATM   37  H   UNL     5     -11.937  13.849  67.744  1.00  0.00     0.000 HD 
ENDBRANCH  29  32
ENDBRANCH  26  29
ENDBRANCH  23  26
ENDBRANCH   7  23
TORSDOF 8
ENDMDL
MODEL       12
REMARK 921   NORMALIZED FREE ENERGY PREDICTED BY IDOCK:   -6.95 KCAL/MOL
REMARK 922        TOTAL FREE ENERGY PREDICTED BY IDOCK:  -12.45 KCAL/MOL
REMARK 923 INTER-LIGAND FREE ENERGY PREDICTED BY IDOCK:  -10.39 KCAL/MOL
REMARK 924 INTRA-LIGAND FREE ENERGY PREDICTED BY IDOCK:   -2.06 KCAL/MOL
REMARK 927      BINDING AFFINITY PREDICTED BY RF-SCORE:    0.00 PKD
ROOT
HETATM    1 MG   UNL     3      -8.178  11.586  65.210  1.00  0.00    -0.323 Mg 
HETATM    2  O   UNL     4     -11.609  16.579  63.862  1.00  0.00    -1.598 OA 
HETATM    3  C   UNL     4     -11.176  15.643  64.829  1.00  0.00    -0.382 C  
HETATM    4  H   UNL     4     -11.186  17.426  63.950  1.00  0.00     0.000 HD 
HETATM    5  O   UNL     5      -9.848   4.201  66.580  1.00  0.00    -0.213 OA 
HETATM    6  H   UNL     5      -9.860   3.690  65.779  1.00  0.00     0.000 HD 
HETATM    7  C   UNL     5     -10.619   5.395  66.458  1.00  0.00    -0.289 C  
ENDROOT
BRANCH   3   8
HETATM    8  C   UNL     4     -11.858  14.275  64.686  1.00  0.00    -0.448 C  
HETATM    9  O   UNL     4     -12.358  14.122  63.344  1.00  0.00    -1.109 OA 
HETATM   10  H   UNL     4     -12.781  13.275  63.255  1.00  0.00     0.000 HD 
BRANCH   8  11
HETATM   11  C   UNL     4     -11.037  12.990  65.000  1.00  0.00    -0.294 C  
HETATM   12  O   UNL     4      -9.871  12.857  64.194  1.00  0.00    -0.616 OA 
HETATM   13  H   UNL     4      -9.370  12.073  64.387  1.00  0.00     0.000 HD 
BRANCH  11  14
HETATM   14  C   UNL     4     -10.740  12.662  66.488  1.00  0.00    -0.250 C  
HETATM   15  H   UNL     4      -9.839  11.197  67.415  1.00  0.00     0.000 HD 
HETATM   16  O   UNL     4     -10.021  11.398  66.504  1.00  0.00    -0.202 OA 
BRANCH  14  17
HETATM   17  C   UNL     4     -11.894  12.648  67.530  1.00  0.00    -0.334 C  
HETATM   18  C   UNL     4     -11.734  13.774  68.633  1.00  0.00    -0.356 C  
HETATM   19  H   UNL     4     -12.844  11.322  68.686  1.00  0.00     0.000 HD 
HETATM   20  O   UNL     4     -12.139  11.331  68.050  1.00  0.00    -0.638 OA 
HETATM   21  O   UNL     4     -11.265  14.898  68.170  1.00  0.00    -0.274 OA 
HETATM   22  O   UNL     4     -11.973  13.486  69.838  1.00  0.00    -0.316 OA 
ENDBRANCH  14  17
ENDBRANCH  11  14
ENDBRANCH   8  11
ENDBRANCH   3   8
BRANCH   7  23
HETATM   23  C   UNL     5     -10.599   6.224  67.758  1.00  0.00    -0.262 C  
HETATM   24  O   UNL     5      -9.963   5.447  68.775  1.00  0.00    -0.146 OA 
HETATM   25  H   UNL     5      -9.951   5.958  69.576  1.00  0.00     0.000 HD 
BRANCH  23  26
HETATM   26  C   UNL     5      -9.880   7.577  67.561  1.00  0.00    -0.162 C  
HETATM   27  O   UNL     5     -10.749   8.481  66.841  1.00  0.00    -0.288 OA 
HETATM   28  H   UNL     5     -10.307   9.313  66.720  1.00  0.00     0.000 HD 
BRANCH  26  29
HETATM   29  C   UNL     5      -9.296   8.280  68.818  1.00  0.00    -0.143 C  
HETATM   30  O   UNL     5      -8.286   7.509  69.467  1.00  0.00    -0.126 OA 
HETATM   31  H   UNL     5      -7.928   7.938  70.236  1.00  0.00     0.000 HD 
BRANCH  29  32
HETATM   32  C   UNL     5     -10.285   8.875  69.834  1.00  0.00    -0.200 C  
HETATM   33  C   UNL     5      -9.761   9.029  71.277  1.00  0.00    -0.301 C  
HETATM   34  O   UNL     5     -11.546   8.115  69.830  1.00  0.00    -0.456 OA 
HETATM   35  O   UNL     5      -8.535   9.313  71.420  1.00  0.00    -0.325 OA 
HETATM   36  O   UNL     5     -10.645   8.775  72.171  1.00  0.00    -0.340 OA 
HETATM   37  H   UNL     5     -12.156   8.483  70.458  1.00  0.00     0.000 HD 
ENDBRANCH  29  32
ENDBRANCH  26  29
ENDBRANCH  23  26
ENDBRANCH   7  23
TORSDOF 8
ENDMDL
MODEL       13
REMARK 921   NORMALIZED FREE ENERGY PREDICTED BY IDOCK:   -6.95 KCAL/MOL
REMARK 922        TOTAL FREE ENERGY PREDICTED BY IDOCK:  -12.44 KCAL/MOL
REMARK 923 INTER-LIGAND FREE ENERGY PREDICTED BY IDOCK:  -10.61 KCAL/MOL
REMARK 924 INTRA-LIGAND FREE ENERGY PREDICTED BY IDOCK:   -1.84 KCAL/MOL
REMARK 927      BINDING AFFINITY PREDICTED BY RF-SCORE:    0.00 PKD
ROOT
HETATM    1 MG   UNL     3     -11.038  10.508  66.065  1.00  0.00    -0.215 Mg 
HETATM    2  O   UNL     4     -11.660  16.279  63.868  1.00  0.00    -1.489 OA 
HETATM    3  C   UNL     4     -11.111  15.417  64.846  1.00  0.00    -0.423 C  
HETATM    4  H   UNL     4     -11.021  16.563  63.225  1.00  0.00     0.000 HD 
HETATM    5  O   UNL     5     -13.982   6.776  72.116  1.00  0.00    -0.550 OA 
HETATM    6  H   UNL     5     -14.808   6.358  71.902  1.00  0.00     0.000 HD 
HETATM    7  C   UNL     5     -13.955   8.141  71.698  1.00  0.00    -0.395 C  
ENDROOT
BRANCH   3   8
HETATM    8  C   UNL     4     -12.144  14.957  65.886  1.00  0.00     0.020 C  
HETATM    9  O   UNL     4     -12.899  13.849  65.360  1.00  0.00    -0.662 OA 
HETATM   10  H   UNL     4     -13.539  13.565  66.003  1.00  0.00     0.000 HD 
BRANCH   8  11
HETATM   11  C   UNL     4     -11.647  14.522  67.295  1.00  0.00    -0.385 C  
HETATM   12  O   UNL     4     -10.338  13.963  67.283  1.00  0.00    -0.254 OA 
HETATM   13  H   UNL     4     -10.035  13.698  68.143  1.00  0.00     0.000 HD 
BRANCH  11  14
HETATM   14  C   UNL     4     -11.825  15.521  68.471  1.00  0.00    -0.258 C  
HETATM   15  H   UNL     4     -11.333  17.387  68.770  1.00  0.00     0.000 HD 
HETATM   16  O   UNL     4     -11.224  16.777  68.051  1.00  0.00    -0.295 OA 
BRANCH  14  17
HETATM   17  C   UNL     4     -11.347  15.136  69.900  1.00  0.00    -0.284 C  
HETATM   18  C   UNL     4     -12.287  15.718  71.035  1.00  0.00    -0.415 C  
HETATM   19  H   UNL     4      -9.655  15.163  70.964  1.00  0.00     0.000 HD 
HETATM   20  O   UNL     4      -9.947  15.398  70.091  1.00  0.00    -0.258 OA 
HETATM   21  O   UNL     4     -13.553  15.700  70.727  1.00  0.00    -0.524 OA 
HETATM   22  O   UNL     4     -11.762  16.217  72.068  1.00  0.00    -0.496 OA 
ENDBRANCH  14  17
ENDBRANCH  11  14
ENDBRANCH   8  11
ENDBRANCH   3   8
BRANCH   7  23
HETATM   23  C   UNL     5     -12.615   8.819  72.045  1.00  0.00    -0.385 C  
HETATM   24  O   UNL     5     -12.076   8.178  73.203  1.00  0.00    -0.626 OA 
HETATM   25  H   UNL     5     -11.250   8.596  73.417  1.00  0.00     0.000 HD 
BRANCH  23  26
HETATM   26  C   UNL     5     -11.622   8.760  70.864  1.00  0.00    -0.277 C  
HETATM   27  O   UNL     5     -12.001   7.687  69.972  1.00  0.00    -0.419 OA 
HETATM   28  H   UNL     5     -11.390   7.651  69.246  1.00  0.00     0.000 HD 
BRANCH  26  29
HETATM   29  C   UNL     5     -11.372  10.066  70.059  1.00  0.00    -0.275 C  
HETATM   30  O   UNL     5     -12.440  10.381  69.166  1.00  0.00    -0.705 OA 
HETATM   31  H   UNL     5     -12.287  11.180  68.674  1.00  0.00     0.000 HD 
BRANCH  29  32
HETATM   32  C   UNL     5     -10.004  10.240  69.379  1.00  0.00    -0.233 C  
HETATM   33  C   UNL     5      -9.672   9.233  68.258  1.00  0.00    -0.150 C  
HETATM   34  O   UNL     5      -8.928  10.253  70.384  1.00  0.00    -0.258 OA 
HETATM   35  O   UNL     5     -10.635   8.830  67.540  1.00  0.00    -0.267 OA 
HETATM   36  O   UNL     5      -8.442   8.873  68.243  1.00  0.00    -0.127 OA 
HETATM   37  H   UNL     5      -8.083  10.361  69.964  1.00  0.00     0.000 HD 
ENDBRANCH  29  32
ENDBRANCH  26  29
ENDBRANCH  23  26
ENDBRANCH   7  23
TORSDOF 8
ENDMDL
MODEL       14
REMARK 921   NORMALIZED FREE ENERGY PREDICTED BY IDOCK:   -6.89 KCAL/MOL
REMARK 922        TOTAL FREE ENERGY PREDICTED BY IDOCK:  -12.36 KCAL/MOL
REMARK 923 INTER-LIGAND FREE ENERGY PREDICTED BY IDOCK:  -10.15 KCAL/MOL
REMARK 924 INTRA-LIGAND FREE ENERGY PREDICTED BY IDOCK:   -2.21 KCAL/MOL
REMARK 927      BINDING AFFINITY PREDICTED BY RF-SCORE:    0.00 PKD
ROOT
HETATM    1 MG   UNL     3     -13.865  10.207  69.557  1.00  0.00    -0.547 Mg 
HETATM    2  O   UNL     4     -10.210   7.024  73.433  1.00  0.00    -0.237 OA 
HETATM    3  C   UNL     4     -10.629   8.279  72.933  1.00  0.00    -0.147 C  
HETATM    4  H   UNL     4     -10.563   6.831  74.294  1.00  0.00     0.000 HD 
HETATM    5  O   UNL     5     -12.615  13.992  62.975  1.00  0.00    -1.027 OA 
HETATM    6  H   UNL     5     -12.702  13.422  62.221  1.00  0.00     0.000 HD 
HETATM    7  C   UNL     5     -11.774  13.421  63.977  1.00  0.00    -0.416 C  
ENDROOT
BRANCH   3   8
HETATM    8  C   UNL     4     -10.058   8.590  71.542  1.00  0.00    -0.245 C  
HETATM    9  O   UNL     4      -9.219   7.502  71.110  1.00  0.00    -0.147 OA 
HETATM   10  H   UNL     4      -8.865   7.695  70.249  1.00  0.00     0.000 HD 
BRANCH   8  11
HETATM   11  C   UNL     4     -11.045   8.877  70.373  1.00  0.00    -0.239 C  
HETATM   12  O   UNL     4     -12.400   8.578  70.694  1.00  0.00    -0.496 OA 
HETATM   13  H   UNL     4     -13.002   8.754  69.980  1.00  0.00     0.000 HD 
BRANCH  11  14
HETATM   14  C   UNL     4     -10.924  10.238  69.635  1.00  0.00    -0.270 C  
HETATM   15  H   UNL     4     -11.694  12.014  69.899  1.00  0.00     0.000 HD 
HETATM   16  O   UNL     4     -11.768  11.181  70.351  1.00  0.00    -0.316 OA 
BRANCH  14  17
HETATM   17  C   UNL     4     -11.187  10.321  68.104  1.00  0.00    -0.229 C  
HETATM   18  C   UNL     4      -9.849  10.354  67.256  1.00  0.00    -0.178 C  
HETATM   19  H   UNL     4     -12.292  11.402  66.837  1.00  0.00     0.000 HD 
HETATM   20  O   UNL     4     -12.131  11.352  67.772  1.00  0.00    -0.637 OA 
HETATM   21  O   UNL     4      -8.909   9.588  67.732  1.00  0.00    -0.120 OA 
HETATM   22  O   UNL     4      -9.763  11.151  66.282  1.00  0.00    -0.199 OA 
ENDBRANCH  14  17
ENDBRANCH  11  14
ENDBRANCH   8  11
ENDBRANCH   3   8
BRANCH   7  23
HETATM   23  C   UNL     5     -11.632  14.347  65.201  1.00  0.00    -0.361 C  
HETATM   24  O   UNL     5     -10.947  13.629  66.229  1.00  0.00    -0.297 OA 
HETATM   25  H   UNL     5     -10.860  14.200  66.983  1.00  0.00     0.000 HD 
BRANCH  23  26
HETATM   26  C   UNL     5     -10.889  15.654  64.846  1.00  0.00    -0.418 C  
HETATM   27  O   UNL     5     -11.676  16.409  63.896  1.00  0.00    -1.504 OA 
HETATM   28  H   UNL     5     -11.218  17.213  63.678  1.00  0.00     0.000 HD 
BRANCH  26  29
HETATM   29  C   UNL     5     -10.430  16.570  66.014  1.00  0.00    -0.310 C  
HETATM   30  O   UNL     5     -10.222  17.923  65.610  1.00  0.00    -0.589 OA 
HETATM   31  H   UNL     5      -9.942  18.484  66.324  1.00  0.00     0.000 HD 
BRANCH  29  32
HETATM   32  C   UNL     5      -9.286  16.072  66.912  1.00  0.00    -0.228 C  
HETATM   33  C   UNL     5      -8.691  17.109  67.888  1.00  0.00    -0.222 C  
HETATM   34  O   UNL     5      -8.217  15.471  66.097  1.00  0.00    -0.315 OA 
HETATM   35  O   UNL     5      -9.487  17.965  68.376  1.00  0.00    -0.282 OA 
HETATM   36  O   UNL     5      -7.421  17.008  68.029  1.00  0.00    -0.173 OA 
HETATM   37  H   UNL     5      -7.510  15.163  66.651  1.00  0.00     0.000 HD 
ENDBRANCH  29  32
ENDBRANCH  26  29
ENDBRANCH  23  26
ENDBRANCH   7  23
TORSDOF 8
ENDMDL
MODEL       15
REMARK 921   NORMALIZED FREE ENERGY PREDICTED BY IDOCK:   -6.88 KCAL/MOL
REMARK 922        TOTAL FREE ENERGY PREDICTED BY IDOCK:  -12.35 KCAL/MOL
REMARK 923 INTER-LIGAND FREE ENERGY PREDICTED BY IDOCK:  -10.33 KCAL/MOL
REMARK 924 INTRA-LIGAND FREE ENERGY PREDICTED BY IDOCK:   -2.02 KCAL/MOL
REMARK 927      BINDING AFFINITY PREDICTED BY RF-SCORE:    0.00 PKD
ROOT
HETATM    1 MG   UNL     3     -14.029   9.909  69.909  1.00  0.00    -0.653 Mg 
HETATM    2  O   UNL     4     -11.287   5.710  73.565  1.00  0.00    -0.462 OA 
HETATM    3  C   UNL     4     -11.275   7.010  73.007  1.00  0.00    -0.206 C  
HETATM    4  H   UNL     4     -11.549   5.702  74.479  1.00  0.00     0.000 HD 
HETATM    5  O   UNL     5     -12.485  12.665  62.892  1.00  0.00    -0.581 OA 
HETATM    6  H   UNL     5     -12.897  12.145  62.213  1.00  0.00     0.000 HD 
HETATM    7  C   UNL     5     -11.776  11.851  63.827  1.00  0.00    -0.457 C  
ENDROOT
BRANCH   3   8
HETATM    8  C   UNL     4     -10.853   7.023  71.530  1.00  0.00    -0.230 C  
HETATM    9  O   UNL     4     -11.094   5.728  70.947  1.00  0.00    -0.268 OA 
HETATM   10  H   UNL     4     -10.832   5.736  70.033  1.00  0.00     0.000 HD 
BRANCH   8  11
HETATM   11  C   UNL     4     -11.502   8.065  70.574  1.00  0.00    -0.187 C  
HETATM   12  O   UNL     4     -12.710   8.621  71.083  1.00  0.00    -0.454 OA 
HETATM   13  H   UNL     4     -13.105   9.258  70.499  1.00  0.00     0.000 HD 
BRANCH  11  14
HETATM   14  C   UNL     4     -10.587   9.161  69.963  1.00  0.00    -0.227 C  
HETATM   15  H   UNL     4      -9.106  10.243  70.636  1.00  0.00     0.000 HD 
HETATM   16  O   UNL     4      -9.665   9.573  71.010  1.00  0.00    -0.250 OA 
BRANCH  14  17
HETATM   17  C   UNL     4     -11.215  10.404  69.269  1.00  0.00    -0.248 C  
HETATM   18  C   UNL     4     -10.182  11.174  68.346  1.00  0.00    -0.188 C  
HETATM   19  H   UNL     4     -12.312  11.997  69.771  1.00  0.00     0.000 HD 
HETATM   20  O   UNL     4     -11.928  11.239  70.195  1.00  0.00    -0.311 OA 
HETATM   21  O   UNL     4      -9.369  10.388  67.700  1.00  0.00    -0.147 OA 
HETATM   22  O   UNL     4     -10.162  12.435  68.373  1.00  0.00    -0.220 OA 
ENDBRANCH  14  17
ENDBRANCH  11  14
ENDBRANCH   8  11
ENDBRANCH   3   8
BRANCH   7  23
HETATM   23  C   UNL     5     -11.108  12.697  64.929  1.00  0.00    -0.296 C  
HETATM   24  O   UNL     5      -9.707  12.763  64.655  1.00  0.00    -0.522 OA 
HETATM   25  H   UNL     5      -9.295  13.284  65.335  1.00  0.00     0.000 HD 
BRANCH  23  26
HETATM   26  C   UNL     5     -11.725  14.110  65.019  1.00  0.00    -0.376 C  
HETATM   27  O   UNL     5     -13.108  14.003  65.425  1.00  0.00    -0.763 OA 
HETATM   28  H   UNL     5     -13.488  14.873  65.480  1.00  0.00     0.000 HD 
BRANCH  26  29
HETATM   29  C   UNL     5     -10.990  15.171  65.885  1.00  0.00    -0.339 C  
HETATM   30  O   UNL     5     -11.655  15.437  67.119  1.00  0.00    -0.220 OA 
HETATM   31  H   UNL     5     -11.206  16.086  67.649  1.00  0.00     0.000 HD 
BRANCH  29  32
HETATM   32  C   UNL     5     -10.539  16.471  65.200  1.00  0.00    -0.215 C  
HETATM   33  C   UNL     5     -10.298  17.678  66.130  1.00  0.00    -0.334 C  
HETATM   34  O   UNL     5     -11.476  16.837  64.125  1.00  0.00    -1.369 OA 
HETATM   35  O   UNL     5      -9.836  17.434  67.284  1.00  0.00    -0.264 OA 
HETATM   36  O   UNL     5     -10.672  18.795  65.625  1.00  0.00    -0.543 OA 
HETATM   37  H   UNL     5     -11.197  17.640  63.702  1.00  0.00     0.000 HD 
ENDBRANCH  29  32
ENDBRANCH  26  29
ENDBRANCH  23  26
ENDBRANCH   7  23
TORSDOF 8
ENDMDL
MODEL       16
REMARK 921   NORMALIZED FREE ENERGY PREDICTED BY IDOCK:   -6.88 KCAL/MOL
REMARK 922        TOTAL FREE ENERGY PREDICTED BY IDOCK:  -12.34 KCAL/MOL
REMARK 923 INTER-LIGAND FREE ENERGY PREDICTED BY IDOCK:   -9.41 KCAL/MOL
REMARK 924 INTRA-LIGAND FREE ENERGY PREDICTED BY IDOCK:   -2.93 KCAL/MOL
REMARK 927      BINDING AFFINITY PREDICTED BY RF-SCORE:    0.00 PKD
ROOT
HETATM    1 MG   UNL     3     -13.119  14.133  69.227  1.00  0.00    -0.508 Mg 
HETATM    2  O   UNL     4     -11.599  16.306  63.616  1.00  0.00    -1.424 OA 
HETATM    3  C   UNL     4     -12.308  15.355  64.386  1.00  0.00    -0.077 C  
HETATM    4  H   UNL     4     -12.160  16.980  63.251  1.00  0.00     0.000 HD 
HETATM    5  O   UNL     5     -11.016   7.939  73.279  1.00  0.00    -0.334 OA 
HETATM    6  H   UNL     5     -10.247   8.111  73.809  1.00  0.00     0.000 HD 
HETATM    7  C   UNL     5     -10.833   8.360  71.928  1.00  0.00    -0.302 C  
ENDROOT
BRANCH   3   8
HETATM    8  C   UNL     4     -11.401  14.265  64.976  1.00  0.00    -0.365 C  
HETATM    9  O   UNL     4     -11.006  14.634  66.310  1.00  0.00    -0.315 OA 
HETATM   10  H   UNL     4     -10.444  13.960  66.675  1.00  0.00     0.000 HD 
BRANCH   8  11
HETATM   11  C   UNL     4     -11.938  12.807  65.062  1.00  0.00    -0.412 C  
HETATM   12  O   UNL     4     -11.851  12.101  63.828  1.00  0.00    -0.421 OA 
HETATM   13  H   UNL     4     -12.179  11.211  63.881  1.00  0.00     0.000 HD 
BRANCH  11  14
HETATM   14  C   UNL     4     -11.469  11.927  66.252  1.00  0.00    -0.301 C  
HETATM   15  H   UNL     4     -11.825  11.916  68.173  1.00  0.00     0.000 HD 
HETATM   16  O   UNL     4     -12.112  12.455  67.445  1.00  0.00    -0.505 OA 
BRANCH  14  17
HETATM   17  C   UNL     4      -9.951  11.699  66.504  1.00  0.00    -0.203 C  
HETATM   18  C   UNL     4      -9.409  10.380  65.813  1.00  0.00    -0.186 C  
HETATM   19  H   UNL     4      -8.679  11.694  68.045  1.00  0.00     0.000 HD 
HETATM   20  O   UNL     4      -9.606  11.832  67.891  1.00  0.00    -0.175 OA 
HETATM   21  O   UNL     4      -9.935  10.147  64.644  1.00  0.00    -0.328 OA 
HETATM   22  O   UNL     4      -8.615   9.637  66.453  1.00  0.00    -0.125 OA 
ENDBRANCH  14  17
ENDBRANCH  11  14
ENDBRANCH   8  11
ENDBRANCH   3   8
BRANCH   7  23
HETATM   23  C   UNL     5     -12.082   8.080  71.068  1.00  0.00    -0.217 C  
HETATM   24  O   UNL     5     -12.583   6.787  71.413  1.00  0.00    -0.355 OA 
HETATM   25  H   UNL     5     -13.352   6.615  70.884  1.00  0.00     0.000 HD 
BRANCH  23  26
HETATM   26  C   UNL     5     -13.164   9.166  71.261  1.00  0.00    -0.238 C  
HETATM   27  O   UNL     5     -13.315   9.446  72.671  1.00  0.00    -0.585 OA 
HETATM   28  H   UNL     5     -13.981  10.114  72.790  1.00  0.00     0.000 HD 
BRANCH  26  29
HETATM   29  C   UNL     5     -13.016  10.490  70.462  1.00  0.00    -0.219 C  
HETATM   30  O   UNL     5     -12.552  10.285  69.127  1.00  0.00    -0.503 OA 
HETATM   31  H   UNL     5     -12.462  11.095  68.639  1.00  0.00     0.000 HD 
BRANCH  29  32
HETATM   32  C   UNL     5     -12.279  11.658  71.137  1.00  0.00    -0.144 C  
HETATM   33  C   UNL     5     -13.167  12.680  71.878  1.00  0.00    -0.403 C  
HETATM   34  O   UNL     5     -11.412  12.349  70.168  1.00  0.00    -0.519 OA 
HETATM   35  O   UNL     5     -14.206  12.235  72.450  1.00  0.00     0.085 OA 
HETATM   36  O   UNL     5     -12.762  13.891  71.756  1.00  0.00    -0.329 OA 
HETATM   37  H   UNL     5     -10.957  13.070  70.585  1.00  0.00     0.000 HD 
ENDBRANCH  29  32
ENDBRANCH  26  29
ENDBRANCH  23  26
ENDBRANCH   7  23
TORSDOF 8
ENDMDL
MODEL       17
REMARK 921   NORMALIZED FREE ENERGY PREDICTED BY IDOCK:   -6.86 KCAL/MOL
REMARK 922        TOTAL FREE ENERGY PREDICTED BY IDOCK:  -12.31 KCAL/MOL
REMARK 923 INTER-LIGAND FREE ENERGY PREDICTED BY IDOCK:   -9.48 KCAL/MOL
REMARK 924 INTRA-LIGAND FREE ENERGY PREDICTED BY IDOCK:   -2.84 KCAL/MOL
REMARK 927      BINDING AFFINITY PREDICTED BY RF-SCORE:    0.00 PKD
ROOT
HETATM    1 MG   UNL     3     -14.013  10.214  69.875  1.00  0.00    -0.590 Mg 
HETATM    2  O   UNL     4     -10.811   6.306  73.479  1.00  0.00    -0.370 OA 
HETATM    3  C   UNL     4     -11.014   7.629  73.024  1.00  0.00    -0.400 C  
HETATM    4  H   UNL     4     -11.146   6.161  74.357  1.00  0.00     0.000 HD 
HETATM    5  O   UNL     5     -12.442  13.866  63.286  1.00  0.00    -1.113 OA 
HETATM    6  H   UNL     5     -12.677  13.341  62.530  1.00  0.00     0.000 HD 
HETATM    7  C   UNL     5     -11.669  13.122  64.227  1.00  0.00    -0.395 C  
ENDROOT
BRANCH   3   8
HETATM    8  C   UNL     4     -10.473   7.863  71.605  1.00  0.00    -0.209 C  
HETATM    9  O   UNL     4     -10.161   6.598  70.992  1.00  0.00    -0.186 OA 
HETATM   10  H   UNL     4      -9.826   6.743  70.115  1.00  0.00     0.000 HD 
BRANCH   8  11
HETATM   11  C   UNL     4     -11.355   8.642  70.585  1.00  0.00    -0.247 C  
HETATM   12  O   UNL     4     -12.708   8.783  71.004  1.00  0.00    -0.482 OA 
HETATM   13  H   UNL     4     -13.245   9.259  70.381  1.00  0.00     0.000 HD 
BRANCH  11  14
HETATM   14  C   UNL     4     -10.798   9.971  70.008  1.00  0.00    -0.302 C  
HETATM   15  H   UNL     4     -11.425  11.821  69.977  1.00  0.00     0.000 HD 
HETATM   16  O   UNL     4     -11.765  11.008  70.331  1.00  0.00    -0.315 OA 
BRANCH  14  17
HETATM   17  C   UNL     4     -10.383  10.058  68.511  1.00  0.00    -0.193 C  
HETATM   18  C   UNL     4      -8.943  10.691  68.314  1.00  0.00    -0.143 C  
HETATM   19  H   UNL     4     -11.157  10.697  66.783  1.00  0.00     0.000 HD 
HETATM   20  O   UNL     4     -11.411  10.644  67.697  1.00  0.00    -0.395 OA 
HETATM   21  O   UNL     4      -8.085  10.334  69.226  1.00  0.00    -0.131 OA 
HETATM   22  O   UNL     4      -8.766  11.527  67.385  1.00  0.00    -0.141 OA 
ENDBRANCH  14  17
ENDBRANCH  11  14
ENDBRANCH   8  11
ENDBRANCH   3   8
BRANCH   7  23
HETATM   23  C   UNL     5     -11.287  13.974  65.454  1.00  0.00    -0.315 C  
HETATM   24  O   UNL     5     -10.785  13.100  66.467  1.00  0.00    -0.276 OA 
HETATM   25  H   UNL     5     -10.550  13.625  67.223  1.00  0.00     0.000 HD 
BRANCH  23  26
HETATM   26  C   UNL     5     -10.252  15.062  65.095  1.00  0.00    -0.365 C  
HETATM   27  O   UNL     5     -10.931  16.192  64.501  1.00  0.00    -0.858 OA 
HETATM   28  H   UNL     5     -10.295  16.861  64.280  1.00  0.00     0.000 HD 
BRANCH  26  29
HETATM   29  C   UNL     5      -9.283  15.542  66.211  1.00  0.00    -0.329 C  
HETATM   30  O   UNL     5      -8.473  14.490  66.734  1.00  0.00    -0.367 OA 
HETATM   31  H   UNL     5      -7.881  14.783  67.417  1.00  0.00     0.000 HD 
BRANCH  29  32
HETATM   32  C   UNL     5      -9.860  16.416  67.336  1.00  0.00    -0.244 C  
HETATM   33  C   UNL     5     -10.672  15.676  68.420  1.00  0.00    -0.271 C  
HETATM   34  O   UNL     5     -10.655  17.521  66.773  1.00  0.00    -0.294 OA 
HETATM   35  O   UNL     5     -10.296  14.505  68.724  1.00  0.00    -0.234 OA 
HETATM   36  O   UNL     5     -11.691  16.335  68.834  1.00  0.00    -0.313 OA 
HETATM   37  H   UNL     5     -11.011  18.061  67.468  1.00  0.00     0.000 HD 
ENDBRANCH  29  32
ENDBRANCH  26  29
ENDBRANCH  23  26
ENDBRANCH   7  23
TORSDOF 8
ENDMDL
MODEL       18
REMARK 921   NORMALIZED FREE ENERGY PREDICTED BY IDOCK:   -6.86 KCAL/MOL
REMARK 922        TOTAL FREE ENERGY PREDICTED BY IDOCK:  -12.31 KCAL/MOL
REMARK 923 INTER-LIGAND FREE ENERGY PREDICTED BY IDOCK:   -9.49 KCAL/MOL
REMARK 924 INTRA-LIGAND FREE ENERGY PREDICTED BY IDOCK:   -2.82 KCAL/MOL
REMARK 927      BINDING AFFINITY PREDICTED BY RF-SCORE:    0.00 PKD
ROOT
HETATM    1 MG   UNL     3      -7.456  13.603  66.522  1.00  0.00    -0.359 Mg 
HETATM    2  O   UNL     4     -12.205  11.419  63.176  1.00  0.00    -0.904 OA 
HETATM    3  C   UNL     4     -11.117  12.318  63.277  1.00  0.00    -0.319 C  
HETATM    4  H   UNL     4     -12.023  10.681  62.606  1.00  0.00     0.000 HD 
HETATM    5  O   UNL     5      -6.279  20.099  70.474  1.00  0.00    -0.365 OA 
HETATM    6  H   UNL     5      -6.576  20.021  71.373  1.00  0.00     0.000 HD 
HETATM    7  C   UNL     5      -7.271  19.656  69.549  1.00  0.00    -0.179 C  
ENDROOT
BRANCH   3   8
HETATM    8  C   UNL     4     -11.411  13.511  64.199  1.00  0.00    -0.340 C  
HETATM    9  O   UNL     4     -12.299  14.429  63.535  1.00  0.00    -1.091 OA 
HETATM   10  H   UNL     4     -12.481  15.167  64.105  1.00  0.00     0.000 HD 
BRANCH   8  11
HETATM   11  C   UNL     4     -12.025  13.240  65.604  1.00  0.00    -0.412 C  
HETATM   12  O   UNL     4     -11.831  11.904  66.055  1.00  0.00    -0.497 OA 
HETATM   13  H   UNL     4     -12.206  11.739  66.912  1.00  0.00     0.000 HD 
BRANCH  11  14
HETATM   14  C   UNL     4     -11.741  14.267  66.733  1.00  0.00    -0.405 C  
HETATM   15  H   UNL     4     -11.050  16.094  66.784  1.00  0.00     0.000 HD 
HETATM   16  O   UNL     4     -11.224  15.466  66.093  1.00  0.00    -0.281 OA 
BRANCH  14  17
HETATM   17  C   UNL     4     -10.850  13.867  67.944  1.00  0.00    -0.244 C  
HETATM   18  C   UNL     4     -11.175  14.711  69.246  1.00  0.00    -0.282 C  
HETATM   19  H   UNL     4      -8.913  13.570  68.337  1.00  0.00     0.000 HD 
HETATM   20  O   UNL     4      -9.457  13.815  67.598  1.00  0.00    -0.204 OA 
HETATM   21  O   UNL     4     -12.443  14.962  69.404  1.00  0.00    -0.172 OA 
HETATM   22  O   UNL     4     -10.220  15.137  69.952  1.00  0.00    -0.234 OA 
ENDBRANCH  14  17
ENDBRANCH  11  14
ENDBRANCH   8  11
ENDBRANCH   3   8
BRANCH   7  23
HETATM   23  C   UNL     5      -6.789  19.783  68.090  1.00  0.00    -0.284 C  
HETATM   24  O   UNL     5      -5.716  20.726  68.053  1.00  0.00    -0.238 OA 
HETATM   25  H   UNL     5      -5.420  20.805  67.154  1.00  0.00     0.000 HD 
BRANCH  23  26
HETATM   26  C   UNL     5      -6.352  18.420  67.512  1.00  0.00    -0.186 C  
HETATM   27  O   UNL     5      -6.244  17.457  68.586  1.00  0.00    -0.164 OA 
HETATM   28  H   UNL     5      -5.974  16.618  68.230  1.00  0.00     0.000 HD 
BRANCH  26  29
HETATM   29  C   UNL     5      -7.181  17.827  66.339  1.00  0.00    -0.273 C  
HETATM   30  O   UNL     5      -7.045  18.573  65.130  1.00  0.00    -0.483 OA 
HETATM   31  H   UNL     5      -7.551  18.210  64.412  1.00  0.00     0.000 HD 
BRANCH  29  32
HETATM   32  C   UNL     5      -8.649  17.461  66.609  1.00  0.00    -0.255 C  
HETATM   33  C   UNL     5      -9.640  18.642  66.673  1.00  0.00    -0.333 C  
HETATM   34  O   UNL     5      -8.759  16.641  67.826  1.00  0.00    -0.197 OA 
HETATM   35  O   UNL     5      -9.413  19.628  65.909  1.00  0.00    -0.378 OA 
HETATM   36  O   UNL     5     -10.550  18.498  67.565  1.00  0.00    -0.409 OA 
HETATM   37  H   UNL     5      -9.666  16.415  67.994  1.00  0.00     0.000 HD 
ENDBRANCH  29  32
ENDBRANCH  26  29
ENDBRANCH  23  26
ENDBRANCH   7  23
TORSDOF 8
ENDMDL
MODEL       19
REMARK 921   NORMALIZED FREE ENERGY PREDICTED BY IDOCK:   -6.84 KCAL/MOL
REMARK 922        TOTAL FREE ENERGY PREDICTED BY IDOCK:  -12.28 KCAL/MOL
REMARK 923 INTER-LIGAND FREE ENERGY PREDICTED BY IDOCK:  -11.03 KCAL/MOL
REMARK 924 INTRA-LIGAND FREE ENERGY PREDICTED BY IDOCK:   -1.25 KCAL/MOL
REMARK 927      BINDING AFFINITY PREDICTED BY RF-SCORE:    0.00 PKD
ROOT
HETATM    1 MG   UNL     3      -8.628  10.406  70.609  1.00  0.00    -0.303 Mg 
HETATM    2  O   UNL     4     -12.045   5.609  72.564  1.00  0.00    -0.410 OA 
HETATM    3  C   UNL     4     -11.610   6.416  71.487  1.00  0.00    -0.310 C  
HETATM    4  H   UNL     4     -11.619   4.760  72.587  1.00  0.00     0.000 HD 
HETATM    5  O   UNL     5     -10.321  17.547  68.296  1.00  0.00    -0.338 OA 
HETATM    6  H   UNL     5     -10.341  18.156  69.025  1.00  0.00     0.000 HD 
HETATM    7  C   UNL     5     -11.088  16.374  68.565  1.00  0.00    -0.357 C  
ENDROOT
BRANCH   3   8
HETATM    8  C   UNL     4     -12.300   7.788  71.451  1.00  0.00    -0.323 C  
HETATM    9  O   UNL     4     -13.396   7.803  72.385  1.00  0.00    -0.507 OA 
HETATM   10  H   UNL     4     -13.823   8.652  72.362  1.00  0.00     0.000 HD 
BRANCH   8  11
HETATM   11  C   UNL     4     -11.453   9.061  71.744  1.00  0.00    -0.372 C  
HETATM   12  O   UNL     4     -10.050   8.827  71.693  1.00  0.00    -0.261 OA 
HETATM   13  H   UNL     4      -9.533   9.604  71.871  1.00  0.00     0.000 HD 
BRANCH  11  14
HETATM   14  C   UNL     4     -11.836  10.375  71.010  1.00  0.00    -0.361 C  
HETATM   15  H   UNL     4     -13.517  11.175  70.418  1.00  0.00     0.000 HD 
HETATM   16  O   UNL     4     -13.283  10.371  70.867  1.00  0.00    -0.377 OA 
BRANCH  14  17
HETATM   17  C   UNL     4     -11.154  10.742  69.661  1.00  0.00    -0.279 C  
HETATM   18  C   UNL     4     -11.823  11.995  68.960  1.00  0.00    -0.315 C  
HETATM   19  H   UNL     4     -10.571   9.821  67.985  1.00  0.00     0.000 HD 
HETATM   20  O   UNL     4     -10.988   9.597  68.809  1.00  0.00    -0.200 OA 
HETATM   21  O   UNL     4     -12.198  12.923  69.793  1.00  0.00    -0.255 OA 
HETATM   22  O   UNL     4     -12.020  11.965  67.714  1.00  0.00    -0.559 OA 
ENDBRANCH  14  17
ENDBRANCH  11  14
ENDBRANCH   8  11
ENDBRANCH   3   8
BRANCH   7  23
HETATM   23  C   UNL     5     -11.055  15.386  67.382  1.00  0.00    -0.311 C  
HETATM   24  O   UNL     5     -12.364  14.836  67.222  1.00  0.00    -0.498 OA 
HETATM   25  H   UNL     5     -12.344  14.227  66.493  1.00  0.00     0.000 HD 
BRANCH  23  26
HETATM   26  C   UNL     5     -10.575  16.067  66.082  1.00  0.00    -0.297 C  
HETATM   27  O   UNL     5      -9.143  16.255  66.140  1.00  0.00    -0.302 OA 
HETATM   28  H   UNL     5      -8.848  16.674  65.340  1.00  0.00     0.000 HD 
BRANCH  26  29
HETATM   29  C   UNL     5     -10.979  15.418  64.729  1.00  0.00    -0.393 C  
HETATM   30  O   UNL     5     -11.574  16.346  63.823  1.00  0.00    -1.605 OA 
HETATM   31  H   UNL     5     -11.821  15.949  62.995  1.00  0.00     0.000 HD 
BRANCH  29  32
HETATM   32  C   UNL     5     -11.762  14.096  64.771  1.00  0.00    -0.410 C  
HETATM   33  C   UNL     5     -10.914  12.806  64.754  1.00  0.00    -0.305 C  
HETATM   34  O   UNL     5     -12.765  14.058  63.694  1.00  0.00    -0.789 OA 
HETATM   35  O   UNL     5      -9.796  12.843  65.347  1.00  0.00    -0.224 OA 
HETATM   36  O   UNL     5     -11.437  11.861  64.063  1.00  0.00    -0.367 OA 
HETATM   37  H   UNL     5     -13.249  13.241  63.720  1.00  0.00     0.000 HD 
ENDBRANCH  29  32
ENDBRANCH  26  29
ENDBRANCH  23  26
ENDBRANCH   7  23
TORSDOF 8
ENDMDL
MODEL       20
REMARK 921   NORMALIZED FREE ENERGY PREDICTED BY IDOCK:   -6.75 KCAL/MOL
REMARK 922        TOTAL FREE ENERGY PREDICTED BY IDOCK:  -12.16 KCAL/MOL
REMARK 923 INTER-LIGAND FREE ENERGY PREDICTED BY IDOCK:   -9.85 KCAL/MOL
REMARK 924 INTRA-LIGAND FREE ENERGY PREDICTED BY IDOCK:   -2.31 KCAL/MOL
REMARK 927      BINDING AFFINITY PREDICTED BY RF-SCORE:    0.00 PKD
ROOT
HETATM    1 MG   UNL     3     -13.536  10.069  69.571  1.00  0.00    -0.575 Mg 
HETATM    2  O   UNL     4      -9.706   6.901  73.287  1.00  0.00    -0.161 OA 
HETATM    3  C   UNL     4     -10.194   8.154  72.850  1.00  0.00    -0.270 C  
HETATM    4  H   UNL     4     -10.047   6.646  74.137  1.00  0.00     0.000 HD 
HETATM    5  O   UNL     5     -12.508  14.239  63.187  1.00  0.00    -1.102 OA 
HETATM    6  H   UNL     5     -12.565  13.703  62.405  1.00  0.00     0.000 HD 
HETATM    7  C   UNL     5     -11.635  13.665  64.159  1.00  0.00    -0.352 C  
ENDROOT
BRANCH   3   8
HETATM    8  C   UNL     4      -9.643   8.564  71.476  1.00  0.00    -0.228 C  
HETATM    9  O   UNL     4      -8.957   7.449  70.877  1.00  0.00    -0.148 OA 
HETATM   10  H   UNL     4      -8.616   7.703  70.027  1.00  0.00     0.000 HD 
BRANCH   8  11
HETATM   11  C   UNL     4     -10.633   9.102  70.401  1.00  0.00    -0.230 C  
HETATM   12  O   UNL     4     -11.451  10.167  70.873  1.00  0.00    -0.327 OA 
HETATM   13  H   UNL     4     -12.055  10.495  70.217  1.00  0.00     0.000 HD 
BRANCH  11  14
HETATM   14  C   UNL     4     -10.076   9.400  68.983  1.00  0.00    -0.194 C  
HETATM   15  H   UNL     4      -8.378  10.072  68.289  1.00  0.00     0.000 HD 
HETATM   16  O   UNL     4      -8.719   9.890  69.157  1.00  0.00    -0.137 OA 
BRANCH  14  17
HETATM   17  C   UNL     4     -10.869  10.321  68.012  1.00  0.00    -0.275 C  
HETATM   18  C   UNL     4     -10.402  10.165  66.505  1.00  0.00    -0.202 C  
HETATM   19  H   UNL     4     -11.417  12.239  67.888  1.00  0.00     0.000 HD 
HETATM   20  O   UNL     4     -10.932  11.677  68.481  1.00  0.00    -0.193 OA 
HETATM   21  O   UNL     4     -10.105   8.941  66.173  1.00  0.00    -0.291 OA 
HETATM   22  O   UNL     4     -10.268  11.201  65.797  1.00  0.00    -0.240 OA 
ENDBRANCH  14  17
ENDBRANCH  11  14
ENDBRANCH   8  11
ENDBRANCH   3   8
BRANCH   7  23
HETATM   23  C   UNL     5     -11.541  14.536  65.429  1.00  0.00    -0.355 C  
HETATM   24  O   UNL     5     -11.019  13.731  66.487  1.00  0.00    -0.296 OA 
HETATM   25  H   UNL     5     -10.961  14.267  67.269  1.00  0.00     0.000 HD 
BRANCH  23  26
HETATM   26  C   UNL     5     -10.667  15.788  65.199  1.00  0.00    -0.435 C  
HETATM   27  O   UNL     5     -11.273  16.616  64.181  1.00  0.00    -1.410 OA 
HETATM   28  H   UNL     5     -10.735  17.386  64.040  1.00  0.00     0.000 HD 
BRANCH  26  29
HETATM   29  C   UNL     5     -10.289  16.648  66.437  1.00  0.00    -0.306 C  
HETATM   30  O   UNL     5     -11.112  16.382  67.572  1.00  0.00    -0.241 OA 
HETATM   31  H   UNL     5     -10.881  16.907  68.329  1.00  0.00     0.000 HD 
BRANCH  29  32
HETATM   32  C   UNL     5     -10.092  18.159  66.230  1.00  0.00    -0.371 C  
HETATM   33  C   UNL     5      -8.632  18.658  66.232  1.00  0.00    -0.217 C  
HETATM   34  O   UNL     5     -10.890  18.920  67.206  1.00  0.00    -0.458 OA 
HETATM   35  O   UNL     5      -7.756  17.882  65.747  1.00  0.00    -0.538 OA 
HETATM   36  O   UNL     5      -8.482  19.796  66.804  1.00  0.00    -0.293 OA 
HETATM   37  H   UNL     5     -10.769  19.853  67.079  1.00  0.00     0.000 HD 
ENDBRANCH  29  32
ENDBRANCH  26  29
ENDBRANCH  23  26
ENDBRANCH   7  23
TORSDOF 8
ENDMDL
MODEL       21
REMARK 921   NORMALIZED FREE ENERGY PREDICTED BY IDOCK:   -6.75 KCAL/MOL
REMARK 922        TOTAL FREE ENERGY PREDICTED BY IDOCK:  -12.15 KCAL/MOL
REMARK 923 INTER-LIGAND FREE ENERGY PREDICTED BY IDOCK:  -10.06 KCAL/MOL
REMARK 924 INTRA-LIGAND FREE ENERGY PREDICTED BY IDOCK:   -2.09 KCAL/MOL
REMARK 927      BINDING AFFINITY PREDICTED BY RF-SCORE:    0.00 PKD
ROOT
HETATM    1 MG   UNL     3      -7.895  12.056  65.711  1.00  0.00    -0.358 Mg 
HETATM    2  O   UNL     4     -11.294  16.937  63.941  1.00  0.00    -1.265 OA 
HETATM    3  C   UNL     4     -10.908  16.051  64.974  1.00  0.00    -0.404 C  
HETATM    4  H   UNL     4     -10.886  17.793  64.015  1.00  0.00     0.000 HD 
HETATM    5  O   UNL     5      -9.564   4.718  67.318  1.00  0.00    -0.143 OA 
HETATM    6  H   UNL     5      -9.524   4.171  66.542  1.00  0.00     0.000 HD 
HETATM    7  C   UNL     5     -10.339   5.895  67.097  1.00  0.00    -0.233 C  
ENDROOT
BRANCH   3   8
HETATM    8  C   UNL     4     -11.567  14.669  64.853  1.00  0.00    -0.405 C  
HETATM    9  O   UNL     4     -12.417  14.638  63.691  1.00  0.00    -1.070 OA 
HETATM   10  H   UNL     4     -12.825  13.783  63.617  1.00  0.00     0.000 HD 
BRANCH   8  11
HETATM   11  C   UNL     4     -10.656  13.409  64.768  1.00  0.00    -0.405 C  
HETATM   12  O   UNL     4      -9.389  13.588  65.390  1.00  0.00    -0.417 OA 
HETATM   13  H   UNL     4      -8.834  12.819  65.338  1.00  0.00     0.000 HD 
BRANCH  11  14
HETATM   14  C   UNL     4     -11.279  12.035  65.133  1.00  0.00    -0.315 C  
HETATM   15  H   UNL     4     -13.021  11.451  65.797  1.00  0.00     0.000 HD 
HETATM   16  O   UNL     4     -12.641  12.292  65.573  1.00  0.00    -0.548 OA 
BRANCH  14  17
HETATM   17  C   UNL     4     -10.551  11.090  66.132  1.00  0.00    -0.228 C  
HETATM   18  C   UNL     4      -9.623  10.031  65.404  1.00  0.00    -0.279 C  
HETATM   19  H   UNL     4     -11.007   9.953  67.712  1.00  0.00     0.000 HD 
HETATM   20  O   UNL     4     -11.451  10.530  67.101  1.00  0.00    -0.311 OA 
HETATM   21  O   UNL     4      -9.003  10.506  64.362  1.00  0.00    -0.191 OA 
HETATM   22  O   UNL     4      -9.623   8.837  65.812  1.00  0.00    -0.219 OA 
ENDBRANCH  14  17
ENDBRANCH  11  14
ENDBRANCH   8  11
ENDBRANCH   3   8
BRANCH   7  23
HETATM   23  C   UNL     5     -10.404   6.782  68.357  1.00  0.00    -0.191 C  
HETATM   24  O   UNL     5     -11.181   7.941  68.050  1.00  0.00    -0.350 OA 
HETATM   25  H   UNL     5     -11.221   8.487  68.826  1.00  0.00     0.000 HD 
BRANCH  23  26
HETATM   26  C   UNL     5     -10.994   6.019  69.563  1.00  0.00    -0.397 C  
HETATM   27  O   UNL     5     -10.075   4.979  69.968  1.00  0.00    -0.235 OA 
HETATM   28  H   UNL     5     -10.438   4.510  70.710  1.00  0.00     0.000 HD 
BRANCH  26  29
HETATM   29  C   UNL     5     -11.447   6.848  70.797  1.00  0.00    -0.335 C  
HETATM   30  O   UNL     5     -12.239   7.982  70.444  1.00  0.00    -0.464 OA 
HETATM   31  H   UNL     5     -12.516   8.489  71.199  1.00  0.00     0.000 HD 
BRANCH  29  32
HETATM   32  C   UNL     5     -10.387   7.211  71.849  1.00  0.00    -0.192 C  
HETATM   33  C   UNL     5     -10.437   6.408  73.166  1.00  0.00    -0.243 C  
HETATM   34  O   UNL     5     -10.417   8.655  72.133  1.00  0.00    -0.322 OA 
HETATM   35  O   UNL     5     -10.795   5.195  73.089  1.00  0.00    -0.236 OA 
HETATM   36  O   UNL     5     -10.170   7.113  74.203  1.00  0.00    -0.309 OA 
HETATM   37  H   UNL     5      -9.762   8.879  72.782  1.00  0.00     0.000 HD 
ENDBRANCH  29  32
ENDBRANCH  26  29
ENDBRANCH  23  26
ENDBRANCH   7  23
TORSDOF 8
ENDMDL
MODEL       22
REMARK 921   NORMALIZED FREE ENERGY PREDICTED BY IDOCK:   -6.73 KCAL/MOL
REMARK 922        TOTAL FREE ENERGY PREDICTED BY IDOCK:  -12.12 KCAL/MOL
REMARK 923 INTER-LIGAND FREE ENERGY PREDICTED BY IDOCK:   -9.27 KCAL/MOL
REMARK 924 INTRA-LIGAND FREE ENERGY PREDICTED BY IDOCK:   -2.85 KCAL/MOL
REMARK 927      BINDING AFFINITY PREDICTED BY RF-SCORE:    0.00 PKD
ROOT
HETATM    1 MG   UNL     3      -8.551  10.385  64.094  1.00  0.00    -0.145 Mg 
HETATM    2  O   UNL     4      -8.929   5.186  67.463  1.00  0.00    -0.109 OA 
HETATM    3  C   UNL     4      -9.594   6.280  66.859  1.00  0.00    -0.147 C  
HETATM    4  H   UNL     4      -9.044   4.373  66.984  1.00  0.00     0.000 HD 
HETATM    5  O   UNL     5      -9.090  17.871  65.792  1.00  0.00    -0.495 OA 
HETATM    6  H   UNL     5      -8.247  18.238  66.030  1.00  0.00     0.000 HD 
HETATM    7  C   UNL     5      -9.360  16.662  66.501  1.00  0.00    -0.265 C  
ENDROOT
BRANCH   3   8
HETATM    8  C   UNL     4      -9.408   7.593  67.633  1.00  0.00    -0.142 C  
HETATM    9  O   UNL     4      -8.184   7.540  68.390  1.00  0.00    -0.123 OA 
HETATM   10  H   UNL     4      -8.069   8.353  68.869  1.00  0.00     0.000 HD 
BRANCH   8  11
HETATM   11  C   UNL     4      -9.378   8.933  66.840  1.00  0.00    -0.168 C  
HETATM   12  O   UNL     4      -9.862   8.808  65.507  1.00  0.00    -0.436 OA 
HETATM   13  H   UNL     4      -9.844   9.626  65.024  1.00  0.00     0.000 HD 
BRANCH  11  14
HETATM   14  C   UNL     4      -9.945  10.202  67.533  1.00  0.00    -0.191 C  
HETATM   15  H   UNL     4      -9.230  11.972  67.948  1.00  0.00     0.000 HD 
HETATM   16  O   UNL     4      -8.883  11.195  67.524  1.00  0.00    -0.137 OA 
BRANCH  14  17
HETATM   17  C   UNL     4     -10.586  10.098  68.946  1.00  0.00    -0.215 C  
HETATM   18  C   UNL     4     -11.669  11.225  69.208  1.00  0.00    -0.334 C  
HETATM   19  H   UNL     4      -9.990   9.903  70.844  1.00  0.00     0.000 HD 
HETATM   20  O   UNL     4      -9.598   9.966  69.980  1.00  0.00    -0.234 OA 
HETATM   21  O   UNL     4     -12.395  11.506  68.164  1.00  0.00    -0.473 OA 
HETATM   22  O   UNL     4     -11.688  11.805  70.329  1.00  0.00    -0.309 OA 
ENDBRANCH  14  17
ENDBRANCH  11  14
ENDBRANCH   8  11
ENDBRANCH   3   8
BRANCH   7  23
HETATM   23  C   UNL     5     -10.729  16.066  66.116  1.00  0.00    -0.244 C  
HETATM   24  O   UNL     5     -10.812  16.020  64.690  1.00  0.00    -0.761 OA 
HETATM   25  H   UNL     5     -11.656  15.654  64.453  1.00  0.00     0.000 HD 
BRANCH  23  26
HETATM   26  C   UNL     5     -10.935  14.665  66.731  1.00  0.00    -0.323 C  
HETATM   27  O   UNL     5     -12.199  14.630  67.431  1.00  0.00    -0.571 OA 
HETATM   28  H   UNL     5     -12.326  13.768  67.810  1.00  0.00     0.000 HD 
BRANCH  26  29
HETATM   29  C   UNL     5     -10.807  13.432  65.792  1.00  0.00    -0.275 C  
HETATM   30  O   UNL     5      -9.820  13.608  64.776  1.00  0.00    -0.616 OA 
HETATM   31  H   UNL     5      -9.741  12.855  64.202  1.00  0.00     0.000 HD 
BRANCH  29  32
HETATM   32  C   UNL     5     -12.098  12.827  65.219  1.00  0.00    -0.457 C  
HETATM   33  C   UNL     5     -11.922  11.859  64.031  1.00  0.00    -0.356 C  
HETATM   34  O   UNL     5     -13.054  13.891  64.869  1.00  0.00    -0.704 OA 
HETATM   35  O   UNL     5     -10.884  11.133  64.026  1.00  0.00    -0.378 OA 
HETATM   36  O   UNL     5     -12.842  11.967  63.143  1.00  0.00    -0.661 OA 
HETATM   37  H   UNL     5     -13.852  13.517  64.516  1.00  0.00     0.000 HD 
ENDBRANCH  29  32
ENDBRANCH  26  29
ENDBRANCH  23  26
ENDBRANCH   7  23
TORSDOF 8
ENDMDL
MODEL       23
REMARK 921   NORMALIZED FREE ENERGY PREDICTED BY IDOCK:   -6.72 KCAL/MOL
REMARK 922        TOTAL FREE ENERGY PREDICTED BY IDOCK:  -12.11 KCAL/MOL
REMARK 923 INTER-LIGAND FREE ENERGY PREDICTED BY IDOCK:   -9.81 KCAL/MOL
REMARK 924 INTRA-LIGAND FREE ENERGY PREDICTED BY IDOCK:   -2.30 KCAL/MOL
REMARK 927      BINDING AFFINITY PREDICTED BY RF-SCORE:    0.00 PKD
ROOT
HETATM    1 MG   UNL     3     -10.739  15.470  64.508  1.00  0.00    -0.348 Mg 
HETATM    2  O   UNL     4      -8.523  20.858  66.648  1.00  0.00    -0.520 OA 
HETATM    3  C   UNL     4      -8.258  19.578  66.107  1.00  0.00    -0.326 C  
HETATM    4  H   UNL     4      -8.412  21.558  66.014  1.00  0.00     0.000 HD 
HETATM    5  O   UNL     5     -11.031   8.331  67.365  1.00  0.00    -0.496 OA 
HETATM    6  H   UNL     5     -11.820   8.189  67.873  1.00  0.00     0.000 HD 
HETATM    7  C   UNL     5     -10.365   9.535  67.745  1.00  0.00    -0.239 C  
ENDROOT
BRANCH   3   8
HETATM    8  C   UNL     4      -8.437  18.447  67.132  1.00  0.00    -0.254 C  
HETATM    9  O   UNL     4      -7.378  18.505  68.106  1.00  0.00    -0.247 OA 
HETATM   10  H   UNL     4      -7.489  17.805  68.739  1.00  0.00     0.000 HD 
BRANCH   8  11
HETATM   11  C   UNL     4      -9.769  18.365  67.933  1.00  0.00    -0.308 C  
HETATM   12  O   UNL     4     -10.898  18.825  67.197  1.00  0.00    -0.421 OA 
HETATM   13  H   UNL     4     -11.710  18.774  67.686  1.00  0.00     0.000 HD 
BRANCH  11  14
HETATM   14  C   UNL     4     -10.085  17.045  68.688  1.00  0.00    -0.303 C  
HETATM   15  H   UNL     4      -9.059  15.445  69.138  1.00  0.00     0.000 HD 
HETATM   16  O   UNL     4      -8.866  16.252  68.676  1.00  0.00    -0.204 OA 
BRANCH  14  17
HETATM   17  C   UNL     4     -11.306  16.178  68.266  1.00  0.00    -0.316 C  
HETATM   18  C   UNL     4     -11.857  15.284  69.453  1.00  0.00    -0.343 C  
HETATM   19  H   UNL     4     -11.813  14.938  66.784  1.00  0.00     0.000 HD 
HETATM   20  O   UNL     4     -11.068  15.467  67.042  1.00  0.00    -0.322 OA 
HETATM   21  O   UNL     4     -11.827  15.876  70.613  1.00  0.00    -0.353 OA 
HETATM   22  O   UNL     4     -12.184  14.089  69.215  1.00  0.00    -0.344 OA 
ENDBRANCH  14  17
ENDBRANCH  11  14
ENDBRANCH   8  11
ENDBRANCH   3   8
BRANCH   7  23
HETATM   23  C   UNL     5      -9.083   9.766  66.920  1.00  0.00    -0.142 C  
HETATM   24  O   UNL     5      -8.874   8.622  66.090  1.00  0.00    -0.150 OA 
HETATM   25  H   UNL     5      -8.084   8.764  65.581  1.00  0.00     0.000 HD 
BRANCH  23  26
HETATM   26  C   UNL     5      -9.171  11.057  66.078  1.00  0.00    -0.193 C  
HETATM   27  O   UNL     5      -7.939  11.233  65.341  1.00  0.00    -0.358 OA 
HETATM   28  H   UNL     5      -7.993  12.027  64.823  1.00  0.00     0.000 HD 
BRANCH  26  29
HETATM   29  C   UNL     5     -10.392  11.227  65.132  1.00  0.00    -0.295 C  
HETATM   30  O   UNL     5     -10.394  10.293  64.052  1.00  0.00    -0.441 OA 
HETATM   31  H   UNL     5     -11.140  10.397  63.474  1.00  0.00     0.000 HD 
BRANCH  29  32
HETATM   32  C   UNL     5     -10.733  12.645  64.646  1.00  0.00    -0.326 C  
HETATM   33  C   UNL     5     -12.190  12.873  64.193  1.00  0.00    -0.414 C  
HETATM   34  O   UNL     5      -9.801  13.063  63.585  1.00  0.00    -0.694 OA 
HETATM   35  O   UNL     5     -13.094  12.233  64.810  1.00  0.00    -0.724 OA 
HETATM   36  O   UNL     5     -12.295  13.650  63.178  1.00  0.00    -0.729 OA 
HETATM   37  H   UNL     5     -10.012  13.939  63.285  1.00  0.00     0.000 HD 
ENDBRANCH  29  32
ENDBRANCH  26  29
ENDBRANCH  23  26
ENDBRANCH   7  23
TORSDOF 8
ENDMDL
MODEL       24
REMARK 921   NORMALIZED FREE ENERGY PREDICTED BY IDOCK:   -6.72 KCAL/MOL
REMARK 922        TOTAL FREE ENERGY PREDICTED BY IDOCK:  -12.11 KCAL/MOL
REMARK 923 INTER-LIGAND FREE ENERGY PREDICTED BY IDOCK:  -10.08 KCAL/MOL
REMARK 924 INTRA-LIGAND FREE ENERGY PREDICTED BY IDOCK:   -2.03 KCAL/MOL
REMARK 927      BINDING AFFINITY PREDICTED BY RF-SCORE:    0.00 PKD
ROOT
HETATM    1 MG   UNL     3     -13.945  10.050  69.645  1.00  0.00    -0.605 Mg 
HETATM    2  O   UNL     4     -11.426   5.119  72.448  1.00  0.00    -0.134 OA 
HETATM    3  C   UNL     4     -11.298   6.468  72.043  1.00  0.00    -0.285 C  
HETATM    4  H   UNL     4     -11.590   5.025  73.379  1.00  0.00     0.000 HD 
HETATM    5  O   UNL     5     -12.783  13.474  62.853  1.00  0.00    -0.713 OA 
HETATM    6  H   UNL     5     -13.329  13.099  62.173  1.00  0.00     0.000 HD 
HETATM    7  C   UNL     5     -12.096  12.468  63.597  1.00  0.00    -0.554 C  
ENDROOT
BRANCH   3   8
HETATM    8  C   UNL     4     -11.034   6.618  70.538  1.00  0.00    -0.286 C  
HETATM    9  O   UNL     4     -12.279   6.829  69.846  1.00  0.00    -0.634 OA 
HETATM   10  H   UNL     4     -12.116   6.921  68.915  1.00  0.00     0.000 HD 
BRANCH   8  11
HETATM   11  C   UNL     4     -10.066   7.738  70.054  1.00  0.00    -0.201 C  
HETATM   12  O   UNL     4      -8.819   7.239  69.582  1.00  0.00    -0.141 OA 
HETATM   13  H   UNL     4      -8.229   7.922  69.287  1.00  0.00     0.000 HD 
BRANCH  11  14
HETATM   14  C   UNL     4     -10.633   8.833  69.110  1.00  0.00    -0.184 C  
HETATM   15  H   UNL     4     -10.987   8.939  67.192  1.00  0.00     0.000 HD 
HETATM   16  O   UNL     4     -10.641   8.270  67.769  1.00  0.00    -0.227 OA 
BRANCH  14  17
HETATM   17  C   UNL     4     -10.006  10.256  69.101  1.00  0.00    -0.222 C  
HETATM   18  C   UNL     4     -10.785  11.260  68.155  1.00  0.00    -0.204 C  
HETATM   19  H   UNL     4      -8.201  11.090  68.890  1.00  0.00     0.000 HD 
HETATM   20  O   UNL     4      -8.585  10.220  68.895  1.00  0.00    -0.131 OA 
HETATM   21  O   UNL     4     -12.077  11.100  68.172  1.00  0.00    -0.633 OA 
HETATM   22  O   UNL     4     -10.124  12.043  67.419  1.00  0.00    -0.193 OA 
ENDBRANCH  14  17
ENDBRANCH  11  14
ENDBRANCH   8  11
ENDBRANCH   3   8
BRANCH   7  23
HETATM   23  C   UNL     5     -11.209  13.079  64.701  1.00  0.00    -0.326 C  
HETATM   24  O   UNL     5      -9.993  13.527  64.101  1.00  0.00    -0.766 OA 
HETATM   25  H   UNL     5      -9.446  13.903  64.781  1.00  0.00     0.000 HD 
BRANCH  23  26
HETATM   26  C   UNL     5     -11.925  14.233  65.436  1.00  0.00    -0.383 C  
HETATM   27  O   UNL     5     -12.223  13.826  66.791  1.00  0.00    -0.425 OA 
HETATM   28  H   UNL     5     -12.664  14.536  67.244  1.00  0.00     0.000 HD 
BRANCH  26  29
HETATM   29  C   UNL     5     -11.247  15.631  65.431  1.00  0.00    -0.184 C  
HETATM   30  O   UNL     5     -11.056  16.151  64.116  1.00  0.00    -1.113 OA 
HETATM   31  H   UNL     5     -10.641  17.006  64.113  1.00  0.00     0.000 HD 
BRANCH  29  32
HETATM   32  C   UNL     5      -9.992  15.824  66.298  1.00  0.00    -0.295 C  
HETATM   33  C   UNL     5     -10.200  16.564  67.635  1.00  0.00    -0.279 C  
HETATM   34  O   UNL     5      -8.925  16.474  65.519  1.00  0.00    -0.368 OA 
HETATM   35  O   UNL     5     -11.301  16.376  68.234  1.00  0.00    -0.350 OA 
HETATM   36  O   UNL     5      -9.233  17.349  67.941  1.00  0.00    -0.247 OA 
HETATM   37  H   UNL     5      -8.149  16.594  66.054  1.00  0.00     0.000 HD 
ENDBRANCH  29  32
ENDBRANCH  26  29
ENDBRANCH  23  26
ENDBRANCH   7  23
TORSDOF 8
ENDMDL
MODEL       25
REMARK 921   NORMALIZED FREE ENERGY PREDICTED BY IDOCK:   -6.66 KCAL/MOL
REMARK 922        TOTAL FREE ENERGY PREDICTED BY IDOCK:  -12.02 KCAL/MOL
REMARK 923 INTER-LIGAND FREE ENERGY PREDICTED BY IDOCK:   -9.93 KCAL/MOL
REMARK 924 INTRA-LIGAND FREE ENERGY PREDICTED BY IDOCK:   -2.09 KCAL/MOL
REMARK 927      BINDING AFFINITY PREDICTED BY RF-SCORE:    0.00 PKD
ROOT
HETATM    1 MG   UNL     3      -7.376  13.797  66.305  1.00  0.00    -0.182 Mg 
HETATM    2  O   UNL     4     -12.034  11.399  62.978  1.00  0.00    -0.918 OA 
HETATM    3  C   UNL     4     -11.000  12.359  63.082  1.00  0.00    -0.063 C  
HETATM    4  H   UNL     4     -11.817  10.684  62.390  1.00  0.00     0.000 HD 
HETATM    5  O   UNL     5      -6.531  20.275  70.371  1.00  0.00    -0.391 OA 
HETATM    6  H   UNL     5      -6.810  20.161  71.272  1.00  0.00     0.000 HD 
HETATM    7  C   UNL     5      -7.508  19.791  69.450  1.00  0.00    -0.104 C  
ENDROOT
BRANCH   3   8
HETATM    8  C   UNL     4     -11.351  13.514  64.032  1.00  0.00    -0.274 C  
HETATM    9  O   UNL     4     -12.171  14.476  63.342  1.00  0.00    -0.988 OA 
HETATM   10  H   UNL     4     -12.388  15.191  63.929  1.00  0.00     0.000 HD 
BRANCH   8  11
HETATM   11  C   UNL     4     -12.079  13.191  65.369  1.00  0.00    -0.433 C  
HETATM   12  O   UNL     4     -13.462  12.896  65.200  1.00  0.00    -0.461 OA 
HETATM   13  H   UNL     4     -13.906  12.699  66.016  1.00  0.00     0.000 HD 
BRANCH  11  14
HETATM   14  C   UNL     4     -11.402  12.191  66.345  1.00  0.00    -0.356 C  
HETATM   15  H   UNL     4     -11.794  11.559  68.151  1.00  0.00     0.000 HD 
HETATM   16  O   UNL     4     -12.209  12.171  67.554  1.00  0.00    -0.474 OA 
BRANCH  14  17
HETATM   17  C   UNL     4      -9.894  12.344  66.696  1.00  0.00    -0.223 C  
HETATM   18  C   UNL     4      -9.299  11.055  67.400  1.00  0.00    -0.155 C  
HETATM   19  H   UNL     4      -8.698  13.672  67.590  1.00  0.00     0.000 HD 
HETATM   20  O   UNL     4      -9.619  13.578  67.376  1.00  0.00    -0.215 OA 
HETATM   21  O   UNL     4      -9.764   9.936  66.924  1.00  0.00    -0.171 OA 
HETATM   22  O   UNL     4      -8.524  11.201  68.385  1.00  0.00    -0.137 OA 
ENDBRANCH  14  17
ENDBRANCH  11  14
ENDBRANCH   8  11
ENDBRANCH   3   8
BRANCH   7  23
HETATM   23  C   UNL     5      -7.056  19.975  67.988  1.00  0.00    -0.287 C  
HETATM   24  O   UNL     5      -6.008  19.040  67.722  1.00  0.00    -0.197 OA 
HETATM   25  H   UNL     5      -5.729  19.153  66.821  1.00  0.00     0.000 HD 
BRANCH  23  26
HETATM   26  C   UNL     5      -8.228  19.792  66.999  1.00  0.00    -0.303 C  
HETATM   27  O   UNL     5      -7.998  20.606  65.827  1.00  0.00    -0.470 OA 
HETATM   28  H   UNL     5      -8.720  20.494  65.219  1.00  0.00     0.000 HD 
BRANCH  26  29
HETATM   29  C   UNL     5      -8.609  18.344  66.582  1.00  0.00    -0.278 C  
HETATM   30  O   UNL     5      -7.735  17.803  65.592  1.00  0.00    -0.545 OA 
HETATM   31  H   UNL     5      -7.968  16.917  65.337  1.00  0.00     0.000 HD 
BRANCH  29  32
HETATM   32  C   UNL     5     -10.081  18.056  66.248  1.00  0.00    -0.363 C  
HETATM   33  C   UNL     5     -10.348  16.797  65.396  1.00  0.00    -0.146 C  
HETATM   34  O   UNL     5     -10.706  19.233  65.622  1.00  0.00    -0.458 OA 
HETATM   35  O   UNL     5      -9.585  15.802  65.581  1.00  0.00    -0.329 OA 
HETATM   36  O   UNL     5     -11.290  16.950  64.540  1.00  0.00    -1.006 OA 
HETATM   37  H   UNL     5     -11.616  19.055  65.415  1.00  0.00     0.000 HD 
ENDBRANCH  29  32
ENDBRANCH  26  29
ENDBRANCH  23  26
ENDBRANCH   7  23
TORSDOF 8
ENDMDL
MODEL       26
REMARK 921   NORMALIZED FREE ENERGY PREDICTED BY IDOCK:   -6.66 KCAL/MOL
REMARK 922        TOTAL FREE ENERGY PREDICTED BY IDOCK:  -12.02 KCAL/MOL
REMARK 923 INTER-LIGAND FREE ENERGY PREDICTED BY IDOCK:   -8.80 KCAL/MOL
REMARK 924 INTRA-LIGAND FREE ENERGY PREDICTED BY IDOCK:   -3.22 KCAL/MOL
REMARK 927      BINDING AFFINITY PREDICTED BY RF-SCORE:    0.00 PKD
ROOT
HETATM    1 MG   UNL     3     -13.484  10.131  69.827  1.00  0.00    -0.600 Mg 
HETATM    2  O   UNL     4     -10.686   5.254  72.454  1.00  0.00    -0.217 OA 
HETATM    3  C   UNL     4     -10.619   6.611  72.062  1.00  0.00    -0.211 C  
HETATM    4  H   UNL     4     -10.805   5.145  73.391  1.00  0.00     0.000 HD 
HETATM    5  O   UNL     5     -12.732  13.669  63.035  1.00  0.00    -0.835 OA 
HETATM    6  H   UNL     5     -13.295  13.283  62.375  1.00  0.00     0.000 HD 
HETATM    7  C   UNL     5     -11.982  12.678  63.736  1.00  0.00    -0.510 C  
ENDROOT
BRANCH   3   8
HETATM    8  C   UNL     4     -10.426   6.788  70.548  1.00  0.00    -0.209 C  
HETATM    9  O   UNL     4     -10.828   5.585  69.866  1.00  0.00    -0.326 OA 
HETATM   10  H   UNL     4     -10.708   5.694  68.929  1.00  0.00     0.000 HD 
BRANCH   8  11
HETATM   11  C   UNL     4     -11.150   7.965  69.832  1.00  0.00    -0.120 C  
HETATM   12  O   UNL     4     -11.758   8.884  70.733  1.00  0.00    -0.309 OA 
HETATM   13  H   UNL     4     -12.200   9.602  70.296  1.00  0.00     0.000 HD 
BRANCH  11  14
HETATM   14  C   UNL     4     -10.392   8.703  68.696  1.00  0.00    -0.193 C  
HETATM   15  H   UNL     4      -8.967   8.211  67.453  1.00  0.00     0.000 HD 
HETATM   16  O   UNL     4      -9.431   7.759  68.148  1.00  0.00    -0.145 OA 
BRANCH  14  17
HETATM   17  C   UNL     4      -9.712  10.074  68.975  1.00  0.00    -0.199 C  
HETATM   18  C   UNL     4     -10.543  11.295  68.399  1.00  0.00    -0.197 C  
HETATM   19  H   UNL     4      -7.907  10.910  68.785  1.00  0.00     0.000 HD 
HETATM   20  O   UNL     4      -8.322  10.073  68.614  1.00  0.00    -0.108 OA 
HETATM   21  O   UNL     4     -11.832  11.153  68.514  1.00  0.00    -0.452 OA 
HETATM   22  O   UNL     4      -9.929  12.230  67.814  1.00  0.00    -0.191 OA 
ENDBRANCH  14  17
ENDBRANCH  11  14
ENDBRANCH   8  11
ENDBRANCH   3   8
BRANCH   7  23
HETATM   23  C   UNL     5     -11.068  13.305  64.808  1.00  0.00    -0.342 C  
HETATM   24  O   UNL     5      -9.796  13.572  64.213  1.00  0.00    -0.713 OA 
HETATM   25  H   UNL     5      -9.233  13.958  64.873  1.00  0.00     0.000 HD 
BRANCH  23  26
HETATM   26  C   UNL     5     -11.684  14.590  65.404  1.00  0.00    -0.354 C  
HETATM   27  O   UNL     5     -13.035  14.316  65.839  1.00  0.00    -0.475 OA 
HETATM   28  H   UNL     5     -13.414  15.106  66.206  1.00  0.00     0.000 HD 
BRANCH  26  29
HETATM   29  C   UNL     5     -10.895  15.322  66.525  1.00  0.00    -0.311 C  
HETATM   30  O   UNL     5      -9.552  14.858  66.654  1.00  0.00    -0.240 OA 
HETATM   31  H   UNL     5      -9.070  15.306  67.340  1.00  0.00     0.000 HD 
BRANCH  29  32
HETATM   32  C   UNL     5     -11.571  15.473  67.898  1.00  0.00    -0.223 C  
HETATM   33  C   UNL     5     -10.713  16.118  69.006  1.00  0.00    -0.287 C  
HETATM   34  O   UNL     5     -12.101  14.178  68.355  1.00  0.00    -0.473 OA 
HETATM   35  O   UNL     5      -9.896  17.020  68.654  1.00  0.00    -0.263 OA 
HETATM   36  O   UNL     5     -10.894  15.593  70.163  1.00  0.00    -0.294 OA 
HETATM   37  H   UNL     5     -12.518  14.271  69.203  1.00  0.00     0.000 HD 
ENDBRANCH  29  32
ENDBRANCH  26  29
ENDBRANCH  23  26
ENDBRANCH   7  23
TORSDOF 8
ENDMDL
MODEL       27
REMARK 921   NORMALIZED FREE ENERGY PREDICTED BY IDOCK:   -6.66 KCAL/MOL
REMARK 922        TOTAL FREE ENERGY PREDICTED BY IDOCK:  -12.02 KCAL/MOL
REMARK 923 INTER-LIGAND FREE ENERGY PREDICTED BY IDOCK:   -9.66 KCAL/MOL
REMARK 924 INTRA-LIGAND FREE ENERGY PREDICTED BY IDOCK:   -2.36 KCAL/MOL
REMARK 927      BINDING AFFINITY PREDICTED BY RF-SCORE:    0.00 PKD
ROOT
HETATM    1 MG   UNL     3     -12.638  13.213  69.016  1.00  0.00    -0.283 Mg 
HETATM    2  O   UNL     4     -12.435  14.008  62.864  1.00  0.00    -1.028 OA 
HETATM    3  C   UNL     4     -12.910  13.257  63.965  1.00  0.00     0.166 C  
HETATM    4  H   UNL     4     -13.101  14.567  62.482  1.00  0.00     0.000 HD 
HETATM    5  O   UNL     5      -9.358   8.193  73.839  1.00  0.00    -0.276 OA 
HETATM    6  H   UNL     5      -8.510   8.498  74.139  1.00  0.00     0.000 HD 
HETATM    7  C   UNL     5      -9.482   8.283  72.420  1.00  0.00    -0.287 C  
ENDROOT
BRANCH   3   8
HETATM    8  C   UNL     4     -11.833  12.352  64.582  1.00  0.00    -0.380 C  
HETATM    9  O   UNL     4     -11.573  11.241  63.704  1.00  0.00    -0.534 OA 
HETATM   10  H   UNL     4     -10.907  10.681  64.086  1.00  0.00     0.000 HD 
BRANCH   8  11
HETATM   11  C   UNL     4     -10.448  12.969  64.935  1.00  0.00    -0.339 C  
HETATM   12  O   UNL     4      -9.677  13.315  63.790  1.00  0.00    -0.554 OA 
HETATM   13  H   UNL     4      -8.832  13.692  64.006  1.00  0.00     0.000 HD 
BRANCH  11  14
HETATM   14  C   UNL     4     -10.402  14.090  66.009  1.00  0.00    -0.306 C  
HETATM   15  H   UNL     4     -11.614  14.687  67.420  1.00  0.00     0.000 HD 
HETATM   16  O   UNL     4     -11.642  14.001  66.764  1.00  0.00    -0.348 OA 
BRANCH  14  17
HETATM   17  C   UNL     4     -10.121  15.561  65.590  1.00  0.00    -0.376 C  
HETATM   18  C   UNL     4     -10.028  16.542  66.831  1.00  0.00    -0.271 C  
HETATM   19  H   UNL     4     -10.828  16.901  64.286  1.00  0.00     0.000 HD 
HETATM   20  O   UNL     4     -11.000  16.002  64.543  1.00  0.00    -0.592 OA 
HETATM   21  O   UNL     4      -9.440  16.019  67.868  1.00  0.00    -0.208 OA 
HETATM   22  O   UNL     4     -10.585  17.672  66.759  1.00  0.00    -0.313 OA 
ENDBRANCH  14  17
ENDBRANCH  11  14
ENDBRANCH   8  11
ENDBRANCH   3   8
BRANCH   7  23
HETATM   23  C   UNL     5     -10.859   7.788  71.934  1.00  0.00    -0.235 C  
HETATM   24  O   UNL     5     -11.758   7.804  73.045  1.00  0.00    -0.613 OA 
HETATM   25  H   UNL     5     -12.607   7.499  72.746  1.00  0.00     0.000 HD 
BRANCH  23  26
HETATM   26  C   UNL     5     -11.398   8.649  70.770  1.00  0.00    -0.263 C  
HETATM   27  O   UNL     5     -12.782   8.982  71.021  1.00  0.00    -0.475 OA 
HETATM   28  H   UNL     5     -13.113   9.512  70.305  1.00  0.00     0.000 HD 
BRANCH  26  29
HETATM   29  C   UNL     5     -10.600   9.924  70.378  1.00  0.00    -0.302 C  
HETATM   30  O   UNL     5     -11.316  11.130  70.639  1.00  0.00    -0.417 OA 
HETATM   31  H   UNL     5     -10.828  11.909  70.399  1.00  0.00     0.000 HD 
BRANCH  29  32
HETATM   32  C   UNL     5      -9.932   9.956  68.994  1.00  0.00    -0.187 C  
HETATM   33  C   UNL     5     -10.861  10.268  67.802  1.00  0.00    -0.292 C  
HETATM   34  O   UNL     5      -9.194   8.706  68.749  1.00  0.00    -0.142 OA 
HETATM   35  O   UNL     5     -11.817  11.073  68.010  1.00  0.00    -0.593 OA 
HETATM   36  O   UNL     5     -10.578   9.599  66.745  1.00  0.00    -0.209 OA 
HETATM   37  H   UNL     5      -8.782   8.726  67.894  1.00  0.00     0.000 HD 
ENDBRANCH  29  32
ENDBRANCH  26  29
ENDBRANCH  23  26
ENDBRANCH   7  23
TORSDOF 8
ENDMDL
MODEL       28
REMARK 921   NORMALIZED FREE ENERGY PREDICTED BY IDOCK:   -6.65 KCAL/MOL
REMARK 922        TOTAL FREE ENERGY PREDICTED BY IDOCK:  -12.00 KCAL/MOL
REMARK 923 INTER-LIGAND FREE ENERGY PREDICTED BY IDOCK:   -8.97 KCAL/MOL
REMARK 924 INTRA-LIGAND FREE ENERGY PREDICTED BY IDOCK:   -3.04 KCAL/MOL
REMARK 927      BINDING AFFINITY PREDICTED BY RF-SCORE:    0.00 PKD
ROOT
HETATM    1 MG   UNL     3      -9.125  11.254  66.973  1.00  0.00    -0.147 Mg 
HETATM    2  O   UNL     4     -12.153  15.489  63.594  1.00  0.00    -0.961 OA 
HETATM    3  C   UNL     4     -11.712  15.057  64.867  1.00  0.00    -0.336 C  
HETATM    4  H   UNL     4     -11.638  16.209  63.248  1.00  0.00     0.000 HD 
HETATM    5  O   UNL     5     -11.380   5.677  71.771  1.00  0.00    -0.221 OA 
HETATM    6  H   UNL     5     -11.537   4.861  71.311  1.00  0.00     0.000 HD 
HETATM    7  C   UNL     5     -12.033   6.776  71.136  1.00  0.00    -0.370 C  
ENDROOT
BRANCH   3   8
HETATM    8  C   UNL     4     -12.544  13.893  65.426  1.00  0.00    -0.507 C  
HETATM    9  O   UNL     4     -12.871  12.978  64.363  1.00  0.00    -0.679 OA 
HETATM   10  H   UNL     4     -13.386  12.258  64.709  1.00  0.00     0.000 HD 
BRANCH   8  11
HETATM   11  C   UNL     4     -11.952  13.035  66.581  1.00  0.00    -0.387 C  
HETATM   12  O   UNL     4     -11.167  11.939  66.123  1.00  0.00    -0.319 OA 
HETATM   13  H   UNL     4     -10.805  11.415  66.828  1.00  0.00     0.000 HD 
BRANCH  11  14
HETATM   14  C   UNL     4     -11.259  13.774  67.758  1.00  0.00    -0.288 C  
HETATM   15  H   UNL     4      -9.562  13.563  68.701  1.00  0.00     0.000 HD 
HETATM   16  O   UNL     4      -9.985  13.111  67.982  1.00  0.00    -0.220 OA 
BRANCH  14  17
HETATM   17  C   UNL     4     -12.014  13.978  69.103  1.00  0.00    -0.360 C  
HETATM   18  C   UNL     4     -11.551  15.285  69.870  1.00  0.00    -0.311 C  
HETATM   19  H   UNL     4     -12.484  12.909  70.726  1.00  0.00     0.000 HD 
HETATM   20  O   UNL     4     -12.023  12.786  69.904  1.00  0.00    -0.321 OA 
HETATM   21  O   UNL     4     -11.303  16.294  69.084  1.00  0.00    -0.325 OA 
HETATM   22  O   UNL     4     -11.375  15.230  71.119  1.00  0.00    -0.328 OA 
ENDBRANCH  14  17
ENDBRANCH  11  14
ENDBRANCH   8  11
ENDBRANCH   3   8
BRANCH   7  23
HETATM   23  C   UNL     5     -11.779   8.101  71.883  1.00  0.00    -0.310 C  
HETATM   24  O   UNL     5     -11.585   7.805  73.268  1.00  0.00    -0.644 OA 
HETATM   25  H   UNL     5     -11.429   8.621  73.728  1.00  0.00     0.000 HD 
BRANCH  23  26
HETATM   26  C   UNL     5     -10.567   8.861  71.302  1.00  0.00    -0.281 C  
HETATM   27  O   UNL     5      -9.489   8.852  72.266  1.00  0.00    -0.327 OA 
HETATM   28  H   UNL     5      -8.743   9.320  71.908  1.00  0.00     0.000 HD 
BRANCH  26  29
HETATM   29  C   UNL     5     -10.043   8.433  69.903  1.00  0.00    -0.195 C  
HETATM   30  O   UNL     5      -8.624   8.542  69.785  1.00  0.00    -0.127 OA 
HETATM   31  H   UNL     5      -8.303   8.280  68.929  1.00  0.00     0.000 HD 
BRANCH  29  32
HETATM   32  C   UNL     5     -10.753   9.002  68.664  1.00  0.00    -0.097 C  
HETATM   33  C   UNL     5     -10.334   8.399  67.307  1.00  0.00    -0.299 C  
HETATM   34  O   UNL     5     -10.629  10.468  68.628  1.00  0.00    -0.177 OA 
HETATM   35  O   UNL     5     -10.025   7.170  67.292  1.00  0.00    -0.157 OA 
HETATM   36  O   UNL     5     -10.285   9.260  66.359  1.00  0.00    -0.273 OA 
HETATM   37  H   UNL     5     -11.068  10.820  67.862  1.00  0.00     0.000 HD 
ENDBRANCH  29  32
ENDBRANCH  26  29
ENDBRANCH  23  26
ENDBRANCH   7  23
TORSDOF 8
ENDMDL
MODEL       29
REMARK 921   NORMALIZED FREE ENERGY PREDICTED BY IDOCK:   -6.64 KCAL/MOL
REMARK 922        TOTAL FREE ENERGY PREDICTED BY IDOCK:  -11.98 KCAL/MOL
REMARK 923 INTER-LIGAND FREE ENERGY PREDICTED BY IDOCK:  -10.32 KCAL/MOL
REMARK 924 INTRA-LIGAND FREE ENERGY PREDICTED BY IDOCK:   -1.66 KCAL/MOL
REMARK 927      BINDING AFFINITY PREDICTED BY RF-SCORE:    0.00 PKD
ROOT
HETATM    1 MG   UNL     3      -8.889  10.918  69.155  1.00  0.00    -0.131 Mg 
HETATM    2  O   UNL     4     -12.573   7.313  72.612  1.00  0.00    -0.451 OA 
HETATM    3  C   UNL     4     -12.232   7.806  71.331  1.00  0.00    -0.319 C  
HETATM    4  H   UNL     4     -12.287   6.418  72.753  1.00  0.00     0.000 HD 
HETATM    5  O   UNL     5      -9.865  17.688  65.631  1.00  0.00    -0.536 OA 
HETATM    6  H   UNL     5      -9.651  18.415  66.203  1.00  0.00     0.000 HD 
HETATM    7  C   UNL     5     -10.738  16.754  66.264  1.00  0.00    -0.106 C  
ENDROOT
BRANCH   3   8
HETATM    8  C   UNL     4     -12.694   9.253  71.103  1.00  0.00    -0.240 C  
HETATM    9  O   UNL     4     -13.396   9.725  72.269  1.00  0.00    -0.501 OA 
HETATM   10  H   UNL     4     -13.683  10.620  72.128  1.00  0.00     0.000 HD 
BRANCH   8  11
HETATM   11  C   UNL     4     -11.630  10.336  70.760  1.00  0.00    -0.355 C  
HETATM   12  O   UNL     4     -10.373   9.788  70.377  1.00  0.00    -0.266 OA 
HETATM   13  H   UNL     4      -9.724  10.449  70.167  1.00  0.00     0.000 HD 
BRANCH  11  14
HETATM   14  C   UNL     4     -12.051  11.499  69.821  1.00  0.00    -0.306 C  
HETATM   15  H   UNL     4     -11.659  11.976  67.968  1.00  0.00     0.000 HD 
HETATM   16  O   UNL     4     -11.401  11.264  68.542  1.00  0.00    -0.226 OA 
BRANCH  14  17
HETATM   17  C   UNL     4     -11.855  12.975  70.272  1.00  0.00    -0.217 C  
HETATM   18  C   UNL     4     -13.025  13.486  71.211  1.00  0.00    -0.304 C  
HETATM   19  H   UNL     4     -11.431  14.743  69.443  1.00  0.00     0.000 HD 
HETATM   20  O   UNL     4     -11.552  13.842  69.168  1.00  0.00    -0.269 OA 
HETATM   21  O   UNL     4     -13.459  12.585  72.045  1.00  0.00    -0.493 OA 
HETATM   22  O   UNL     4     -13.492  14.644  71.029  1.00  0.00    -0.380 OA 
ENDBRANCH  14  17
ENDBRANCH  11  14
ENDBRANCH   8  11
ENDBRANCH   3   8
BRANCH   7  23
HETATM   23  C   UNL     5     -11.085  15.574  65.334  1.00  0.00    -0.298 C  
HETATM   24  O   UNL     5     -11.295  16.088  64.018  1.00  0.00    -1.093 OA 
HETATM   25  H   UNL     5     -11.508  15.361  63.445  1.00  0.00     0.000 HD 
BRANCH  23  26
HETATM   26  C   UNL     5      -9.978  14.497  65.342  1.00  0.00    -0.318 C  
HETATM   27  O   UNL     5      -8.801  15.025  65.993  1.00  0.00    -0.471 OA 
HETATM   28  H   UNL     5      -8.120  14.362  65.998  1.00  0.00     0.000 HD 
BRANCH  26  29
HETATM   29  C   UNL     5     -10.330  13.097  65.917  1.00  0.00    -0.290 C  
HETATM   30  O   UNL     5      -9.248  12.171  65.826  1.00  0.00    -0.407 OA 
HETATM   31  H   UNL     5      -9.462  11.315  66.178  1.00  0.00     0.000 HD 
BRANCH  29  32
HETATM   32  C   UNL     5     -11.656  12.453  65.480  1.00  0.00    -0.385 C  
HETATM   33  C   UNL     5     -11.775  12.097  63.983  1.00  0.00    -0.430 C  
HETATM   34  O   UNL     5     -12.795  13.288  65.895  1.00  0.00    -0.360 OA 
HETATM   35  O   UNL     5     -10.719  11.719  63.394  1.00  0.00    -0.391 OA 
HETATM   36  O   UNL     5     -12.945  12.302  63.501  1.00  0.00    -0.776 OA 
HETATM   37  H   UNL     5     -13.614  12.890  65.626  1.00  0.00     0.000 HD 
ENDBRANCH  29  32
ENDBRANCH  26  29
ENDBRANCH  23  26
ENDBRANCH   7  23
TORSDOF 8
ENDMDL
MODEL       30
REMARK 921   NORMALIZED FREE ENERGY PREDICTED BY IDOCK:   -6.63 KCAL/MOL
REMARK 922        TOTAL FREE ENERGY PREDICTED BY IDOCK:  -11.97 KCAL/MOL
REMARK 923 INTER-LIGAND FREE ENERGY PREDICTED BY IDOCK:  -10.08 KCAL/MOL
REMARK 924 INTRA-LIGAND FREE ENERGY PREDICTED BY IDOCK:   -1.89 KCAL/MOL
REMARK 927      BINDING AFFINITY PREDICTED BY RF-SCORE:    0.00 PKD
ROOT
HETATM    1 MG   UNL     3     -12.234   6.215  67.892  1.00  0.00    -0.390 Mg 
HETATM    2  O   UNL     4     -10.561   5.091  73.762  1.00  0.00    -0.230 OA 
HETATM    3  C   UNL     4     -11.242   5.925  72.844  1.00  0.00    -0.253 C  
HETATM    4  H   UNL     4     -11.149   4.553  74.279  1.00  0.00     0.000 HD 
HETATM    5  O   UNL     5      -9.913  11.274  62.578  1.00  0.00    -0.583 OA 
HETATM    6  H   UNL     5      -9.190  10.935  62.064  1.00  0.00     0.000 HD 
HETATM    7  C   UNL     5      -9.686  11.118  63.979  1.00  0.00    -0.283 C  
ENDROOT
BRANCH   3   8
HETATM    8  C   UNL     4     -10.291   6.794  72.007  1.00  0.00    -0.196 C  
HETATM    9  O   UNL     4     -10.570   6.608  70.607  1.00  0.00    -0.215 OA 
HETATM   10  H   UNL     4      -9.982   7.145  70.090  1.00  0.00     0.000 HD 
BRANCH   8  11
HETATM   11  C   UNL     4     -10.270   8.331  72.252  1.00  0.00    -0.305 C  
HETATM   12  O   UNL     4      -8.958   8.885  72.243  1.00  0.00    -0.388 OA 
HETATM   13  H   UNL     4      -8.946   9.823  72.392  1.00  0.00     0.000 HD 
BRANCH  11  14
HETATM   14  C   UNL     4     -11.262   9.211  71.444  1.00  0.00    -0.349 C  
HETATM   15  H   UNL     4     -13.071   8.956  70.752  1.00  0.00     0.000 HD 
HETATM   16  O   UNL     4     -12.464   8.418  71.246  1.00  0.00    -0.302 OA 
BRANCH  14  17
HETATM   17  C   UNL     4     -10.812   9.866  70.106  1.00  0.00    -0.304 C  
HETATM   18  C   UNL     4     -11.707  11.111  69.706  1.00  0.00    -0.345 C  
HETATM   19  H   UNL     4     -10.360   9.295  68.245  1.00  0.00     0.000 HD 
HETATM   20  O   UNL     4     -10.635   8.896  69.062  1.00  0.00    -0.226 OA 
HETATM   21  O   UNL     4     -12.068  11.844  70.720  1.00  0.00    -0.357 OA 
HETATM   22  O   UNL     4     -12.064  11.244  68.503  1.00  0.00    -0.573 OA 
ENDBRANCH  14  17
ENDBRANCH  11  14
ENDBRANCH   8  11
ENDBRANCH   3   8
BRANCH   7  23
HETATM   23  C   UNL     5     -10.860  11.668  64.813  1.00  0.00    -0.308 C  
HETATM   24  O   UNL     5     -10.490  11.621  66.192  1.00  0.00    -0.232 OA 
HETATM   25  H   UNL     5     -11.213  11.960  66.707  1.00  0.00     0.000 HD 
BRANCH  23  26
HETATM   26  C   UNL     5     -11.240  13.103  64.388  1.00  0.00    -0.371 C  
HETATM   27  O   UNL     5     -12.650  13.152  64.072  1.00  0.00    -0.635 OA 
HETATM   28  H   UNL     5     -12.884  14.035  63.811  1.00  0.00     0.000 HD 
BRANCH  26  29
HETATM   29  C   UNL     5     -10.861  14.270  65.343  1.00  0.00    -0.342 C  
HETATM   30  O   UNL     5     -11.712  14.351  66.485  1.00  0.00    -0.370 OA 
HETATM   31  H   UNL     5     -11.481  15.064  67.069  1.00  0.00     0.000 HD 
BRANCH  29  32
HETATM   32  C   UNL     5     -10.620  15.656  64.724  1.00  0.00    -0.183 C  
HETATM   33  C   UNL     5     -10.294  16.792  65.716  1.00  0.00    -0.305 C  
HETATM   34  O   UNL     5     -11.753  16.041  63.867  1.00  0.00    -1.248 OA 
HETATM   35  O   UNL     5      -9.620  16.485  66.744  1.00  0.00    -0.236 OA 
HETATM   36  O   UNL     5     -10.820  17.917  65.395  1.00  0.00    -0.548 OA 
HETATM   37  H   UNL     5     -11.604  16.897  63.484  1.00  0.00     0.000 HD 
ENDBRANCH  29  32
ENDBRANCH  26  29
ENDBRANCH  23  26
ENDBRANCH   7  23
TORSDOF 8
ENDMDL
MODEL       31
REMARK 921   NORMALIZED FREE ENERGY PREDICTED BY IDOCK:   -6.61 KCAL/MOL
REMARK 922        TOTAL FREE ENERGY PREDICTED BY IDOCK:  -11.94 KCAL/MOL
REMARK 923 INTER-LIGAND FREE ENERGY PREDICTED BY IDOCK:  -10.01 KCAL/MOL
REMARK 924 INTRA-LIGAND FREE ENERGY PREDICTED BY IDOCK:   -1.94 KCAL/MOL
REMARK 927      BINDING AFFINITY PREDICTED BY RF-SCORE:    0.00 PKD
ROOT
HETATM    1 MG   UNL     3     -10.083   9.069  62.648  1.00  0.00    -0.449 Mg 
HETATM    2  O   UNL     4      -8.505   4.402  66.422  1.00  0.00    -0.112 OA 
HETATM    3  C   UNL     4      -9.500   5.300  65.971  1.00  0.00    -0.156 C  
HETATM    4  H   UNL     4      -8.621   3.521  66.086  1.00  0.00     0.000 HD 
HETATM    5  O   UNL     5     -11.346  16.583  63.723  1.00  0.00    -1.553 OA 
HETATM    6  H   UNL     5     -10.546  17.088  63.636  1.00  0.00     0.000 HD 
HETATM    7  C   UNL     5     -11.172  15.463  64.591  1.00  0.00    -0.364 C  
ENDROOT
BRANCH   3   8
HETATM    8  C   UNL     4      -9.313   6.724  66.515  1.00  0.00    -0.161 C  
HETATM    9  O   UNL     4      -8.928   7.605  65.443  1.00  0.00    -0.373 OA 
HETATM   10  H   UNL     4      -8.812   8.486  65.779  1.00  0.00     0.000 HD 
BRANCH   8  11
HETATM   11  C   UNL     4     -10.503   7.411  67.245  1.00  0.00    -0.315 C  
HETATM   12  O   UNL     4     -11.314   6.501  67.981  1.00  0.00    -0.541 OA 
HETATM   13  H   UNL     4     -12.040   6.921  68.426  1.00  0.00     0.000 HD 
BRANCH  11  14
HETATM   14  C   UNL     4     -10.211   8.698  68.064  1.00  0.00    -0.210 C  
HETATM   15  H   UNL     4      -8.611   9.478  68.868  1.00  0.00     0.000 HD 
HETATM   16  O   UNL     4      -8.789   8.691  68.367  1.00  0.00    -0.140 OA 
BRANCH  14  17
HETATM   17  C   UNL     4     -11.041   9.016  69.340  1.00  0.00     0.018 C  
HETATM   18  C   UNL     4     -11.663  10.473  69.317  1.00  0.00    -0.209 C  
HETATM   19  H   UNL     4     -10.836   8.882  71.324  1.00  0.00     0.000 HD 
HETATM   20  O   UNL     4     -10.329   8.689  70.544  1.00  0.00    -0.193 OA 
HETATM   21  O   UNL     4     -12.078  10.846  68.140  1.00  0.00    -0.563 OA 
HETATM   22  O   UNL     4     -11.629  11.169  70.369  1.00  0.00    -0.310 OA 
ENDBRANCH  14  17
ENDBRANCH  11  14
ENDBRANCH   8  11
ENDBRANCH   3   8
BRANCH   7  23
HETATM   23  C   UNL     5     -12.469  14.642  64.732  1.00  0.00    -0.273 C  
HETATM   24  O   UNL     5     -12.606  13.816  63.574  1.00  0.00    -0.869 OA 
HETATM   25  H   UNL     5     -13.406  13.311  63.661  1.00  0.00     0.000 HD 
BRANCH  23  26
HETATM   26  C   UNL     5     -12.471  13.795  66.023  1.00  0.00    -0.445 C  
HETATM   27  O   UNL     5     -12.320  12.398  65.680  1.00  0.00    -0.639 OA 
HETATM   28  H   UNL     5     -12.321  11.877  66.474  1.00  0.00     0.000 HD 
BRANCH  26  29
HETATM   29  C   UNL     5     -11.473  14.183  67.150  1.00  0.00    -0.353 C  
HETATM   30  O   UNL     5     -10.619  13.105  67.530  1.00  0.00    -0.232 OA 
HETATM   31  H   UNL     5     -10.008  13.342  68.219  1.00  0.00     0.000 HD 
BRANCH  29  32
HETATM   32  C   UNL     5     -12.028  14.919  68.380  1.00  0.00    -0.221 C  
HETATM   33  C   UNL     5     -11.336  16.250  68.741  1.00  0.00    -0.329 C  
HETATM   34  O   UNL     5     -12.048  14.024  69.549  1.00  0.00    -0.320 OA 
HETATM   35  O   UNL     5     -10.907  16.956  67.781  1.00  0.00    -0.345 OA 
HETATM   36  O   UNL     5     -11.222  16.440  70.004  1.00  0.00    -0.348 OA 
HETATM   37  H   UNL     5     -12.391  14.478  70.309  1.00  0.00     0.000 HD 
ENDBRANCH  29  32
ENDBRANCH  26  29
ENDBRANCH  23  26
ENDBRANCH   7  23
TORSDOF 8
ENDMDL
MODEL       32
REMARK 921   NORMALIZED FREE ENERGY PREDICTED BY IDOCK:   -6.60 KCAL/MOL
REMARK 922        TOTAL FREE ENERGY PREDICTED BY IDOCK:  -11.93 KCAL/MOL
REMARK 923 INTER-LIGAND FREE ENERGY PREDICTED BY IDOCK:   -9.43 KCAL/MOL
REMARK 924 INTRA-LIGAND FREE ENERGY PREDICTED BY IDOCK:   -2.50 KCAL/MOL
REMARK 927      BINDING AFFINITY PREDICTED BY RF-SCORE:    0.00 PKD
ROOT
HETATM    1 MG   UNL     3     -14.206  10.241  69.456  1.00  0.00    -0.340 Mg 
HETATM    2  O   UNL     4     -10.906   6.570  73.217  1.00  0.00    -0.298 OA 
HETATM    3  C   UNL     4     -11.163   7.873  72.730  1.00  0.00    -0.405 C  
HETATM    4  H   UNL     4     -11.255   6.424  74.088  1.00  0.00     0.000 HD 
HETATM    5  O   UNL     5     -12.652  13.845  62.837  1.00  0.00    -0.966 OA 
HETATM    6  H   UNL     5     -12.840  13.295  62.086  1.00  0.00     0.000 HD 
HETATM    7  C   UNL     5     -11.866  13.159  63.812  1.00  0.00    -0.486 C  
ENDROOT
BRANCH   3   8
HETATM    8  C   UNL     4     -10.598   8.107  71.321  1.00  0.00    -0.214 C  
HETATM    9  O   UNL     4     -11.547   7.654  70.337  1.00  0.00    -0.418 OA 
HETATM   10  H   UNL     4     -11.197   7.799  69.465  1.00  0.00     0.000 HD 
BRANCH   8  11
HETATM   11  C   UNL     4     -10.190   9.551  70.907  1.00  0.00    -0.286 C  
HETATM   12  O   UNL     4      -8.781   9.729  70.803  1.00  0.00    -0.347 OA 
HETATM   13  H   UNL     4      -8.532  10.611  70.550  1.00  0.00     0.000 HD 
BRANCH  11  14
HETATM   14  C   UNL     4     -10.934  10.205  69.712  1.00  0.00    -0.280 C  
HETATM   15  H   UNL     4     -11.093   9.798  67.807  1.00  0.00     0.000 HD 
HETATM   16  O   UNL     4     -10.637   9.398  68.539  1.00  0.00    -0.213 OA 
BRANCH  14  17
HETATM   17  C   UNL     4     -10.735  11.716  69.400  1.00  0.00    -0.029 C  
HETATM   18  C   UNL     4     -12.070  12.553  69.561  1.00  0.00    -0.187 C  
HETATM   19  H   UNL     4      -9.920  12.849  67.969  1.00  0.00     0.000 HD 
HETATM   20  O   UNL     4     -10.043  11.926  68.159  1.00  0.00    -0.186 OA 
HETATM   21  O   UNL     4     -12.812  12.169  70.561  1.00  0.00    -0.039 OA 
HETATM   22  O   UNL     4     -12.350  13.428  68.696  1.00  0.00    -0.203 OA 
ENDBRANCH  14  17
ENDBRANCH  11  14
ENDBRANCH   8  11
ENDBRANCH   3   8
BRANCH   7  23
HETATM   23  C   UNL     5     -11.560  14.052  65.031  1.00  0.00    -0.350 C  
HETATM   24  O   UNL     5     -10.910  13.253  66.020  1.00  0.00    -0.272 OA 
HETATM   25  H   UNL     5     -10.721  13.803  66.771  1.00  0.00     0.000 HD 
BRANCH  23  26
HETATM   26  C   UNL     5     -10.695  15.271  64.643  1.00  0.00    -0.200 C  
HETATM   27  O   UNL     5     -11.534  16.283  64.041  1.00  0.00    -1.371 OA 
HETATM   28  H   UNL     5     -11.002  17.033  63.802  1.00  0.00     0.000 HD 
BRANCH  26  29
HETATM   29  C   UNL     5      -9.795  15.903  65.741  1.00  0.00    -0.345 C  
HETATM   30  O   UNL     5      -8.588  15.173  65.958  1.00  0.00    -0.387 OA 
HETATM   31  H   UNL     5      -8.037  15.559  66.630  1.00  0.00     0.000 HD 
BRANCH  29  32
HETATM   32  C   UNL     5     -10.455  16.302  67.071  1.00  0.00    -0.306 C  
HETATM   33  C   UNL     5     -10.282  17.774  67.498  1.00  0.00    -0.356 C  
HETATM   34  O   UNL     5     -10.016  15.405  68.153  1.00  0.00    -0.218 OA 
HETATM   35  O   UNL     5     -10.252  18.643  66.576  1.00  0.00    -0.364 OA 
HETATM   36  O   UNL     5     -10.117  17.924  68.761  1.00  0.00    -0.367 OA 
HETATM   37  H   UNL     5     -10.423  15.651  68.974  1.00  0.00     0.000 HD 
ENDBRANCH  29  32
ENDBRANCH  26  29
ENDBRANCH  23  26
ENDBRANCH   7  23
TORSDOF 8
ENDMDL
MODEL       33
REMARK 921   NORMALIZED FREE ENERGY PREDICTED BY IDOCK:   -6.53 KCAL/MOL
REMARK 922        TOTAL FREE ENERGY PREDICTED BY IDOCK:  -11.82 KCAL/MOL
REMARK 923 INTER-LIGAND FREE ENERGY PREDICTED BY IDOCK:   -8.97 KCAL/MOL
REMARK 924 INTRA-LIGAND FREE ENERGY PREDICTED BY IDOCK:   -2.85 KCAL/MOL
REMARK 927      BINDING AFFINITY PREDICTED BY RF-SCORE:    0.00 PKD
ROOT
HETATM    1 MG   UNL     3     -10.898  10.465  65.176  1.00  0.00    -0.273 Mg 
HETATM    2  O   UNL     4     -10.516   5.481  68.855  1.00  0.00    -0.223 OA 
HETATM    3  C   UNL     4     -11.041   6.776  68.634  1.00  0.00    -0.153 C  
HETATM    4  H   UNL     4     -11.155   4.792  68.711  1.00  0.00     0.000 HD 
HETATM    5  O   UNL     5      -7.895  17.543  65.484  1.00  0.00    -0.386 OA 
HETATM    6  H   UNL     5      -7.046  17.581  65.060  1.00  0.00     0.000 HD 
HETATM    7  C   UNL     5      -7.980  16.451  66.399  1.00  0.00    -0.294 C  
ENDROOT
BRANCH   3   8
HETATM    8  C   UNL     4     -10.008   7.888  68.866  1.00  0.00    -0.190 C  
HETATM    9  O   UNL     4      -8.837   7.635  68.067  1.00  0.00    -0.128 OA 
HETATM   10  H   UNL     4      -8.197   8.323  68.211  1.00  0.00     0.000 HD 
BRANCH   8  11
HETATM   11  C   UNL     4     -10.420   9.364  68.590  1.00  0.00    -0.209 C  
HETATM   12  O   UNL     4     -11.458   9.487  67.624  1.00  0.00    -0.350 OA 
HETATM   13  H   UNL     4     -11.709  10.388  67.456  1.00  0.00     0.000 HD 
BRANCH  11  14
HETATM   14  C   UNL     4     -10.668  10.291  69.811  1.00  0.00    -0.285 C  
HETATM   15  H   UNL     4     -10.718  10.027  71.746  1.00  0.00     0.000 HD 
HETATM   16  O   UNL     4     -10.565   9.459  70.999  1.00  0.00    -0.282 OA 
BRANCH  14  17
HETATM   17  C   UNL     4     -11.946  11.175  69.871  1.00  0.00    -0.363 C  
HETATM   18  C   UNL     4     -11.770  12.554  69.110  1.00  0.00    -0.321 C  
HETATM   19  H   UNL     4     -13.243  11.831  71.243  1.00  0.00     0.000 HD 
HETATM   20  O   UNL     4     -12.462  11.291  71.206  1.00  0.00    -0.368 OA 
HETATM   21  O   UNL     4     -11.073  12.462  68.014  1.00  0.00    -0.219 OA 
HETATM   22  O   UNL     4     -12.218  13.607  69.642  1.00  0.00    -0.314 OA 
ENDBRANCH  14  17
ENDBRANCH  11  14
ENDBRANCH   8  11
ENDBRANCH   3   8
BRANCH   7  23
HETATM   23  C   UNL     5      -9.359  16.388  67.087  1.00  0.00    -0.218 C  
HETATM   24  O   UNL     5     -10.039  17.620  66.841  1.00  0.00    -0.305 OA 
HETATM   25  H   UNL     5     -10.888  17.582  67.265  1.00  0.00     0.000 HD 
BRANCH  23  26
HETATM   26  C   UNL     5     -10.191  15.185  66.590  1.00  0.00    -0.266 C  
HETATM   27  O   UNL     5     -11.513  15.244  67.172  1.00  0.00    -0.307 OA 
HETATM   28  H   UNL     5     -12.024  14.504  66.866  1.00  0.00     0.000 HD 
BRANCH  26  29
HETATM   29  C   UNL     5     -10.287  14.951  65.057  1.00  0.00    -0.370 C  
HETATM   30  O   UNL     5     -10.904  16.038  64.367  1.00  0.00    -0.877 OA 
HETATM   31  H   UNL     5     -10.963  15.895  63.429  1.00  0.00     0.000 HD 
BRANCH  29  32
HETATM   32  C   UNL     5     -10.830  13.598  64.569  1.00  0.00    -0.406 C  
HETATM   33  C   UNL     5     -12.330  13.340  64.821  1.00  0.00    -0.402 C  
HETATM   34  O   UNL     5     -10.026  12.494  65.118  1.00  0.00    -0.361 OA 
HETATM   35  O   UNL     5     -13.107  14.339  64.756  1.00  0.00    -0.599 OA 
HETATM   36  O   UNL     5     -12.593  12.126  65.139  1.00  0.00    -0.505 OA 
HETATM   37  H   UNL     5     -10.360  11.658  64.816  1.00  0.00     0.000 HD 
ENDBRANCH  29  32
ENDBRANCH  26  29
ENDBRANCH  23  26
ENDBRANCH   7  23
TORSDOF 8
ENDMDL
MODEL       34
REMARK 921   NORMALIZED FREE ENERGY PREDICTED BY IDOCK:   -6.52 KCAL/MOL
REMARK 922        TOTAL FREE ENERGY PREDICTED BY IDOCK:  -11.81 KCAL/MOL
REMARK 923 INTER-LIGAND FREE ENERGY PREDICTED BY IDOCK:   -9.02 KCAL/MOL
REMARK 924 INTRA-LIGAND FREE ENERGY PREDICTED BY IDOCK:   -2.79 KCAL/MOL
REMARK 927      BINDING AFFINITY PREDICTED BY RF-SCORE:    0.00 PKD
ROOT
HETATM    1 MG   UNL     3     -10.024   8.943  62.777  1.00  0.00    -0.450 Mg 
HETATM    2  O   UNL     4      -7.828   4.500  66.513  1.00  0.00    -0.097 OA 
HETATM    3  C   UNL     4      -8.907   5.337  66.144  1.00  0.00    -0.135 C  
HETATM    4  H   UNL     4      -7.939   3.602  66.222  1.00  0.00     0.000 HD 
HETATM    5  O   UNL     5     -11.510  16.433  63.725  1.00  0.00    -1.590 OA 
HETATM    6  H   UNL     5     -10.750  16.968  63.533  1.00  0.00     0.000 HD 
HETATM    7  C   UNL     5     -11.191  15.356  64.606  1.00  0.00    -0.364 C  
ENDROOT
BRANCH   3   8
HETATM    8  C   UNL     4      -8.728   6.787  66.614  1.00  0.00    -0.127 C  
HETATM    9  O   UNL     4      -7.923   6.813  67.807  1.00  0.00    -0.110 OA 
HETATM   10  H   UNL     4      -7.812   7.711  68.099  1.00  0.00     0.000 HD 
BRANCH   8  11
HETATM   11  C   UNL     4      -8.099   7.821  65.635  1.00  0.00    -0.129 C  
HETATM   12  O   UNL     4      -8.349   7.524  64.265  1.00  0.00    -0.349 OA 
HETATM   13  H   UNL     4      -7.965   8.155  63.668  1.00  0.00     0.000 HD 
BRANCH  11  14
HETATM   14  C   UNL     4      -8.309   9.330  65.934  1.00  0.00    -0.118 C  
HETATM   15  H   UNL     4      -8.095  10.456  67.516  1.00  0.00     0.000 HD 
HETATM   16  O   UNL     4      -7.967   9.533  67.333  1.00  0.00    -0.105 OA 
BRANCH  14  17
HETATM   17  C   UNL     4      -9.667  10.010  65.599  1.00  0.00    -0.272 C  
HETATM   18  C   UNL     4      -9.545  11.074  64.431  1.00  0.00    -0.259 C  
HETATM   19  H   UNL     4     -11.168  10.903  66.572  1.00  0.00     0.000 HD 
HETATM   20  O   UNL     4     -10.338  10.488  66.776  1.00  0.00    -0.228 OA 
HETATM   21  O   UNL     4      -8.723  10.721  63.484  1.00  0.00    -0.167 OA 
HETATM   22  O   UNL     4     -10.152  12.175  64.542  1.00  0.00    -0.279 OA 
ENDBRANCH  14  17
ENDBRANCH  11  14
ENDBRANCH   8  11
ENDBRANCH   3   8
BRANCH   7  23
HETATM   23  C   UNL     5     -12.426  14.487  64.919  1.00  0.00    -0.311 C  
HETATM   24  O   UNL     5     -12.543  13.492  63.900  1.00  0.00    -0.681 OA 
HETATM   25  H   UNL     5     -13.304  12.957  64.093  1.00  0.00     0.000 HD 
BRANCH  23  26
HETATM   26  C   UNL     5     -12.331  13.843  66.319  1.00  0.00    -0.449 C  
HETATM   27  O   UNL     5     -12.299  12.403  66.182  1.00  0.00    -0.606 OA 
HETATM   28  H   UNL     5     -12.241  12.007  67.044  1.00  0.00     0.000 HD 
BRANCH  26  29
HETATM   29  C   UNL     5     -11.193  14.319  67.264  1.00  0.00    -0.318 C  
HETATM   30  O   UNL     5     -10.246  13.292  67.555  1.00  0.00    -0.220 OA 
HETATM   31  H   UNL     5      -9.550  13.583  68.133  1.00  0.00     0.000 HD 
BRANCH  29  32
HETATM   32  C   UNL     5     -11.588  15.092  68.532  1.00  0.00    -0.335 C  
HETATM   33  C   UNL     5     -10.427  15.507  69.461  1.00  0.00    -0.263 C  
HETATM   34  O   UNL     5     -12.605  14.348  69.293  1.00  0.00    -0.553 OA 
HETATM   35  O   UNL     5      -9.327  15.809  68.910  1.00  0.00    -0.199 OA 
HETATM   36  O   UNL     5     -10.716  15.423  70.707  1.00  0.00    -0.306 OA 
HETATM   37  H   UNL     5     -12.849  14.826  70.076  1.00  0.00     0.000 HD 
ENDBRANCH  29  32
ENDBRANCH  26  29
ENDBRANCH  23  26
ENDBRANCH   7  23
TORSDOF 8
ENDMDL
MODEL       35
REMARK 921   NORMALIZED FREE ENERGY PREDICTED BY IDOCK:   -6.51 KCAL/MOL
REMARK 922        TOTAL FREE ENERGY PREDICTED BY IDOCK:  -11.80 KCAL/MOL
REMARK 923 INTER-LIGAND FREE ENERGY PREDICTED BY IDOCK:   -9.93 KCAL/MOL
REMARK 924 INTRA-LIGAND FREE ENERGY PREDICTED BY IDOCK:   -1.87 KCAL/MOL
REMARK 927      BINDING AFFINITY PREDICTED BY RF-SCORE:    0.00 PKD
ROOT
HETATM    1 MG   UNL     3      -8.075  11.926  65.989  1.00  0.00    -0.260 Mg 
HETATM    2  O   UNL     4     -11.422  16.670  63.795  1.00  0.00    -1.518 OA 
HETATM    3  C   UNL     4     -10.979  15.925  64.914  1.00  0.00    -0.411 C  
HETATM    4  H   UNL     4     -10.975  17.504  63.705  1.00  0.00     0.000 HD 
HETATM    5  O   UNL     5      -9.884   5.004  68.822  1.00  0.00    -0.153 OA 
HETATM    6  H   UNL     5      -9.938   4.348  68.137  1.00  0.00     0.000 HD 
HETATM    7  C   UNL     5     -10.628   6.176  68.492  1.00  0.00    -0.271 C  
ENDROOT
BRANCH   3   8
HETATM    8  C   UNL     4     -11.701  14.578  65.060  1.00  0.00    -0.392 C  
HETATM    9  O   UNL     4     -11.907  13.996  63.759  1.00  0.00    -0.666 OA 
HETATM   10  H   UNL     4     -12.354  13.162  63.849  1.00  0.00     0.000 HD 
BRANCH   8  11
HETATM   11  C   UNL     4     -11.053  13.471  65.941  1.00  0.00    -0.284 C  
HETATM   12  O   UNL     4     -11.343  13.614  67.328  1.00  0.00    -0.298 OA 
HETATM   13  H   UNL     4     -10.947  12.938  67.865  1.00  0.00     0.000 HD 
BRANCH  11  14
HETATM   14  C   UNL     4     -11.197  11.995  65.481  1.00  0.00    -0.321 C  
HETATM   15  H   UNL     4     -11.985  10.386  66.261  1.00  0.00     0.000 HD 
HETATM   16  O   UNL     4     -11.896  11.289  66.543  1.00  0.00    -0.251 OA 
BRANCH  14  17
HETATM   17  C   UNL     4      -9.945  11.194  65.025  1.00  0.00    -0.273 C  
HETATM   18  C   UNL     4      -9.760  11.195  63.451  1.00  0.00    -0.352 C  
HETATM   19  H   UNL     4      -9.116   9.405  65.355  1.00  0.00     0.000 HD 
HETATM   20  O   UNL     4      -9.881   9.895  65.634  1.00  0.00    -0.266 OA 
HETATM   21  O   UNL     4     -10.071  12.327  62.887  1.00  0.00    -0.168 OA 
HETATM   22  O   UNL     4      -9.431  10.122  62.874  1.00  0.00    -0.299 OA 
ENDBRANCH  14  17
ENDBRANCH  11  14
ENDBRANCH   8  11
ENDBRANCH   3   8
BRANCH   7  23
HETATM   23  C   UNL     5     -10.541   7.241  69.605  1.00  0.00    -0.235 C  
HETATM   24  O   UNL     5      -9.577   6.806  70.566  1.00  0.00    -0.169 OA 
HETATM   25  H   UNL     5      -9.524   7.462  71.251  1.00  0.00     0.000 HD 
BRANCH  23  26
HETATM   26  C   UNL     5     -10.174   8.630  69.038  1.00  0.00    -0.207 C  
HETATM   27  O   UNL     5     -11.006   8.914  67.890  1.00  0.00    -0.488 OA 
HETATM   28  H   UNL     5     -10.780   9.769  67.542  1.00  0.00     0.000 HD 
BRANCH  26  29
HETATM   29  C   UNL     5     -10.175   9.838  70.016  1.00  0.00    -0.263 C  
HETATM   30  O   UNL     5      -9.159   9.746  71.014  1.00  0.00    -0.341 OA 
HETATM   31  H   UNL     5      -9.159  10.485  71.612  1.00  0.00     0.000 HD 
BRANCH  29  32
HETATM   32  C   UNL     5     -11.520  10.269  70.625  1.00  0.00    -0.349 C  
HETATM   33  C   UNL     5     -12.146   9.292  71.642  1.00  0.00    -0.379 C  
HETATM   34  O   UNL     5     -12.488  10.584  69.562  1.00  0.00    -0.598 OA 
HETATM   35  O   UNL     5     -11.351   8.640  72.382  1.00  0.00    -0.359 OA 
HETATM   36  O   UNL     5     -13.423   9.214  71.555  1.00  0.00    -0.360 OA 
HETATM   37  H   UNL     5     -13.318  10.850  69.937  1.00  0.00     0.000 HD 
ENDBRANCH  29  32
ENDBRANCH  26  29
ENDBRANCH  23  26
ENDBRANCH   7  23
TORSDOF 8
ENDMDL
MODEL       36
REMARK 921   NORMALIZED FREE ENERGY PREDICTED BY IDOCK:   -6.50 KCAL/MOL
REMARK 922        TOTAL FREE ENERGY PREDICTED BY IDOCK:  -11.78 KCAL/MOL
REMARK 923 INTER-LIGAND FREE ENERGY PREDICTED BY IDOCK:  -10.04 KCAL/MOL
REMARK 924 INTRA-LIGAND FREE ENERGY PREDICTED BY IDOCK:   -1.74 KCAL/MOL
REMARK 927      BINDING AFFINITY PREDICTED BY RF-SCORE:    0.00 PKD
ROOT
HETATM    1 MG   UNL     3      -9.424   9.121  63.395  1.00  0.00    -0.382 Mg 
HETATM    2  O   UNL     4      -8.470   4.709  67.654  1.00  0.00    -0.103 OA 
HETATM    3  C   UNL     4      -9.389   5.513  66.940  1.00  0.00    -0.127 C  
HETATM    4  H   UNL     4      -8.442   3.812  67.342  1.00  0.00     0.000 HD 
HETATM    5  O   UNL     5     -11.417  16.544  63.783  1.00  0.00    -1.615 OA 
HETATM    6  H   UNL     5     -10.656  17.107  63.861  1.00  0.00     0.000 HD 
HETATM    7  C   UNL     5     -11.377  15.468  64.720  1.00  0.00    -0.357 C  
ENDROOT
BRANCH   3   8
HETATM    8  C   UNL     4      -9.433   6.963  67.443  1.00  0.00    -0.132 C  
HETATM    9  O   UNL     4      -9.573   7.860  66.325  1.00  0.00    -0.330 OA 
HETATM   10  H   UNL     4      -9.600   8.757  66.637  1.00  0.00     0.000 HD 
BRANCH   8  11
HETATM   11  C   UNL     4     -10.530   7.367  68.472  1.00  0.00    -0.186 C  
HETATM   12  O   UNL     4     -11.752   6.658  68.298  1.00  0.00    -0.431 OA 
HETATM   13  H   UNL     4     -12.421   6.905  68.927  1.00  0.00     0.000 HD 
BRANCH  11  14
HETATM   14  C   UNL     4     -10.129   7.447  69.970  1.00  0.00    -0.191 C  
HETATM   15  H   UNL     4      -9.271   6.222  71.227  1.00  0.00     0.000 HD 
HETATM   16  O   UNL     4      -9.516   6.173  70.311  1.00  0.00    -0.158 OA 
BRANCH  14  17
HETATM   17  C   UNL     4     -11.185   7.849  71.039  1.00  0.00    -0.269 C  
HETATM   18  C   UNL     4     -10.538   8.136  72.457  1.00  0.00    -0.340 C  
HETATM   19  H   UNL     4     -12.947   7.194  71.716  1.00  0.00     0.000 HD 
HETATM   20  O   UNL     4     -12.302   6.948  71.063  1.00  0.00    -0.381 OA 
HETATM   21  O   UNL     4      -9.386   8.741  72.395  1.00  0.00    -0.331 OA 
HETATM   22  O   UNL     4     -11.113   7.696  73.491  1.00  0.00    -0.315 OA 
ENDBRANCH  14  17
ENDBRANCH  11  14
ENDBRANCH   8  11
ENDBRANCH   3   8
BRANCH   7  23
HETATM   23  C   UNL     5     -12.612  14.553  64.593  1.00  0.00    -0.200 C  
HETATM   24  O   UNL     5     -12.729  14.145  63.229  1.00  0.00    -0.952 OA 
HETATM   25  H   UNL     5     -13.490  13.582  63.151  1.00  0.00     0.000 HD 
BRANCH  23  26
HETATM   26  C   UNL     5     -12.517  13.331  65.533  1.00  0.00    -0.474 C  
HETATM   27  O   UNL     5     -12.885  12.137  64.805  1.00  0.00    -0.555 OA 
HETATM   28  H   UNL     5     -12.826  11.386  65.384  1.00  0.00     0.000 HD 
BRANCH  26  29
HETATM   29  C   UNL     5     -11.184  13.105  66.300  1.00  0.00    -0.301 C  
HETATM   30  O   UNL     5     -10.283  12.243  65.606  1.00  0.00    -0.250 OA 
HETATM   31  H   UNL     5      -9.468  12.105  66.075  1.00  0.00     0.000 HD 
BRANCH  29  32
HETATM   32  C   UNL     5     -11.266  12.746  67.792  1.00  0.00    -0.275 C  
HETATM   33  C   UNL     5     -11.632  11.283  68.117  1.00  0.00    -0.289 C  
HETATM   34  O   UNL     5     -12.178  13.665  68.493  1.00  0.00    -0.372 OA 
HETATM   35  O   UNL     5     -11.207  10.391  67.323  1.00  0.00    -0.284 OA 
HETATM   36  O   UNL     5     -12.398  11.162  69.139  1.00  0.00    -0.438 OA 
HETATM   37  H   UNL     5     -12.229  13.443  69.415  1.00  0.00     0.000 HD 
ENDBRANCH  29  32
ENDBRANCH  26  29
ENDBRANCH  23  26
ENDBRANCH   7  23
TORSDOF 8
ENDMDL
MODEL       37
REMARK 921   NORMALIZED FREE ENERGY PREDICTED BY IDOCK:   -6.49 KCAL/MOL
REMARK 922        TOTAL FREE ENERGY PREDICTED BY IDOCK:  -11.77 KCAL/MOL
REMARK 923 INTER-LIGAND FREE ENERGY PREDICTED BY IDOCK:   -9.76 KCAL/MOL
REMARK 924 INTRA-LIGAND FREE ENERGY PREDICTED BY IDOCK:   -2.01 KCAL/MOL
REMARK 927      BINDING AFFINITY PREDICTED BY RF-SCORE:    0.00 PKD
ROOT
HETATM    1 MG   UNL     3     -10.836   8.465  66.028  1.00  0.00    -0.345 Mg 
HETATM    2  O   UNL     4     -12.377  13.590  62.886  1.00  0.00    -0.909 OA 
HETATM    3  C   UNL     4     -11.469  12.938  63.753  1.00  0.00    -0.459 C  
HETATM    4  H   UNL     4     -12.053  13.660  61.995  1.00  0.00     0.000 HD 
HETATM    5  O   UNL     5     -11.056   6.524  73.471  1.00  0.00    -0.475 OA 
HETATM    6  H   UNL     5     -11.891   6.140  73.708  1.00  0.00     0.000 HD 
HETATM    7  C   UNL     5     -11.220   7.744  72.749  1.00  0.00    -0.398 C  
ENDROOT
BRANCH   3   8
HETATM    8  C   UNL     4     -11.992  12.825  65.192  1.00  0.00    -0.424 C  
HETATM    9  O   UNL     4     -11.279  11.785  65.887  1.00  0.00    -0.324 OA 
HETATM   10  H   UNL     4     -11.603  11.715  66.777  1.00  0.00     0.000 HD 
BRANCH   8  11
HETATM   11  C   UNL     4     -11.943  14.082  66.110  1.00  0.00    -0.420 C  
HETATM   12  O   UNL     4     -12.521  13.865  67.392  1.00  0.00    -0.468 OA 
HETATM   13  H   UNL     4     -12.490  14.633  67.952  1.00  0.00     0.000 HD 
BRANCH  11  14
HETATM   14  C   UNL     4     -10.599  14.853  66.216  1.00  0.00    -0.308 C  
HETATM   15  H   UNL     4      -8.876  14.494  67.063  1.00  0.00     0.000 HD 
HETATM   16  O   UNL     4      -9.698  14.022  66.998  1.00  0.00    -0.241 OA 
BRANCH  14  17
HETATM   17  C   UNL     4     -10.581  16.319  66.736  1.00  0.00    -0.257 C  
HETATM   18  C   UNL     4     -10.429  17.379  65.567  1.00  0.00    -0.101 C  
HETATM   19  H   UNL     4      -9.652  17.391  68.144  1.00  0.00     0.000 HD 
HETATM   20  O   UNL     4      -9.663  16.496  67.827  1.00  0.00    -0.231 OA 
HETATM   21  O   UNL     4     -11.080  17.062  64.485  1.00  0.00    -1.098 OA 
HETATM   22  O   UNL     4      -9.651  18.359  65.729  1.00  0.00    -0.463 OA 
ENDBRANCH  14  17
ENDBRANCH  11  14
ENDBRANCH   8  11
ENDBRANCH   3   8
BRANCH   7  23
HETATM   23  C   UNL     5      -9.863   8.368  72.364  1.00  0.00    -0.308 C  
HETATM   24  O   UNL     5      -8.927   7.309  72.156  1.00  0.00    -0.131 OA 
HETATM   25  H   UNL     5      -8.091   7.693  71.919  1.00  0.00     0.000 HD 
BRANCH  23  26
HETATM   26  C   UNL     5      -9.981   9.261  71.110  1.00  0.00    -0.286 C  
HETATM   27  O   UNL     5      -8.860   9.006  70.233  1.00  0.00    -0.155 OA 
HETATM   28  H   UNL     5      -8.932   9.556  69.462  1.00  0.00     0.000 HD 
BRANCH  26  29
HETATM   29  C   UNL     5     -11.312   9.219  70.309  1.00  0.00    -0.203 C  
HETATM   30  O   UNL     5     -11.205   8.477  69.094  1.00  0.00    -0.423 OA 
HETATM   31  H   UNL     5     -12.019   8.450  68.604  1.00  0.00     0.000 HD 
BRANCH  29  32
HETATM   32  C   UNL     5     -12.063  10.542  70.092  1.00  0.00    -0.300 C  
HETATM   33  C   UNL     5     -11.251  11.683  69.446  1.00  0.00    -0.246 C  
HETATM   34  O   UNL     5     -12.669  11.002  71.353  1.00  0.00    -0.401 OA 
HETATM   35  O   UNL     5     -10.381  11.357  68.584  1.00  0.00    -0.192 OA 
HETATM   36  O   UNL     5     -11.522  12.840  69.928  1.00  0.00    -0.195 OA 
HETATM   37  H   UNL     5     -13.133  11.819  71.220  1.00  0.00     0.000 HD 
ENDBRANCH  29  32
ENDBRANCH  26  29
ENDBRANCH  23  26
ENDBRANCH   7  23
TORSDOF 8
ENDMDL
MODEL       38
REMARK 921   NORMALIZED FREE ENERGY PREDICTED BY IDOCK:   -6.49 KCAL/MOL
REMARK 922        TOTAL FREE ENERGY PREDICTED BY IDOCK:  -11.77 KCAL/MOL
REMARK 923 INTER-LIGAND FREE ENERGY PREDICTED BY IDOCK:   -9.64 KCAL/MOL
REMARK 924 INTRA-LIGAND FREE ENERGY PREDICTED BY IDOCK:   -2.13 KCAL/MOL
REMARK 927      BINDING AFFINITY PREDICTED BY RF-SCORE:    0.00 PKD
ROOT
HETATM    1 MG   UNL     3     -10.382  10.988  66.439  1.00  0.00    -0.196 Mg 
HETATM    2  O   UNL     4      -9.291  17.056  65.725  1.00  0.00    -0.524 OA 
HETATM    3  C   UNL     4      -8.979  15.848  66.391  1.00  0.00    -0.326 C  
HETATM    4  H   UNL     4      -8.640  17.301  65.077  1.00  0.00     0.000 HD 
HETATM    5  O   UNL     5     -13.942   6.827  71.844  1.00  0.00    -0.447 OA 
HETATM    6  H   UNL     5     -14.870   6.737  71.663  1.00  0.00     0.000 HD 
HETATM    7  C   UNL     5     -13.513   8.184  71.747  1.00  0.00    -0.350 C  
ENDROOT
BRANCH   3   8
HETATM    8  C   UNL     4     -10.032  15.452  67.437  1.00  0.00    -0.229 C  
HETATM    9  O   UNL     4     -10.805  16.609  67.807  1.00  0.00    -0.340 OA 
HETATM   10  H   UNL     4     -11.457  16.365  68.454  1.00  0.00     0.000 HD 
BRANCH   8  11
HETATM   11  C   UNL     4     -11.054  14.332  67.086  1.00  0.00    -0.311 C  
HETATM   12  O   UNL     4     -12.294  14.467  67.772  1.00  0.00    -0.620 OA 
HETATM   13  H   UNL     4     -12.918  13.783  67.557  1.00  0.00     0.000 HD 
BRANCH  11  14
HETATM   14  C   UNL     4     -11.269  13.985  65.588  1.00  0.00    -0.310 C  
HETATM   15  H   UNL     4     -11.667  15.026  63.983  1.00  0.00     0.000 HD 
HETATM   16  O   UNL     4     -11.535  15.238  64.900  1.00  0.00    -0.378 OA 
BRANCH  14  17
HETATM   17  C   UNL     4     -12.311  12.905  65.179  1.00  0.00    -0.493 C  
HETATM   18  C   UNL     4     -12.073  12.352  63.713  1.00  0.00    -0.529 C  
HETATM   19  H   UNL     4     -14.295  12.663  65.201  1.00  0.00     0.000 HD 
HETATM   20  O   UNL     4     -13.658  13.323  65.450  1.00  0.00    -0.299 OA 
HETATM   21  O   UNL     4     -10.816  12.219  63.401  1.00  0.00    -0.449 OA 
HETATM   22  O   UNL     4     -13.069  12.176  62.958  1.00  0.00    -0.496 OA 
ENDBRANCH  14  17
ENDBRANCH  11  14
ENDBRANCH   8  11
ENDBRANCH   3   8
BRANCH   7  23
HETATM   23  C   UNL     5     -12.006   8.330  72.042  1.00  0.00    -0.348 C  
HETATM   24  O   UNL     5     -11.736   7.722  73.307  1.00  0.00    -0.659 OA 
HETATM   25  H   UNL     5     -10.808   7.812  73.488  1.00  0.00     0.000 HD 
BRANCH  23  26
HETATM   26  C   UNL     5     -11.143   7.701  70.927  1.00  0.00    -0.263 C  
HETATM   27  O   UNL     5     -12.005   7.112  69.927  1.00  0.00    -0.558 OA 
HETATM   28  H   UNL     5     -11.474   6.725  69.241  1.00  0.00     0.000 HD 
BRANCH  26  29
HETATM   29  C   UNL     5     -10.066   8.594  70.250  1.00  0.00    -0.187 C  
HETATM   30  O   UNL     5     -10.164   9.966  70.629  1.00  0.00    -0.334 OA 
HETATM   31  H   UNL     5      -9.505  10.513  70.215  1.00  0.00     0.000 HD 
BRANCH  29  32
HETATM   32  C   UNL     5      -9.857   8.445  68.734  1.00  0.00    -0.173 C  
HETATM   33  C   UNL     5      -8.520   8.979  68.179  1.00  0.00    -0.129 C  
HETATM   34  O   UNL     5     -10.986   9.040  67.999  1.00  0.00    -0.480 OA 
HETATM   35  O   UNL     5      -7.501   8.868  68.923  1.00  0.00    -0.079 OA 
HETATM   36  O   UNL     5      -8.632   9.542  67.033  1.00  0.00    -0.126 OA 
HETATM   37  H   UNL     5     -10.857   8.948  67.063  1.00  0.00     0.000 HD 
ENDBRANCH  29  32
ENDBRANCH  26  29
ENDBRANCH  23  26
ENDBRANCH   7  23
TORSDOF 8
ENDMDL
MODEL       39
REMARK 921   NORMALIZED FREE ENERGY PREDICTED BY IDOCK:   -6.49 KCAL/MOL
REMARK 922        TOTAL FREE ENERGY PREDICTED BY IDOCK:  -11.77 KCAL/MOL
REMARK 923 INTER-LIGAND FREE ENERGY PREDICTED BY IDOCK:   -9.13 KCAL/MOL
REMARK 924 INTRA-LIGAND FREE ENERGY PREDICTED BY IDOCK:   -2.63 KCAL/MOL
REMARK 927      BINDING AFFINITY PREDICTED BY RF-SCORE:    0.00 PKD
ROOT
HETATM    1 MG   UNL     3     -13.488  10.823  70.248  1.00  0.00    -0.303 Mg 
HETATM    2  O   UNL     4     -11.890   5.524  73.056  1.00  0.00    -0.537 OA 
HETATM    3  C   UNL     4     -11.488   6.770  72.520  1.00  0.00    -0.231 C  
HETATM    4  H   UNL     4     -11.913   5.519  74.006  1.00  0.00     0.000 HD 
HETATM    5  O   UNL     5     -12.646  13.509  63.086  1.00  0.00    -0.882 OA 
HETATM    6  H   UNL     5     -13.378  13.264  62.532  1.00  0.00     0.000 HD 
HETATM    7  C   UNL     5     -12.127  12.389  63.803  1.00  0.00    -0.529 C  
ENDROOT
BRANCH   3   8
HETATM    8  C   UNL     4     -11.452   6.778  70.985  1.00  0.00    -0.324 C  
HETATM    9  O   UNL     4     -12.665   7.363  70.475  1.00  0.00    -0.564 OA 
HETATM   10  H   UNL     4     -12.643   7.368  69.525  1.00  0.00     0.000 HD 
BRANCH   8  11
HETATM   11  C   UNL     4     -10.277   7.504  70.266  1.00  0.00    -0.204 C  
HETATM   12  O   UNL     4      -9.827   6.824  69.099  1.00  0.00    -0.155 OA 
HETATM   13  H   UNL     4      -9.110   7.267  68.661  1.00  0.00     0.000 HD 
BRANCH  11  14
HETATM   14  C   UNL     4     -10.406   9.031  70.019  1.00  0.00    -0.206 C  
HETATM   15  H   UNL     4     -11.457  10.467  70.825  1.00  0.00     0.000 HD 
HETATM   16  O   UNL     4     -11.378   9.532  70.977  1.00  0.00    -0.292 OA 
BRANCH  14  17
HETATM   17  C   UNL     4     -10.718   9.566  68.592  1.00  0.00    -0.184 C  
HETATM   18  C   UNL     4      -9.410   9.958  67.788  1.00  0.00    -0.140 C  
HETATM   19  H   UNL     4     -11.929  10.905  67.733  1.00  0.00     0.000 HD 
HETATM   20  O   UNL     4     -11.738  10.578  68.605  1.00  0.00    -0.277 OA 
HETATM   21  O   UNL     4      -8.407   9.153  67.994  1.00  0.00    -0.119 OA 
HETATM   22  O   UNL     4      -9.406  11.022  67.110  1.00  0.00    -0.162 OA 
ENDBRANCH  14  17
ENDBRANCH  11  14
ENDBRANCH   8  11
ENDBRANCH   3   8
BRANCH   7  23
HETATM   23  C   UNL     5     -10.940  12.787  64.703  1.00  0.00    -0.327 C  
HETATM   24  O   UNL     5      -9.793  12.981  63.872  1.00  0.00    -0.709 OA 
HETATM   25  H   UNL     5      -9.062  13.226  64.426  1.00  0.00     0.000 HD 
BRANCH  23  26
HETATM   26  C   UNL     5     -11.249  14.055  65.529  1.00  0.00    -0.311 C  
HETATM   27  O   UNL     5     -12.639  14.041  65.925  1.00  0.00    -0.488 OA 
HETATM   28  H   UNL     5     -12.829  14.821  66.434  1.00  0.00     0.000 HD 
BRANCH  26  29
HETATM   29  C   UNL     5     -10.343  14.363  66.753  1.00  0.00    -0.273 C  
HETATM   30  O   UNL     5      -9.033  13.812  66.628  1.00  0.00    -0.377 OA 
HETATM   31  H   UNL     5      -8.479  14.001  67.377  1.00  0.00     0.000 HD 
BRANCH  29  32
HETATM   32  C   UNL     5     -10.922  14.118  68.156  1.00  0.00    -0.249 C  
HETATM   33  C   UNL     5     -11.152  15.374  69.022  1.00  0.00    -0.268 C  
HETATM   34  O   UNL     5     -10.100  13.140  68.888  1.00  0.00    -0.419 OA 
HETATM   35  O   UNL     5     -11.502  16.434  68.422  1.00  0.00    -0.338 OA 
HETATM   36  O   UNL     5     -10.885  15.194  70.264  1.00  0.00    -0.265 OA 
HETATM   37  H   UNL     5     -10.458  12.989  69.755  1.00  0.00     0.000 HD 
ENDBRANCH  29  32
ENDBRANCH  26  29
ENDBRANCH  23  26
ENDBRANCH   7  23
TORSDOF 8
ENDMDL
MODEL       40
REMARK 921   NORMALIZED FREE ENERGY PREDICTED BY IDOCK:   -6.48 KCAL/MOL
REMARK 922        TOTAL FREE ENERGY PREDICTED BY IDOCK:  -11.75 KCAL/MOL
REMARK 923 INTER-LIGAND FREE ENERGY PREDICTED BY IDOCK:   -8.30 KCAL/MOL
REMARK 924 INTRA-LIGAND FREE ENERGY PREDICTED BY IDOCK:   -3.45 KCAL/MOL
REMARK 927      BINDING AFFINITY PREDICTED BY RF-SCORE:    0.00 PKD
ROOT
HETATM    1 MG   UNL     3     -11.147  11.958  69.033  1.00  0.00    -0.182 Mg 
HETATM    2  O   UNL     4     -12.048  13.694  63.142  1.00  0.00    -0.902 OA 
HETATM    3  C   UNL     4     -12.483  12.932  64.252  1.00  0.00    -0.349 C  
HETATM    4  H   UNL     4     -12.571  14.474  63.001  1.00  0.00     0.000 HD 
HETATM    5  O   UNL     5      -8.641   5.480  72.343  1.00  0.00    -0.118 OA 
HETATM    6  H   UNL     5      -7.696   5.479  72.440  1.00  0.00     0.000 HD 
HETATM    7  C   UNL     5      -9.036   5.840  71.019  1.00  0.00    -0.146 C  
ENDROOT
BRANCH   3   8
HETATM    8  C   UNL     4     -11.637  11.670  64.480  1.00  0.00    -0.154 C  
HETATM    9  O   UNL     4     -11.092  11.220  63.226  1.00  0.00    -0.771 OA 
HETATM   10  H   UNL     4     -10.569  10.439  63.367  1.00  0.00     0.000 HD 
BRANCH   8  11
HETATM   11  C   UNL     4     -10.447  11.737  65.481  1.00  0.00    -0.267 C  
HETATM   12  O   UNL     4     -10.345  12.988  66.152  1.00  0.00    -0.267 OA 
HETATM   13  H   UNL     4      -9.618  13.028  66.763  1.00  0.00     0.000 HD 
BRANCH  11  14
HETATM   14  C   UNL     4     -10.254  10.550  66.463  1.00  0.00    -0.231 C  
HETATM   15  H   UNL     4     -11.287   9.820  67.952  1.00  0.00     0.000 HD 
HETATM   16  O   UNL     4     -11.405  10.546  67.351  1.00  0.00    -0.381 OA 
BRANCH  14  17
HETATM   17  C   UNL     4      -8.935  10.418  67.277  1.00  0.00    -0.135 C  
HETATM   18  C   UNL     4      -8.693   8.946  67.813  1.00  0.00    -0.125 C  
HETATM   19  H   UNL     4      -8.002  11.365  68.770  1.00  0.00     0.000 HD 
HETATM   20  O   UNL     4      -8.808  11.445  68.273  1.00  0.00    -0.155 OA 
HETATM   21  O   UNL     4      -9.057   8.017  66.976  1.00  0.00    -0.135 OA 
HETATM   22  O   UNL     4      -8.273   8.787  68.992  1.00  0.00    -0.114 OA 
ENDBRANCH  14  17
ENDBRANCH  11  14
ENDBRANCH   8  11
ENDBRANCH   3   8
BRANCH   7  23
HETATM   23  C   UNL     5     -10.570   5.841  70.861  1.00  0.00    -0.262 C  
HETATM   24  O   UNL     5     -11.140   5.224  72.017  1.00  0.00    -0.187 OA 
HETATM   25  H   UNL     5     -12.085   5.225  71.919  1.00  0.00     0.000 HD 
BRANCH  23  26
HETATM   26  C   UNL     5     -11.123   7.269  70.662  1.00  0.00    -0.264 C  
HETATM   27  O   UNL     5     -12.511   7.195  70.263  1.00  0.00    -0.592 OA 
HETATM   28  H   UNL     5     -12.850   8.073  70.140  1.00  0.00     0.000 HD 
BRANCH  26  29
HETATM   29  C   UNL     5     -10.951   8.284  71.826  1.00  0.00    -0.278 C  
HETATM   30  O   UNL     5     -11.569   7.850  73.037  1.00  0.00    -0.580 OA 
HETATM   31  H   UNL     5     -11.464   8.470  73.750  1.00  0.00     0.000 HD 
BRANCH  29  32
HETATM   32  C   UNL     5     -11.257   9.763  71.541  1.00  0.00    -0.220 C  
HETATM   33  C   UNL     5     -12.748  10.127  71.379  1.00  0.00    -0.425 C  
HETATM   34  O   UNL     5     -10.491  10.231  70.374  1.00  0.00    -0.414 OA 
HETATM   35  O   UNL     5     -13.579   9.484  72.086  1.00  0.00    -0.424 OA 
HETATM   36  O   UNL     5     -12.963  11.011  70.475  1.00  0.00    -0.221 OA 
HETATM   37  H   UNL     5     -10.680  11.145  70.198  1.00  0.00     0.000 HD 
ENDBRANCH  29  32
ENDBRANCH  26  29
ENDBRANCH  23  26
ENDBRANCH   7  23
TORSDOF 8
ENDMDL
MODEL       41
REMARK 921   NORMALIZED FREE ENERGY PREDICTED BY IDOCK:   -6.47 KCAL/MOL
REMARK 922        TOTAL FREE ENERGY PREDICTED BY IDOCK:  -11.74 KCAL/MOL
REMARK 923 INTER-LIGAND FREE ENERGY PREDICTED BY IDOCK:   -9.89 KCAL/MOL
REMARK 924 INTRA-LIGAND FREE ENERGY PREDICTED BY IDOCK:   -1.85 KCAL/MOL
REMARK 927      BINDING AFFINITY PREDICTED BY RF-SCORE:    0.00 PKD
ROOT
HETATM    1 MG   UNL     3      -7.808  13.812  66.638  1.00  0.00    -0.308 Mg 
HETATM    2  O   UNL     4     -13.149  12.168  63.939  1.00  0.00    -0.749 OA 
HETATM    3  C   UNL     4     -11.998  12.990  63.926  1.00  0.00    -0.485 C  
HETATM    4  H   UNL     4     -13.109  11.463  63.303  1.00  0.00     0.000 HD 
HETATM    5  O   UNL     5      -5.592  19.924  70.754  1.00  0.00    -0.242 OA 
HETATM    6  H   UNL     5      -5.755  19.800  71.682  1.00  0.00     0.000 HD 
HETATM    7  C   UNL     5      -6.741  19.610  69.968  1.00  0.00    -0.150 C  
ENDROOT
BRANCH   3   8
HETATM    8  C   UNL     4     -12.064  14.129  64.954  1.00  0.00    -0.428 C  
HETATM    9  O   UNL     4     -13.263  14.898  64.748  1.00  0.00    -0.092 OA 
HETATM   10  H   UNL     4     -13.304  15.603  65.384  1.00  0.00     0.000 HD 
BRANCH   8  11
HETATM   11  C   UNL     4     -12.022  13.775  66.469  1.00  0.00    -0.434 C  
HETATM   12  O   UNL     4     -12.280  12.400  66.733  1.00  0.00    -0.551 OA 
HETATM   13  H   UNL     4     -12.254  12.184  67.658  1.00  0.00     0.000 HD 
BRANCH  11  14
HETATM   14  C   UNL     4     -10.824  14.298  67.307  1.00  0.00    -0.284 C  
HETATM   15  H   UNL     4      -9.141  13.522  67.925  1.00  0.00     0.000 HD 
HETATM   16  O   UNL     4      -9.874  13.202  67.413  1.00  0.00    -0.219 OA 
BRANCH  14  17
HETATM   17  C   UNL     4     -11.069  14.945  68.700  1.00  0.00    -0.263 C  
HETATM   18  C   UNL     4     -11.950  14.033  69.650  1.00  0.00    -0.339 C  
HETATM   19  H   UNL     4     -11.667  16.701  69.444  1.00  0.00     0.000 HD 
HETATM   20  O   UNL     4     -11.517  16.306  68.593  1.00  0.00    -0.367 OA 
HETATM   21  O   UNL     4     -11.693  12.761  69.540  1.00  0.00    -0.300 OA 
HETATM   22  O   UNL     4     -12.858  14.570  70.343  1.00  0.00    -0.349 OA 
ENDBRANCH  14  17
ENDBRANCH  11  14
ENDBRANCH   8  11
ENDBRANCH   3   8
BRANCH   7  23
HETATM   23  C   UNL     5      -6.476  19.812  68.462  1.00  0.00    -0.275 C  
HETATM   24  O   UNL     5      -5.740  18.685  67.982  1.00  0.00    -0.177 OA 
HETATM   25  H   UNL     5      -5.576  18.810  67.055  1.00  0.00     0.000 HD 
BRANCH  23  26
HETATM   26  C   UNL     5      -7.789  19.997  67.671  1.00  0.00    -0.306 C  
HETATM   27  O   UNL     5      -7.759  21.269  66.984  1.00  0.00    -0.733 OA 
HETATM   28  H   UNL     5      -8.567  21.383  66.498  1.00  0.00     0.000 HD 
BRANCH  26  29
HETATM   29  C   UNL     5      -8.214  18.867  66.693  1.00  0.00    -0.286 C  
HETATM   30  O   UNL     5      -7.592  18.976  65.413  1.00  0.00    -0.404 OA 
HETATM   31  H   UNL     5      -7.851  18.285  64.815  1.00  0.00     0.000 HD 
BRANCH  29  32
HETATM   32  C   UNL     5      -9.714  18.557  66.561  1.00  0.00    -0.343 C  
HETATM   33  C   UNL     5     -10.083  17.382  65.631  1.00  0.00    -0.015 C  
HETATM   34  O   UNL     5     -10.457  19.766  66.169  1.00  0.00    -0.471 OA 
HETATM   35  O   UNL     5      -9.278  16.405  65.588  1.00  0.00    -0.465 OA 
HETATM   36  O   UNL     5     -11.152  17.584  64.952  1.00  0.00    -0.860 OA 
HETATM   37  H   UNL     5     -11.383  19.575  66.088  1.00  0.00     0.000 HD 
ENDBRANCH  29  32
ENDBRANCH  26  29
ENDBRANCH  23  26
ENDBRANCH   7  23
TORSDOF 8
ENDMDL
MODEL       42
REMARK 921   NORMALIZED FREE ENERGY PREDICTED BY IDOCK:   -6.47 KCAL/MOL
REMARK 922        TOTAL FREE ENERGY PREDICTED BY IDOCK:  -11.74 KCAL/MOL
REMARK 923 INTER-LIGAND FREE ENERGY PREDICTED BY IDOCK:   -8.70 KCAL/MOL
REMARK 924 INTRA-LIGAND FREE ENERGY PREDICTED BY IDOCK:   -3.04 KCAL/MOL
REMARK 927      BINDING AFFINITY PREDICTED BY RF-SCORE:    0.00 PKD
ROOT
HETATM    1 MG   UNL     3     -10.748  11.396  70.247  1.00  0.00    -0.406 Mg 
HETATM    2  O   UNL     4     -11.626   6.081  73.329  1.00  0.00    -0.455 OA 
HETATM    3  C   UNL     4     -10.904   6.796  72.344  1.00  0.00    -0.238 C  
HETATM    4  H   UNL     4     -11.139   5.969  74.137  1.00  0.00     0.000 HD 
HETATM    5  O   UNL     5     -12.392  13.733  63.103  1.00  0.00    -1.099 OA 
HETATM    6  H   UNL     5     -13.260  14.115  63.050  1.00  0.00     0.000 HD 
HETATM    7  C   UNL     5     -12.407  12.473  63.772  1.00  0.00    -0.502 C  
ENDROOT
BRANCH   3   8
HETATM    8  C   UNL     4     -11.692   6.977  71.039  1.00  0.00    -0.333 C  
HETATM    9  O   UNL     4     -13.039   7.390  71.340  1.00  0.00    -0.381 OA 
HETATM   10  H   UNL     4     -13.526   7.502  70.532  1.00  0.00     0.000 HD 
BRANCH   8  11
HETATM   11  C   UNL     4     -11.154   7.972  69.970  1.00  0.00    -0.154 C  
HETATM   12  O   UNL     4     -10.501   9.105  70.533  1.00  0.00    -0.205 OA 
HETATM   13  H   UNL     4     -10.172   9.711  69.880  1.00  0.00     0.000 HD 
BRANCH  11  14
HETATM   14  C   UNL     4     -10.352   7.392  68.773  1.00  0.00    -0.199 C  
HETATM   15  H   UNL     4      -8.656   6.438  68.593  1.00  0.00     0.000 HD 
HETATM   16  O   UNL     4      -9.147   6.792  69.325  1.00  0.00    -0.139 OA 
BRANCH  14  17
HETATM   17  C   UNL     4     -10.004   8.296  67.556  1.00  0.00    -0.193 C  
HETATM   18  C   UNL     4      -9.221   7.516  66.421  1.00  0.00    -0.167 C  
HETATM   19  H   UNL     4      -9.185  10.087  67.214  1.00  0.00     0.000 HD 
HETATM   20  O   UNL     4      -9.398   9.535  67.957  1.00  0.00    -0.133 OA 
HETATM   21  O   UNL     4      -9.631   6.291  66.248  1.00  0.00    -0.153 OA 
HETATM   22  O   UNL     4      -8.242   8.078  65.857  1.00  0.00    -0.112 OA 
ENDBRANCH  14  17
ENDBRANCH  11  14
ENDBRANCH   8  11
ENDBRANCH   3   8
BRANCH   7  23
HETATM   23  C   UNL     5     -10.997  11.854  63.858  1.00  0.00    -0.406 C  
HETATM   24  O   UNL     5     -10.057  12.810  63.364  1.00  0.00    -0.613 OA 
HETATM   25  H   UNL     5      -9.189  12.429  63.417  1.00  0.00     0.000 HD 
BRANCH  23  26
HETATM   26  C   UNL     5     -10.649  11.424  65.299  1.00  0.00    -0.277 C  
HETATM   27  O   UNL     5      -9.420  10.662  65.288  1.00  0.00    -0.191 OA 
HETATM   28  H   UNL     5      -9.206  10.397  66.175  1.00  0.00     0.000 HD 
BRANCH  26  29
HETATM   29  C   UNL     5     -10.588  12.527  66.393  1.00  0.00    -0.247 C  
HETATM   30  O   UNL     5      -9.317  12.600  67.038  1.00  0.00    -0.205 OA 
HETATM   31  H   UNL     5      -9.280  13.274  67.707  1.00  0.00     0.000 HD 
BRANCH  29  32
HETATM   32  C   UNL     5     -11.738  12.594  67.410  1.00  0.00    -0.369 C  
HETATM   33  C   UNL     5     -11.640  13.712  68.470  1.00  0.00    -0.335 C  
HETATM   34  O   UNL     5     -11.922  11.289  68.066  1.00  0.00    -0.621 OA 
HETATM   35  O   UNL     5     -11.115  14.807  68.107  1.00  0.00    -0.259 OA 
HETATM   36  O   UNL     5     -12.051  13.354  69.630  1.00  0.00    -0.312 OA 
HETATM   37  H   UNL     5     -12.632  11.330  68.695  1.00  0.00     0.000 HD 
ENDBRANCH  29  32
ENDBRANCH  26  29
ENDBRANCH  23  26
ENDBRANCH   7  23
TORSDOF 8
ENDMDL
MODEL       43
REMARK 921   NORMALIZED FREE ENERGY PREDICTED BY IDOCK:   -6.47 KCAL/MOL
REMARK 922        TOTAL FREE ENERGY PREDICTED BY IDOCK:  -11.74 KCAL/MOL
REMARK 923 INTER-LIGAND FREE ENERGY PREDICTED BY IDOCK:   -9.37 KCAL/MOL
REMARK 924 INTRA-LIGAND FREE ENERGY PREDICTED BY IDOCK:   -2.37 KCAL/MOL
REMARK 927      BINDING AFFINITY PREDICTED BY RF-SCORE:    0.00 PKD
ROOT
HETATM    1 MG   UNL     3      -7.944  11.378  69.884  1.00  0.00    -0.343 Mg 
HETATM    2  O   UNL     4     -11.124  16.513  68.456  1.00  0.00    -0.348 OA 
HETATM    3  C   UNL     4     -10.907  15.444  69.357  1.00  0.00    -0.263 C  
HETATM    4  H   UNL     4     -10.768  17.338  68.767  1.00  0.00     0.000 HD 
HETATM    5  O   UNL     5      -9.622   3.870  69.727  1.00  0.00    -0.192 OA 
HETATM    6  H   UNL     5      -9.419   3.483  68.884  1.00  0.00     0.000 HD 
HETATM    7  C   UNL     5     -10.384   5.069  69.590  1.00  0.00    -0.190 C  
ENDROOT
BRANCH   3   8
HETATM    8  C   UNL     4     -11.482  14.112  68.854  1.00  0.00    -0.293 C  
HETATM    9  O   UNL     4     -12.706  14.353  68.136  1.00  0.00    -0.282 OA 
HETATM   10  H   UNL     4     -13.063  13.529  67.826  1.00  0.00     0.000 HD 
BRANCH   8  11
HETATM   11  C   UNL     4     -10.602  13.214  67.936  1.00  0.00    -0.234 C  
HETATM   12  O   UNL     4      -9.577  12.522  68.641  1.00  0.00    -0.370 OA 
HETATM   13  H   UNL     4      -9.041  11.973  68.080  1.00  0.00     0.000 HD 
BRANCH  11  14
HETATM   14  C   UNL     4     -11.321  12.283  66.923  1.00  0.00    -0.333 C  
HETATM   15  H   UNL     4     -11.394  10.350  66.650  1.00  0.00     0.000 HD 
HETATM   16  O   UNL     4     -10.954  10.919  67.270  1.00  0.00    -0.274 OA 
BRANCH  14  17
HETATM   17  C   UNL     4     -11.159  12.520  65.394  1.00  0.00    -0.302 C  
HETATM   18  C   UNL     4     -12.494  13.031  64.711  1.00  0.00    -0.427 C  
HETATM   19  H   UNL     4     -10.439  11.550  63.802  1.00  0.00     0.000 HD 
HETATM   20  O   UNL     4     -10.539  11.405  64.735  1.00  0.00    -0.293 OA 
HETATM   21  O   UNL     4     -13.175  13.862  65.447  1.00  0.00    -0.750 OA 
HETATM   22  O   UNL     4     -12.833  12.549  63.595  1.00  0.00    -0.731 OA 
ENDBRANCH  14  17
ENDBRANCH  11  14
ENDBRANCH   8  11
ENDBRANCH   3   8
BRANCH   7  23
HETATM   23  C   UNL     5     -10.713   5.697  70.960  1.00  0.00    -0.234 C  
HETATM   24  O   UNL     5      -9.516   5.728  71.738  1.00  0.00    -0.148 OA 
HETATM   25  H   UNL     5      -9.719   6.115  72.582  1.00  0.00     0.000 HD 
BRANCH  23  26
HETATM   26  C   UNL     5     -11.316   7.111  70.809  1.00  0.00    -0.289 C  
HETATM   27  O   UNL     5     -12.759   7.015  70.771  1.00  0.00    -0.574 OA 
HETATM   28  H   UNL     5     -13.129   7.885  70.678  1.00  0.00     0.000 HD 
BRANCH  26  29
HETATM   29  C   UNL     5     -10.877   8.201  71.826  1.00  0.00    -0.256 C  
HETATM   30  O   UNL     5     -11.350   7.950  73.149  1.00  0.00    -0.507 OA 
HETATM   31  H   UNL     5     -11.081   8.617  73.771  1.00  0.00     0.000 HD 
BRANCH  29  32
HETATM   32  C   UNL     5     -11.073   9.673  71.431  1.00  0.00    -0.326 C  
HETATM   33  C   UNL     5     -12.528  10.186  71.431  1.00  0.00    -0.423 C  
HETATM   34  O   UNL     5     -10.439   9.945  70.130  1.00  0.00    -0.251 OA 
HETATM   35  O   UNL     5     -13.309   9.706  72.305  1.00  0.00    -0.438 OA 
HETATM   36  O   UNL     5     -12.782  11.003  70.475  1.00  0.00    -0.302 OA 
HETATM   37  H   UNL     5     -10.560  10.855  69.885  1.00  0.00     0.000 HD 
ENDBRANCH  29  32
ENDBRANCH  26  29
ENDBRANCH  23  26
ENDBRANCH   7  23
TORSDOF 8
ENDMDL
MODEL       44
REMARK 921   NORMALIZED FREE ENERGY PREDICTED BY IDOCK:   -6.47 KCAL/MOL
REMARK 922        TOTAL FREE ENERGY PREDICTED BY IDOCK:  -11.74 KCAL/MOL
REMARK 923 INTER-LIGAND FREE ENERGY PREDICTED BY IDOCK:   -9.62 KCAL/MOL
REMARK 924 INTRA-LIGAND FREE ENERGY PREDICTED BY IDOCK:   -2.12 KCAL/MOL
REMARK 927      BINDING AFFINITY PREDICTED BY RF-SCORE:    0.00 PKD
ROOT
HETATM    1 MG   UNL     3      -9.705  10.881  70.274  1.00  0.00    -0.395 Mg 
HETATM    2  O   UNL     4     -10.150   5.555  73.430  1.00  0.00    -0.169 OA 
HETATM    3  C   UNL     4      -9.493   6.309  72.429  1.00  0.00    -0.144 C  
HETATM    4  H   UNL     4      -9.648   5.491  74.234  1.00  0.00     0.000 HD 
HETATM    5  O   UNL     5     -11.581  12.992  63.116  1.00  0.00    -0.781 OA 
HETATM    6  H   UNL     5     -12.477  13.305  63.067  1.00  0.00     0.000 HD 
HETATM    7  C   UNL     5     -11.495  11.743  63.801  1.00  0.00    -0.420 C  
ENDROOT
BRANCH   3   8
HETATM    8  C   UNL     4     -10.303   6.413  71.129  1.00  0.00    -0.205 C  
HETATM    9  O   UNL     4     -10.516   5.097  70.585  1.00  0.00    -0.250 OA 
HETATM   10  H   UNL     4     -11.018   5.161  69.780  1.00  0.00     0.000 HD 
BRANCH   8  11
HETATM   11  C   UNL     4     -11.697   7.106  71.167  1.00  0.00    -0.313 C  
HETATM   12  O   UNL     4     -12.537   6.624  72.211  1.00  0.00    -0.538 OA 
HETATM   13  H   UNL     4     -13.387   7.047  72.234  1.00  0.00     0.000 HD 
BRANCH  11  14
HETATM   14  C   UNL     4     -11.744   8.655  71.072  1.00  0.00    -0.278 C  
HETATM   15  H   UNL     4     -10.635  10.105  71.767  1.00  0.00     0.000 HD 
HETATM   16  O   UNL     4     -10.606   9.157  71.825  1.00  0.00    -0.352 OA 
BRANCH  14  17
HETATM   17  C   UNL     4     -13.040   9.421  71.463  1.00  0.00    -0.377 C  
HETATM   18  C   UNL     4     -12.921  10.983  71.222  1.00  0.00    -0.372 C  
HETATM   19  H   UNL     4     -14.307   9.520  73.006  1.00  0.00     0.000 HD 
HETATM   20  O   UNL     4     -13.515   9.052  72.767  1.00  0.00    -0.428 OA 
HETATM   21  O   UNL     4     -12.257  11.298  70.147  1.00  0.00    -0.313 OA 
HETATM   22  O   UNL     4     -13.375  11.772  72.095  1.00  0.00    -0.497 OA 
ENDBRANCH  14  17
ENDBRANCH  11  14
ENDBRANCH   8  11
ENDBRANCH   3   8
BRANCH   7  23
HETATM   23  C   UNL     5     -10.042  11.234  63.881  1.00  0.00    -0.340 C  
HETATM   24  O   UNL     5      -9.248  12.001  62.975  1.00  0.00    -0.647 OA 
HETATM   25  H   UNL     5      -8.352  11.688  63.024  1.00  0.00     0.000 HD 
BRANCH  23  26
HETATM   26  C   UNL     5      -9.485  11.320  65.319  1.00  0.00    -0.221 C  
HETATM   27  O   UNL     5      -8.090  10.940  65.316  1.00  0.00    -0.331 OA 
HETATM   28  H   UNL     5      -7.747  10.993  66.201  1.00  0.00     0.000 HD 
BRANCH  26  29
HETATM   29  C   UNL     5      -9.678  12.653  66.095  1.00  0.00    -0.251 C  
HETATM   30  O   UNL     5      -8.447  13.210  66.556  1.00  0.00    -0.419 OA 
HETATM   31  H   UNL     5      -8.565  14.025  67.030  1.00  0.00     0.000 HD 
BRANCH  29  32
HETATM   32  C   UNL     5     -10.757  12.698  67.189  1.00  0.00    -0.241 C  
HETATM   33  C   UNL     5     -11.707  13.913  67.152  1.00  0.00    -0.388 C  
HETATM   34  O   UNL     5     -10.144  12.573  68.522  1.00  0.00    -0.238 OA 
HETATM   35  O   UNL     5     -12.010  14.375  66.012  1.00  0.00    -0.386 OA 
HETATM   36  O   UNL     5     -12.020  14.352  68.316  1.00  0.00    -0.329 OA 
HETATM   37  H   UNL     5     -10.811  12.601  69.197  1.00  0.00     0.000 HD 
ENDBRANCH  29  32
ENDBRANCH  26  29
ENDBRANCH  23  26
ENDBRANCH   7  23
TORSDOF 8
ENDMDL
MODEL       45
REMARK 921   NORMALIZED FREE ENERGY PREDICTED BY IDOCK:   -6.46 KCAL/MOL
REMARK 922        TOTAL FREE ENERGY PREDICTED BY IDOCK:  -11.73 KCAL/MOL
REMARK 923 INTER-LIGAND FREE ENERGY PREDICTED BY IDOCK:   -9.55 KCAL/MOL
REMARK 924 INTRA-LIGAND FREE ENERGY PREDICTED BY IDOCK:   -2.18 KCAL/MOL
REMARK 927      BINDING AFFINITY PREDICTED BY RF-SCORE:    0.00 PKD
ROOT
HETATM    1 MG   UNL     3     -10.638  10.496  66.469  1.00  0.00    -0.204 Mg 
HETATM    2  O   UNL     4     -11.310  16.075  63.834  1.00  0.00    -1.143 OA 
HETATM    3  C   UNL     4     -10.882  15.314  64.947  1.00  0.00    -0.425 C  
HETATM    4  H   UNL     4     -10.590  16.385  63.297  1.00  0.00     0.000 HD 
HETATM    5  O   UNL     5     -14.328   6.809  72.126  1.00  0.00    -0.604 OA 
HETATM    6  H   UNL     5     -15.065   6.308  71.796  1.00  0.00     0.000 HD 
HETATM    7  C   UNL     5     -14.335   8.148  71.633  1.00  0.00    -0.469 C  
ENDROOT
BRANCH   3   8
HETATM    8  C   UNL     4     -12.046  14.813  65.813  1.00  0.00    -0.107 C  
HETATM    9  O   UNL     4     -13.214  14.624  64.992  1.00  0.00    -0.358 OA 
HETATM   10  H   UNL     4     -13.935  14.314  65.529  1.00  0.00     0.000 HD 
BRANCH   8  11
HETATM   11  C   UNL     4     -11.864  13.500  66.629  1.00  0.00    -0.407 C  
HETATM   12  O   UNL     4     -11.261  12.450  65.879  1.00  0.00    -0.306 OA 
HETATM   13  H   UNL     4     -11.150  11.649  66.378  1.00  0.00     0.000 HD 
BRANCH  11  14
HETATM   14  C   UNL     4     -11.249  13.605  68.051  1.00  0.00    -0.267 C  
HETATM   15  H   UNL     4     -10.532  12.318  69.334  1.00  0.00     0.000 HD 
HETATM   16  O   UNL     4     -10.909  12.253  68.465  1.00  0.00    -0.219 OA 
BRANCH  14  17
HETATM   17  C   UNL     4     -12.020  14.345  69.182  1.00  0.00    -0.322 C  
HETATM   18  C   UNL     4     -11.213  15.579  69.764  1.00  0.00    -0.304 C  
HETATM   19  H   UNL     4     -12.997  13.890  70.865  1.00  0.00     0.000 HD 
HETATM   20  O   UNL     4     -12.526  13.439  70.174  1.00  0.00    -0.267 OA 
HETATM   21  O   UNL     4     -10.550  16.244  68.862  1.00  0.00    -0.246 OA 
HETATM   22  O   UNL     4     -11.198  15.763  71.012  1.00  0.00    -0.340 OA 
ENDBRANCH  14  17
ENDBRANCH  11  14
ENDBRANCH   8  11
ENDBRANCH   3   8
BRANCH   7  23
HETATM   23  C   UNL     5     -13.139   8.961  72.169  1.00  0.00    -0.421 C  
HETATM   24  O   UNL     5     -12.378   8.118  73.037  1.00  0.00    -0.666 OA 
HETATM   25  H   UNL     5     -11.642   8.619  73.368  1.00  0.00     0.000 HD 
BRANCH  23  26
HETATM   26  C   UNL     5     -12.264   9.513  71.023  1.00  0.00    -0.304 C  
HETATM   27  O   UNL     5     -12.199  10.954  71.122  1.00  0.00    -0.352 OA 
HETATM   28  H   UNL     5     -11.661  11.294  70.416  1.00  0.00     0.000 HD 
BRANCH  26  29
HETATM   29  C   UNL     5     -10.838   8.921  70.846  1.00  0.00    -0.248 C  
HETATM   30  O   UNL     5      -9.846   9.920  70.614  1.00  0.00    -0.353 OA 
HETATM   31  H   UNL     5      -8.974   9.559  70.506  1.00  0.00     0.000 HD 
BRANCH  29  32
HETATM   32  C   UNL     5     -10.668   7.731  69.888  1.00  0.00    -0.245 C  
HETATM   33  C   UNL     5     -10.528   8.081  68.392  1.00  0.00    -0.163 C  
HETATM   34  O   UNL     5     -11.754   6.756  70.081  1.00  0.00    -0.506 OA 
HETATM   35  O   UNL     5      -9.919   9.154  68.104  1.00  0.00    -0.163 OA 
HETATM   36  O   UNL     5     -11.122   7.251  67.615  1.00  0.00    -0.139 OA 
HETATM   37  H   UNL     5     -11.650   6.021  69.489  1.00  0.00     0.000 HD 
ENDBRANCH  29  32
ENDBRANCH  26  29
ENDBRANCH  23  26
ENDBRANCH   7  23
TORSDOF 8
ENDMDL
MODEL       46
REMARK 921   NORMALIZED FREE ENERGY PREDICTED BY IDOCK:   -6.46 KCAL/MOL
REMARK 922        TOTAL FREE ENERGY PREDICTED BY IDOCK:  -11.73 KCAL/MOL
REMARK 923 INTER-LIGAND FREE ENERGY PREDICTED BY IDOCK:   -9.20 KCAL/MOL
REMARK 924 INTRA-LIGAND FREE ENERGY PREDICTED BY IDOCK:   -2.53 KCAL/MOL
REMARK 927      BINDING AFFINITY PREDICTED BY RF-SCORE:    0.00 PKD
ROOT
HETATM    1 MG   UNL     3     -12.218  16.025  69.417  1.00  0.00    -0.313 Mg 
HETATM    2  O   UNL     4      -9.709  21.074  66.823  1.00  0.00    -0.608 OA 
HETATM    3  C   UNL     4     -10.454  19.883  66.661  1.00  0.00    -0.460 C  
HETATM    4  H   UNL     4     -10.249  21.856  66.797  1.00  0.00     0.000 HD 
HETATM    5  O   UNL     5     -10.366   8.557  69.393  1.00  0.00    -0.208 OA 
HETATM    6  H   UNL     5      -9.769   8.341  70.100  1.00  0.00     0.000 HD 
HETATM    7  C   UNL     5      -9.926   9.700  68.659  1.00  0.00    -0.165 C  
ENDROOT
BRANCH   3   8
HETATM    8  C   UNL     4      -9.581  18.620  66.704  1.00  0.00    -0.333 C  
HETATM    9  O   UNL     4      -8.423  18.804  65.868  1.00  0.00    -0.481 OA 
HETATM   10  H   UNL     4      -7.883  18.023  65.894  1.00  0.00     0.000 HD 
BRANCH   8  11
HETATM   11  C   UNL     4      -9.057  18.116  68.080  1.00  0.00    -0.283 C  
HETATM   12  O   UNL     4      -9.999  17.310  68.780  1.00  0.00    -0.293 OA 
HETATM   13  H   UNL     4      -9.679  17.003  69.620  1.00  0.00     0.000 HD 
BRANCH  11  14
HETATM   14  C   UNL     4      -7.633  17.502  68.137  1.00  0.00    -0.221 C  
HETATM   15  H   UNL     4      -5.825  18.237  68.225  1.00  0.00     0.000 HD 
HETATM   16  O   UNL     4      -6.696  18.613  68.191  1.00  0.00    -0.217 OA 
BRANCH  14  17
HETATM   17  C   UNL     4      -7.188  16.464  67.067  1.00  0.00    -0.222 C  
HETATM   18  C   UNL     4      -6.974  15.016  67.674  1.00  0.00    -0.182 C  
HETATM   19  H   UNL     4      -5.824  16.311  65.613  1.00  0.00     0.000 HD 
HETATM   20  O   UNL     4      -6.096  16.945  66.267  1.00  0.00    -0.278 OA 
HETATM   21  O   UNL     4      -7.842  14.699  68.592  1.00  0.00    -0.125 OA 
HETATM   22  O   UNL     4      -5.971  14.343  67.309  1.00  0.00    -0.298 OA 
ENDBRANCH  14  17
ENDBRANCH  11  14
ENDBRANCH   8  11
ENDBRANCH   3   8
BRANCH   7  23
HETATM   23  C   UNL     5     -10.894  10.049  67.511  1.00  0.00    -0.265 C  
HETATM   24  O   UNL     5     -12.097  10.567  68.081  1.00  0.00    -0.756 OA 
HETATM   25  H   UNL     5     -12.693  10.782  67.374  1.00  0.00     0.000 HD 
BRANCH  23  26
HETATM   26  C   UNL     5     -10.267  11.058  66.523  1.00  0.00    -0.234 C  
HETATM   27  O   UNL     5     -10.262  10.487  65.195  1.00  0.00    -0.305 OA 
HETATM   28  H   UNL     5      -9.877  11.108  64.587  1.00  0.00     0.000 HD 
BRANCH  26  29
HETATM   29  C   UNL     5     -10.849  12.498  66.488  1.00  0.00    -0.256 C  
HETATM   30  O   UNL     5     -12.232  12.531  66.133  1.00  0.00    -0.609 OA 
HETATM   31  H   UNL     5     -12.588  13.412  66.112  1.00  0.00     0.000 HD 
BRANCH  29  32
HETATM   32  C   UNL     5     -10.053  13.577  65.736  1.00  0.00    -0.287 C  
HETATM   33  C   UNL     5     -10.541  15.029  65.919  1.00  0.00    -0.329 C  
HETATM   34  O   UNL     5      -9.967  13.248  64.303  1.00  0.00    -0.647 OA 
HETATM   35  O   UNL     5     -11.022  15.339  67.049  1.00  0.00    -0.322 OA 
HETATM   36  O   UNL     5     -10.458  15.735  64.851  1.00  0.00    -0.499 OA 
HETATM   37  H   UNL     5      -9.475  13.914  63.839  1.00  0.00     0.000 HD 
ENDBRANCH  29  32
ENDBRANCH  26  29
ENDBRANCH  23  26
ENDBRANCH   7  23
TORSDOF 8
ENDMDL
MODEL       47
REMARK 921   NORMALIZED FREE ENERGY PREDICTED BY IDOCK:   -6.46 KCAL/MOL
REMARK 922        TOTAL FREE ENERGY PREDICTED BY IDOCK:  -11.72 KCAL/MOL
REMARK 923 INTER-LIGAND FREE ENERGY PREDICTED BY IDOCK:   -9.30 KCAL/MOL
REMARK 924 INTRA-LIGAND FREE ENERGY PREDICTED BY IDOCK:   -2.43 KCAL/MOL
REMARK 927      BINDING AFFINITY PREDICTED BY RF-SCORE:    0.00 PKD
ROOT
HETATM    1 MG   UNL     3      -7.124  13.956  66.677  1.00  0.00    -0.317 Mg 
HETATM    2  O   UNL     4     -10.801  18.652  64.959  1.00  0.00    -0.546 OA 
HETATM    3  C   UNL     4     -10.496  17.648  65.908  1.00  0.00    -0.246 C  
HETATM    4  H   UNL     4     -10.547  19.522  65.246  1.00  0.00     0.000 HD 
HETATM    5  O   UNL     5      -7.965   6.308  66.779  1.00  0.00    -0.106 OA 
HETATM    6  H   UNL     5      -7.695   5.915  65.958  1.00  0.00     0.000 HD 
HETATM    7  C   UNL     5      -8.849   7.410  66.573  1.00  0.00    -0.148 C  
ENDROOT
BRANCH   3   8
HETATM    8  C   UNL     4     -10.906  16.242  65.445  1.00  0.00    -0.273 C  
HETATM    9  O   UNL     4     -11.316  16.288  64.065  1.00  0.00    -1.311 OA 
HETATM   10  H   UNL     4     -11.570  15.419  63.778  1.00  0.00     0.000 HD 
BRANCH   8  11
HETATM   11  C   UNL     4      -9.873  15.083  65.560  1.00  0.00    -0.317 C  
HETATM   12  O   UNL     4      -9.002  15.215  66.677  1.00  0.00    -0.251 OA 
HETATM   13  H   UNL     4      -8.372  14.508  66.747  1.00  0.00     0.000 HD 
BRANCH  11  14
HETATM   14  C   UNL     4     -10.393  13.627  65.415  1.00  0.00    -0.332 C  
HETATM   15  H   UNL     4     -10.768  12.450  63.902  1.00  0.00     0.000 HD 
HETATM   16  O   UNL     4     -10.450  13.340  63.990  1.00  0.00    -0.374 OA 
BRANCH  14  17
HETATM   17  C   UNL     4     -11.715  13.198  66.113  1.00  0.00    -0.381 C  
HETATM   18  C   UNL     4     -11.463  12.382  67.447  1.00  0.00    -0.352 C  
HETATM   19  H   UNL     4     -13.442  12.319  65.624  1.00  0.00     0.000 HD 
HETATM   20  O   UNL     4     -12.634  12.580  65.198  1.00  0.00    -0.631 OA 
HETATM   21  O   UNL     4     -10.451  12.815  68.143  1.00  0.00    -0.222 OA 
HETATM   22  O   UNL     4     -12.170  11.363  67.683  1.00  0.00    -0.485 OA 
ENDBRANCH  14  17
ENDBRANCH  11  14
ENDBRANCH   8  11
ENDBRANCH   3   8
BRANCH   7  23
HETATM   23  C   UNL     5      -9.288   8.048  67.907  1.00  0.00    -0.138 C  
HETATM   24  O   UNL     5      -9.695   9.393  67.648  1.00  0.00    -0.147 OA 
HETATM   25  H   UNL     5      -9.964   9.786  68.469  1.00  0.00     0.000 HD 
BRANCH  23  26
HETATM   26  C   UNL     5     -10.421   7.243  68.580  1.00  0.00    -0.188 C  
HETATM   27  O   UNL     5     -10.305   5.850  68.210  1.00  0.00    -0.173 OA 
HETATM   28  H   UNL     5     -11.002   5.355  68.624  1.00  0.00     0.000 HD 
BRANCH  26  29
HETATM   29  C   UNL     5     -10.596   7.379  70.118  1.00  0.00    -0.230 C  
HETATM   30  O   UNL     5     -11.343   6.306  70.689  1.00  0.00    -0.323 OA 
HETATM   31  H   UNL     5     -11.450   6.388  71.630  1.00  0.00     0.000 HD 
BRANCH  29  32
HETATM   32  C   UNL     5     -11.054   8.738  70.672  1.00  0.00    -0.246 C  
HETATM   33  C   UNL     5     -11.744   8.707  72.052  1.00  0.00    -0.369 C  
HETATM   34  O   UNL     5     -11.906   9.431  69.693  1.00  0.00    -0.403 OA 
HETATM   35  O   UNL     5     -11.335   7.844  72.884  1.00  0.00    -0.406 OA 
HETATM   36  O   UNL     5     -12.716   9.538  72.155  1.00  0.00    -0.380 OA 
HETATM   37  H   UNL     5     -12.189  10.271  70.036  1.00  0.00     0.000 HD 
ENDBRANCH  29  32
ENDBRANCH  26  29
ENDBRANCH  23  26
ENDBRANCH   7  23
TORSDOF 8
ENDMDL
MODEL       48
REMARK 921   NORMALIZED FREE ENERGY PREDICTED BY IDOCK:   -6.46 KCAL/MOL
REMARK 922        TOTAL FREE ENERGY PREDICTED BY IDOCK:  -11.72 KCAL/MOL
REMARK 923 INTER-LIGAND FREE ENERGY PREDICTED BY IDOCK:   -9.52 KCAL/MOL
REMARK 924 INTRA-LIGAND FREE ENERGY PREDICTED BY IDOCK:   -2.20 KCAL/MOL
REMARK 927      BINDING AFFINITY PREDICTED BY RF-SCORE:    0.00 PKD
ROOT
HETATM    1 MG   UNL     3     -11.707   9.306  67.869  1.00  0.00    -0.522 Mg 
HETATM    2  O   UNL     4     -14.303   6.199  72.573  1.00  0.00    -0.694 OA 
HETATM    3  C   UNL     4     -14.386   7.259  71.640  1.00  0.00    -0.421 C  
HETATM    4  H   UNL     4     -14.856   5.461  72.346  1.00  0.00     0.000 HD 
HETATM    5  O   UNL     5      -8.255  16.159  67.286  1.00  0.00    -0.157 OA 
HETATM    6  H   UNL     5      -7.323  16.097  67.456  1.00  0.00     0.000 HD 
HETATM    7  C   UNL     5      -9.023  15.507  68.298  1.00  0.00    -0.185 C  
ENDROOT
BRANCH   3   8
HETATM    8  C   UNL     4     -13.492   8.453  72.008  1.00  0.00    -0.350 C  
HETATM    9  O   UNL     4     -13.996   9.085  73.200  1.00  0.00    -1.130 OA 
HETATM   10  H   UNL     4     -13.443   9.824  73.428  1.00  0.00     0.000 HD 
BRANCH   8  11
HETATM   11  C   UNL     4     -11.974   8.207  72.247  1.00  0.00    -0.377 C  
HETATM   12  O   UNL     4     -11.661   6.846  72.527  1.00  0.00    -0.412 OA 
HETATM   13  H   UNL     4     -10.735   6.697  72.673  1.00  0.00     0.000 HD 
BRANCH  11  14
HETATM   14  C   UNL     4     -10.968   8.823  71.238  1.00  0.00    -0.275 C  
HETATM   15  H   UNL     4     -11.059  10.258  69.915  1.00  0.00     0.000 HD 
HETATM   16  O   UNL     4     -11.674   9.881  70.533  1.00  0.00    -0.272 OA 
BRANCH  14  17
HETATM   17  C   UNL     4     -10.211   7.908  70.234  1.00  0.00    -0.200 C  
HETATM   18  C   UNL     4      -9.134   8.697  69.381  1.00  0.00    -0.149 C  
HETATM   19  H   UNL     4     -10.645   6.535  68.848  1.00  0.00     0.000 HD 
HETATM   20  O   UNL     4     -11.107   7.094  69.460  1.00  0.00    -0.218 OA 
HETATM   21  O   UNL     4      -8.502   9.615  70.055  1.00  0.00    -0.172 OA 
HETATM   22  O   UNL     4      -9.036   8.455  68.146  1.00  0.00    -0.138 OA 
ENDBRANCH  14  17
ENDBRANCH  11  14
ENDBRANCH   8  11
ENDBRANCH   3   8
BRANCH   7  23
HETATM   23  C   UNL     5     -10.536  15.608  68.021  1.00  0.00    -0.271 C  
HETATM   24  O   UNL     5     -10.746  16.629  67.044  1.00  0.00    -0.278 OA 
HETATM   25  H   UNL     5     -11.679  16.691  66.873  1.00  0.00     0.000 HD 
BRANCH  23  26
HETATM   26  C   UNL     5     -11.122  14.258  67.551  1.00  0.00    -0.298 C  
HETATM   27  O   UNL     5     -12.434  14.477  66.984  1.00  0.00    -0.547 OA 
HETATM   28  H   UNL     5     -12.794  13.646  66.695  1.00  0.00     0.000 HD 
BRANCH  26  29
HETATM   29  C   UNL     5     -10.261  13.386  66.595  1.00  0.00    -0.274 C  
HETATM   30  O   UNL     5      -9.600  14.151  65.588  1.00  0.00    -0.506 OA 
HETATM   31  H   UNL     5      -9.074  13.617  65.003  1.00  0.00     0.000 HD 
BRANCH  29  32
HETATM   32  C   UNL     5     -10.902  12.119  66.005  1.00  0.00    -0.282 C  
HETATM   33  C   UNL     5     -11.449  12.244  64.568  1.00  0.00    -0.341 C  
HETATM   34  O   UNL     5     -11.950  11.607  66.904  1.00  0.00    -0.567 OA 
HETATM   35  O   UNL     5     -10.819  13.004  63.774  1.00  0.00    -0.372 OA 
HETATM   36  O   UNL     5     -12.540  11.597  64.379  1.00  0.00    -0.112 OA 
HETATM   37  H   UNL     5     -12.346  10.824  66.540  1.00  0.00     0.000 HD 
ENDBRANCH  29  32
ENDBRANCH  26  29
ENDBRANCH  23  26
ENDBRANCH   7  23
TORSDOF 8
ENDMDL
MODEL       49
REMARK 921   NORMALIZED FREE ENERGY PREDICTED BY IDOCK:   -6.45 KCAL/MOL
REMARK 922        TOTAL FREE ENERGY PREDICTED BY IDOCK:  -11.71 KCAL/MOL
REMARK 923 INTER-LIGAND FREE ENERGY PREDICTED BY IDOCK:   -9.07 KCAL/MOL
REMARK 924 INTRA-LIGAND FREE ENERGY PREDICTED BY IDOCK:   -2.63 KCAL/MOL
REMARK 927      BINDING AFFINITY PREDICTED BY RF-SCORE:    0.00 PKD
ROOT
HETATM    1 MG   UNL     3      -9.177  12.912  63.746  1.00  0.00    -0.534 Mg 
HETATM    2  O   UNL     4      -9.470   7.484  66.739  1.00  0.00    -0.160 OA 
HETATM    3  C   UNL     4     -10.124   8.671  66.334  1.00  0.00    -0.224 C  
HETATM    4  H   UNL     4      -9.728   6.725  66.228  1.00  0.00     0.000 HD 
HETATM    5  O   UNL     5      -8.796  20.243  66.054  1.00  0.00    -0.579 OA 
HETATM    6  H   UNL     5      -7.897  20.525  66.177  1.00  0.00     0.000 HD 
HETATM    7  C   UNL     5      -9.054  19.000  66.707  1.00  0.00    -0.320 C  
ENDROOT
BRANCH   3   8
HETATM    8  C   UNL     4      -9.707   9.896  67.162  1.00  0.00    -0.178 C  
HETATM    9  O   UNL     4      -8.443  10.394  66.685  1.00  0.00    -0.124 OA 
HETATM   10  H   UNL     4      -8.184  11.151  67.197  1.00  0.00     0.000 HD 
BRANCH   8  11
HETATM   11  C   UNL     4     -10.667  11.119  67.227  1.00  0.00    -0.258 C  
HETATM   12  O   UNL     4     -10.576  11.841  68.451  1.00  0.00    -0.200 OA 
HETATM   13  H   UNL     4     -11.162  12.588  68.490  1.00  0.00     0.000 HD 
BRANCH  11  14
HETATM   14  C   UNL     4     -10.710  12.077  66.006  1.00  0.00    -0.279 C  
HETATM   15  H   UNL     4      -9.739  13.695  65.497  1.00  0.00     0.000 HD 
HETATM   16  O   UNL     4      -9.713  13.108  66.244  1.00  0.00    -0.271 OA 
BRANCH  14  17
HETATM   17  C   UNL     4     -12.058  12.713  65.561  1.00  0.00    -0.458 C  
HETATM   18  C   UNL     4     -12.036  13.196  64.051  1.00  0.00    -0.460 C  
HETATM   19  H   UNL     4     -13.352  14.084  66.225  1.00  0.00     0.000 HD 
HETATM   20  O   UNL     4     -12.528  13.696  66.496  1.00  0.00    -0.381 OA 
HETATM   21  O   UNL     4     -11.378  12.401  63.257  1.00  0.00    -0.437 OA 
HETATM   22  O   UNL     4     -12.554  14.309  63.759  1.00  0.00    -0.821 OA 
ENDBRANCH  14  17
ENDBRANCH  11  14
ENDBRANCH   8  11
ENDBRANCH   3   8
BRANCH   7  23
HETATM   23  C   UNL     5     -10.513  18.542  66.507  1.00  0.00    -0.398 C  
HETATM   24  O   UNL     5     -10.871  18.770  65.143  1.00  0.00    -0.523 OA 
HETATM   25  H   UNL     5     -11.770  18.488  65.020  1.00  0.00     0.000 HD 
BRANCH  23  26
HETATM   26  C   UNL     5     -10.704  17.059  66.893  1.00  0.00    -0.125 C  
HETATM   27  O   UNL     5      -9.461  16.348  66.693  1.00  0.00    -0.231 OA 
HETATM   28  H   UNL     5      -9.578  15.435  66.930  1.00  0.00     0.000 HD 
BRANCH  26  29
HETATM   29  C   UNL     5     -11.285  16.741  68.299  1.00  0.00    -0.167 C  
HETATM   30  O   UNL     5     -10.625  17.451  69.346  1.00  0.00    -0.389 OA 
HETATM   31  H   UNL     5     -10.980  17.257  70.206  1.00  0.00     0.000 HD 
BRANCH  29  32
HETATM   32  C   UNL     5     -11.500  15.266  68.671  1.00  0.00    -0.337 C  
HETATM   33  C   UNL     5     -12.170  15.003  70.037  1.00  0.00    -0.328 C  
HETATM   34  O   UNL     5     -10.233  14.521  68.576  1.00  0.00    -0.227 OA 
HETATM   35  O   UNL     5     -13.043  15.837  70.421  1.00  0.00    -0.399 OA 
HETATM   36  O   UNL     5     -11.692  13.984  70.652  1.00  0.00    -0.264 OA 
HETATM   37  H   UNL     5     -10.366  13.610  68.807  1.00  0.00     0.000 HD 
ENDBRANCH  29  32
ENDBRANCH  26  29
ENDBRANCH  23  26
ENDBRANCH   7  23
TORSDOF 8
ENDMDL
MODEL       50
REMARK 921   NORMALIZED FREE ENERGY PREDICTED BY IDOCK:   -6.44 KCAL/MOL
REMARK 922        TOTAL FREE ENERGY PREDICTED BY IDOCK:  -11.70 KCAL/MOL
REMARK 923 INTER-LIGAND FREE ENERGY PREDICTED BY IDOCK:   -8.52 KCAL/MOL
REMARK 924 INTRA-LIGAND FREE ENERGY PREDICTED BY IDOCK:   -3.18 KCAL/MOL
REMARK 927      BINDING AFFINITY PREDICTED BY RF-SCORE:    0.00 PKD
ROOT
HETATM    1 MG   UNL     3      -7.407  13.386  66.521  1.00  0.00    -0.364 Mg 
HETATM    2  O   UNL     4     -10.734   8.686  68.836  1.00  0.00    -0.362 OA 
HETATM    3  C   UNL     4     -10.651   9.769  67.929  1.00  0.00    -0.259 C  
HETATM    4  H   UNL     4     -10.633   7.841  68.414  1.00  0.00     0.000 HD 
HETATM    5  O   UNL     5      -7.728  21.031  67.329  1.00  0.00    -0.509 OA 
HETATM    6  H   UNL     5      -7.206  21.328  68.065  1.00  0.00     0.000 HD 
HETATM    7  C   UNL     5      -8.586  19.950  67.690  1.00  0.00    -0.330 C  
ENDROOT
BRANCH   3   8
HETATM    8  C   UNL     4     -10.814  11.135  68.612  1.00  0.00    -0.209 C  
HETATM    9  O   UNL     4      -9.528  11.771  68.736  1.00  0.00    -0.355 OA 
HETATM   10  H   UNL     4      -9.629  12.616  69.159  1.00  0.00     0.000 HD 
BRANCH   8  11
HETATM   11  C   UNL     4     -11.765  12.186  67.969  1.00  0.00    -0.344 C  
HETATM   12  O   UNL     4     -11.897  13.374  68.742  1.00  0.00    -0.318 OA 
HETATM   13  H   UNL     4     -12.477  14.015  68.349  1.00  0.00     0.000 HD 
BRANCH  11  14
HETATM   14  C   UNL     4     -11.582  12.509  66.461  1.00  0.00    -0.388 C  
HETATM   15  H   UNL     4     -10.077  13.084  65.356  1.00  0.00     0.000 HD 
HETATM   16  O   UNL     4     -10.190  12.886  66.278  1.00  0.00    -0.265 OA 
BRANCH  14  17
HETATM   17  C   UNL     4     -12.522  13.532  65.762  1.00  0.00    -0.462 C  
HETATM   18  C   UNL     4     -12.379  13.513  64.184  1.00  0.00    -0.328 C  
HETATM   19  H   UNL     4     -13.013  15.462  65.929  1.00  0.00     0.000 HD 
HETATM   20  O   UNL     4     -12.438  14.837  66.355  1.00  0.00    -0.088 OA 
HETATM   21  O   UNL     4     -12.202  12.322  63.689  1.00  0.00    -0.485 OA 
HETATM   22  O   UNL     4     -12.355  14.609  63.560  1.00  0.00    -0.599 OA 
ENDBRANCH  14  17
ENDBRANCH  11  14
ENDBRANCH   8  11
ENDBRANCH   3   8
BRANCH   7  23
HETATM   23  C   UNL     5      -9.433  19.468  66.495  1.00  0.00    -0.375 C  
HETATM   24  O   UNL     5      -9.615  20.569  65.603  1.00  0.00    -0.598 OA 
HETATM   25  H   UNL     5     -10.137  20.272  64.866  1.00  0.00     0.000 HD 
BRANCH  23  26
HETATM   26  C   UNL     5      -8.776  18.271  65.775  1.00  0.00     0.445 C  
HETATM   27  O   UNL     5      -7.338  18.415  65.821  1.00  0.00    -0.462 OA 
HETATM   28  H   UNL     5      -6.933  17.678  65.377  1.00  0.00     0.000 HD 
BRANCH  26  29
HETATM   29  C   UNL     5      -9.188  16.839  66.218  1.00  0.00    -0.279 C  
HETATM   30  O   UNL     5     -10.182  16.261  65.373  1.00  0.00    -0.518 OA 
HETATM   31  H   UNL     5     -10.434  15.385  65.643  1.00  0.00     0.000 HD 
BRANCH  29  32
HETATM   32  C   UNL     5      -9.515  16.613  67.703  1.00  0.00    -0.226 C  
HETATM   33  C   UNL     5      -8.892  15.358  68.349  1.00  0.00    -0.177 C  
HETATM   34  O   UNL     5     -10.971  16.623  67.916  1.00  0.00    -0.342 OA 
HETATM   35  O   UNL     5      -7.743  15.009  67.943  1.00  0.00    -0.115 OA 
HETATM   36  O   UNL     5      -9.668  14.776  69.187  1.00  0.00    -0.207 OA 
HETATM   37  H   UNL     5     -11.173  16.483  68.833  1.00  0.00     0.000 HD 
ENDBRANCH  29  32
ENDBRANCH  26  29
ENDBRANCH  23  26
ENDBRANCH   7  23
TORSDOF 8
ENDMDL
MODEL       51
REMARK 921   NORMALIZED FREE ENERGY PREDICTED BY IDOCK:   -6.44 KCAL/MOL
REMARK 922        TOTAL FREE ENERGY PREDICTED BY IDOCK:  -11.69 KCAL/MOL
REMARK 923 INTER-LIGAND FREE ENERGY PREDICTED BY IDOCK:  -10.16 KCAL/MOL
REMARK 924 INTRA-LIGAND FREE ENERGY PREDICTED BY IDOCK:   -1.53 KCAL/MOL
REMARK 927      BINDING AFFINITY PREDICTED BY RF-SCORE:    0.00 PKD
ROOT
HETATM    1 MG   UNL     3     -11.853   9.578  67.586  1.00  0.00    -0.526 Mg 
HETATM    2  O   UNL     4     -12.771   5.891  72.493  1.00  0.00    -0.487 OA 
HETATM    3  C   UNL     4     -13.082   7.094  71.818  1.00  0.00    -0.314 C  
HETATM    4  H   UNL     4     -13.454   5.235  72.414  1.00  0.00     0.000 HD 
HETATM    5  O   UNL     5      -8.098  16.214  66.551  1.00  0.00    -0.270 OA 
HETATM    6  H   UNL     5      -7.187  16.069  66.321  1.00  0.00     0.000 HD 
HETATM    7  C   UNL     5      -8.484  15.450  67.693  1.00  0.00    -0.162 C  
ENDROOT
BRANCH   3   8
HETATM    8  C   UNL     4     -11.978   8.154  71.945  1.00  0.00    -0.320 C  
HETATM    9  O   UNL     4     -11.173   7.877  73.107  1.00  0.00    -0.450 OA 
HETATM   10  H   UNL     4     -10.490   8.533  73.186  1.00  0.00     0.000 HD 
BRANCH   8  11
HETATM   11  C   UNL     4     -10.989   8.353  70.760  1.00  0.00    -0.247 C  
HETATM   12  O   UNL     4     -11.473   7.829  69.528  1.00  0.00    -0.437 OA 
HETATM   13  H   UNL     4     -10.869   7.951  68.805  1.00  0.00     0.000 HD 
BRANCH  11  14
HETATM   14  C   UNL     4     -10.355   9.758  70.568  1.00  0.00    -0.283 C  
HETATM   15  H   UNL     4     -11.058  11.579  70.486  1.00  0.00     0.000 HD 
HETATM   16  O   UNL     4     -11.445  10.720  70.603  1.00  0.00    -0.325 OA 
BRANCH  14  17
HETATM   17  C   UNL     4      -9.422  10.033  69.354  1.00  0.00    -0.223 C  
HETATM   18  C   UNL     4      -7.958  10.452  69.792  1.00  0.00    -0.067 C  
HETATM   19  H   UNL     4      -9.462  11.076  67.649  1.00  0.00     0.000 HD 
HETATM   20  O   UNL     4     -10.031  10.908  68.391  1.00  0.00    -0.166 OA 
HETATM   21  O   UNL     4      -7.521   9.810  70.838  1.00  0.00    -0.320 OA 
HETATM   22  O   UNL     4      -7.384  11.396  69.182  1.00  0.00    -0.116 OA 
ENDBRANCH  14  17
ENDBRANCH  11  14
ENDBRANCH   8  11
ENDBRANCH   3   8
BRANCH   7  23
HETATM   23  C   UNL     5      -9.962  15.685  68.065  1.00  0.00    -0.222 C  
HETATM   24  O   UNL     5     -10.286  17.046  67.775  1.00  0.00    -0.288 OA 
HETATM   25  H   UNL     5     -11.196  17.191  68.004  1.00  0.00     0.000 HD 
BRANCH  23  26
HETATM   26  C   UNL     5     -10.901  14.717  67.313  1.00  0.00    -0.305 C  
HETATM   27  O   UNL     5     -12.237  14.829  67.853  1.00  0.00    -0.583 OA 
HETATM   28  H   UNL     5     -12.815  14.234  67.390  1.00  0.00     0.000 HD 
BRANCH  26  29
HETATM   29  C   UNL     5     -10.939  14.798  65.761  1.00  0.00    -0.334 C  
HETATM   30  O   UNL     5     -10.514  16.065  65.261  1.00  0.00    -0.447 OA 
HETATM   31  H   UNL     5     -10.537  16.115  64.312  1.00  0.00     0.000 HD 
BRANCH  29  32
HETATM   32  C   UNL     5     -12.210  14.312  65.047  1.00  0.00    -0.433 C  
HETATM   33  C   UNL     5     -12.446  12.787  65.049  1.00  0.00    -0.506 C  
HETATM   34  O   UNL     5     -12.256  14.830  63.669  1.00  0.00    -0.969 OA 
HETATM   35  O   UNL     5     -12.071  12.146  66.076  1.00  0.00    -0.612 OA 
HETATM   36  O   UNL     5     -12.944  12.345  63.953  1.00  0.00    -0.754 OA 
HETATM   37  H   UNL     5     -13.041  14.529  63.228  1.00  0.00     0.000 HD 
ENDBRANCH  29  32
ENDBRANCH  26  29
ENDBRANCH  23  26
ENDBRANCH   7  23
TORSDOF 8
ENDMDL
MODEL       52
REMARK 921   NORMALIZED FREE ENERGY PREDICTED BY IDOCK:   -6.43 KCAL/MOL
REMARK 922        TOTAL FREE ENERGY PREDICTED BY IDOCK:  -11.68 KCAL/MOL
REMARK 923 INTER-LIGAND FREE ENERGY PREDICTED BY IDOCK:   -8.84 KCAL/MOL
REMARK 924 INTRA-LIGAND FREE ENERGY PREDICTED BY IDOCK:   -2.84 KCAL/MOL
REMARK 927      BINDING AFFINITY PREDICTED BY RF-SCORE:    0.00 PKD
ROOT
HETATM    1 MG   UNL     3     -10.975  12.340  70.255  1.00  0.00    -0.464 Mg 
HETATM    2  O   UNL     4     -11.453   7.106  73.555  1.00  0.00    -0.478 OA 
HETATM    3  C   UNL     4     -10.751   7.854  72.581  1.00  0.00    -0.347 C  
HETATM    4  H   UNL     4     -11.013   7.089  74.397  1.00  0.00     0.000 HD 
HETATM    5  O   UNL     5     -12.372  14.137  62.904  1.00  0.00    -0.914 OA 
HETATM    6  H   UNL     5     -13.272  14.411  62.776  1.00  0.00     0.000 HD 
HETATM    7  C   UNL     5     -12.290  12.916  63.638  1.00  0.00    -0.434 C  
ENDROOT
BRANCH   3   8
HETATM    8  C   UNL     4     -11.461   7.882  71.220  1.00  0.00    -0.265 C  
HETATM    9  O   UNL     4     -11.678   9.246  70.815  1.00  0.00    -0.278 OA 
HETATM   10  H   UNL     4     -12.118   9.263  69.972  1.00  0.00     0.000 HD 
BRANCH   8  11
HETATM   11  C   UNL     4     -10.795   7.162  70.011  1.00  0.00    -0.254 C  
HETATM   12  O   UNL     4     -11.719   6.431  69.213  1.00  0.00    -0.608 OA 
HETATM   13  H   UNL     4     -11.312   5.992  68.475  1.00  0.00     0.000 HD 
BRANCH  11  14
HETATM   14  C   UNL     4      -9.807   7.977  69.133  1.00  0.00    -0.178 C  
HETATM   15  H   UNL     4      -9.020   7.727  67.362  1.00  0.00     0.000 HD 
HETATM   16  O   UNL     4      -9.625   7.229  67.900  1.00  0.00    -0.137 OA 
BRANCH  14  17
HETATM   17  C   UNL     4      -8.433   8.422  69.711  1.00  0.00    -0.127 C  
HETATM   18  C   UNL     4      -8.171   9.975  69.536  1.00  0.00    -0.167 C  
HETATM   19  H   UNL     4      -6.520   7.850  69.617  1.00  0.00     0.000 HD 
HETATM   20  O   UNL     4      -7.360   7.579  69.264  1.00  0.00    -0.084 OA 
HETATM   21  O   UNL     4      -9.235  10.708  69.702  1.00  0.00    -0.061 OA 
HETATM   22  O   UNL     4      -7.027  10.363  69.173  1.00  0.00    -0.058 OA 
ENDBRANCH  14  17
ENDBRANCH  11  14
ENDBRANCH   8  11
ENDBRANCH   3   8
BRANCH   7  23
HETATM   23  C   UNL     5     -10.828  12.471  63.847  1.00  0.00    -0.431 C  
HETATM   24  O   UNL     5     -10.099  13.572  64.391  1.00  0.00    -0.615 OA 
HETATM   25  H   UNL     5      -9.198  13.298  64.520  1.00  0.00     0.000 HD 
BRANCH  23  26
HETATM   26  C   UNL     5     -10.733  11.232  64.764  1.00  0.00    -0.285 C  
HETATM   27  O   UNL     5      -9.701  10.348  64.270  1.00  0.00    -0.291 OA 
HETATM   28  H   UNL     5      -9.643   9.586  64.834  1.00  0.00     0.000 HD 
BRANCH  26  29
HETATM   29  C   UNL     5     -10.555  11.469  66.289  1.00  0.00    -0.263 C  
HETATM   30  O   UNL     5      -9.892  10.388  66.945  1.00  0.00    -0.178 OA 
HETATM   31  H   UNL     5      -9.783  10.533  67.878  1.00  0.00     0.000 HD 
BRANCH  29  32
HETATM   32  C   UNL     5     -11.778  11.944  67.091  1.00  0.00    -0.236 C  
HETATM   33  C   UNL     5     -11.762  13.422  67.536  1.00  0.00    -0.366 C  
HETATM   34  O   UNL     5     -12.005  11.067  68.252  1.00  0.00    -0.668 OA 
HETATM   35  O   UNL     5     -11.216  14.255  66.753  1.00  0.00    -0.313 OA 
HETATM   36  O   UNL     5     -12.257  13.609  68.704  1.00  0.00    -0.339 OA 
HETATM   37  H   UNL     5     -12.760  11.361  68.747  1.00  0.00     0.000 HD 
ENDBRANCH  29  32
ENDBRANCH  26  29
ENDBRANCH  23  26
ENDBRANCH   7  23
TORSDOF 8
ENDMDL
MODEL       53
REMARK 921   NORMALIZED FREE ENERGY PREDICTED BY IDOCK:   -6.41 KCAL/MOL
REMARK 922        TOTAL FREE ENERGY PREDICTED BY IDOCK:  -11.66 KCAL/MOL
REMARK 923 INTER-LIGAND FREE ENERGY PREDICTED BY IDOCK:  -10.00 KCAL/MOL
REMARK 924 INTRA-LIGAND FREE ENERGY PREDICTED BY IDOCK:   -1.66 KCAL/MOL
REMARK 927      BINDING AFFINITY PREDICTED BY RF-SCORE:    0.00 PKD
ROOT
HETATM    1 MG   UNL     3     -10.506  14.446  71.060  1.00  0.00    -0.460 Mg 
HETATM    2  O   UNL     4     -10.011  19.141  67.032  1.00  0.00    -0.314 OA 
HETATM    3  C   UNL     4     -10.721  17.996  67.463  1.00  0.00    -0.336 C  
HETATM    4  H   UNL     4     -10.442  19.955  67.267  1.00  0.00     0.000 HD 
HETATM    5  O   UNL     5      -9.179   6.880  70.597  1.00  0.00    -0.158 OA 
HETATM    6  H   UNL     5      -8.279   6.668  70.815  1.00  0.00     0.000 HD 
HETATM    7  C   UNL     5      -9.258   7.943  69.647  1.00  0.00    -0.153 C  
ENDROOT
BRANCH   3   8
HETATM    8  C   UNL     4     -10.024  16.681  67.083  1.00  0.00    -0.268 C  
HETATM    9  O   UNL     4      -8.861  16.493  67.911  1.00  0.00    -0.189 OA 
HETATM   10  H   UNL     4      -8.430  15.679  67.675  1.00  0.00     0.000 HD 
BRANCH   8  11
HETATM   11  C   UNL     4     -10.836  15.355  67.153  1.00  0.00    -0.321 C  
HETATM   12  O   UNL     4     -12.067  15.485  67.856  1.00  0.00    -0.331 OA 
HETATM   13  H   UNL     4     -12.562  14.675  67.899  1.00  0.00     0.000 HD 
BRANCH  11  14
HETATM   14  C   UNL     4     -11.014  14.540  65.844  1.00  0.00    -0.320 C  
HETATM   15  H   UNL     4     -11.062  14.991  63.944  1.00  0.00     0.000 HD 
HETATM   16  O   UNL     4     -10.953  15.490  64.745  1.00  0.00    -0.428 OA 
BRANCH  14  17
HETATM   17  C   UNL     4     -12.234  13.589  65.677  1.00  0.00    -0.458 C  
HETATM   18  C   UNL     4     -11.981  12.456  64.598  1.00  0.00    -0.394 C  
HETATM   19  H   UNL     4     -14.209  13.730  65.408  1.00  0.00     0.000 HD 
HETATM   20  O   UNL     4     -13.464  14.311  65.510  1.00  0.00    -0.580 OA 
HETATM   21  O   UNL     4     -10.766  11.988  64.604  1.00  0.00    -0.282 OA 
HETATM   22  O   UNL     4     -12.905  12.168  63.788  1.00  0.00    -0.718 OA 
ENDBRANCH  14  17
ENDBRANCH  11  14
ENDBRANCH   8  11
ENDBRANCH   3   8
BRANCH   7  23
HETATM   23  C   UNL     5     -10.718   8.287  69.293  1.00  0.00    -0.128 C  
HETATM   24  O   UNL     5     -11.575   7.394  70.009  1.00  0.00    -0.482 OA 
HETATM   25  H   UNL     5     -12.475   7.606  69.791  1.00  0.00     0.000 HD 
BRANCH  23  26
HETATM   26  C   UNL     5     -11.053   9.759  69.618  1.00  0.00    -0.217 C  
HETATM   27  O   UNL     5     -12.073  10.230  68.707  1.00  0.00    -0.685 OA 
HETATM   28  H   UNL     5     -12.279  11.136  68.906  1.00  0.00     0.000 HD 
BRANCH  26  29
HETATM   29  C   UNL     5     -11.435  10.112  71.082  1.00  0.00    -0.307 C  
HETATM   30  O   UNL     5     -11.078   9.090  72.012  1.00  0.00    -0.364 OA 
HETATM   31  H   UNL     5     -11.311   9.306  72.907  1.00  0.00     0.000 HD 
BRANCH  29  32
HETATM   32  C   UNL     5     -12.854  10.640  71.348  1.00  0.00    -0.451 C  
HETATM   33  C   UNL     5     -13.003  12.173  71.426  1.00  0.00    -0.257 C  
HETATM   34  O   UNL     5     -13.418  10.013  72.555  1.00  0.00    -0.621 OA 
HETATM   35  O   UNL     5     -12.253  12.865  70.675  1.00  0.00    -0.372 OA 
HETATM   36  O   UNL     5     -13.841  12.561  72.316  1.00  0.00    -0.406 OA 
HETATM   37  H   UNL     5     -14.295  10.338  72.719  1.00  0.00     0.000 HD 
ENDBRANCH  29  32
ENDBRANCH  26  29
ENDBRANCH  23  26
ENDBRANCH   7  23
TORSDOF 8
ENDMDL
MODEL       54
REMARK 921   NORMALIZED FREE ENERGY PREDICTED BY IDOCK:   -6.37 KCAL/MOL
REMARK 922        TOTAL FREE ENERGY PREDICTED BY IDOCK:  -11.60 KCAL/MOL
REMARK 923 INTER-LIGAND FREE ENERGY PREDICTED BY IDOCK:   -9.21 KCAL/MOL
REMARK 924 INTRA-LIGAND FREE ENERGY PREDICTED BY IDOCK:   -2.39 KCAL/MOL
REMARK 927      BINDING AFFINITY PREDICTED BY RF-SCORE:    0.00 PKD
ROOT
HETATM    1 MG   UNL     3      -9.111  10.805  69.706  1.00  0.00    -0.249 Mg 
HETATM    2  O   UNL     4      -8.404   8.516  63.981  1.00  0.00    -0.264 OA 
HETATM    3  C   UNL     4      -8.277   9.616  64.860  1.00  0.00    -0.143 C  
HETATM    4  H   UNL     4      -7.572   8.100  63.785  1.00  0.00     0.000 HD 
HETATM    5  O   UNL     5     -14.150  15.661  72.905  1.00  0.00    -0.558 OA 
HETATM    6  H   UNL     5     -14.911  15.204  73.244  1.00  0.00     0.000 HD 
HETATM    7  C   UNL     5     -13.849  15.269  71.566  1.00  0.00    -0.525 C  
ENDROOT
BRANCH   3   8
HETATM    8  C   UNL     4      -9.622  10.288  65.176  1.00  0.00    -0.277 C  
HETATM    9  O   UNL     4      -9.544  10.951  66.452  1.00  0.00    -0.187 OA 
HETATM   10  H   UNL     4     -10.376  11.366  66.648  1.00  0.00     0.000 HD 
BRANCH   8  11
HETATM   11  C   UNL     4     -10.193  11.331  64.172  1.00  0.00    -0.335 C  
HETATM   12  O   UNL     4     -10.869  10.738  63.068  1.00  0.00    -0.676 OA 
HETATM   13  H   UNL     4     -11.218  11.375  62.456  1.00  0.00     0.000 HD 
BRANCH  11  14
HETATM   14  C   UNL     4     -10.991  12.534  64.745  1.00  0.00    -0.303 C  
HETATM   15  H   UNL     4     -12.420  12.728  66.063  1.00  0.00     0.000 HD 
HETATM   16  O   UNL     4     -11.932  11.992  65.712  1.00  0.00    -0.514 OA 
BRANCH  14  17
HETATM   17  C   UNL     4     -11.705  13.526  63.783  1.00  0.00    -0.321 C  
HETATM   18  C   UNL     4     -11.723  15.009  64.340  1.00  0.00    -0.312 C  
HETATM   19  H   UNL     4     -13.419  13.640  62.761  1.00  0.00     0.000 HD 
HETATM   20  O   UNL     4     -12.983  13.034  63.349  1.00  0.00    -0.464 OA 
HETATM   21  O   UNL     4     -10.629  15.350  64.960  1.00  0.00    -0.414 OA 
HETATM   22  O   UNL     4     -12.780  15.690  64.231  1.00  0.00    -0.350 OA 
ENDBRANCH  14  17
ENDBRANCH  11  14
ENDBRANCH   8  11
ENDBRANCH   3   8
BRANCH   7  23
HETATM   23  C   UNL     5     -12.614  16.012  71.017  1.00  0.00    -0.100 C  
HETATM   24  O   UNL     5     -11.997  16.715  72.098  1.00  0.00    -0.629 OA 
HETATM   25  H   UNL     5     -11.236  17.172  71.759  1.00  0.00     0.000 HD 
BRANCH  23  26
HETATM   26  C   UNL     5     -11.618  15.043  70.343  1.00  0.00    -0.287 C  
HETATM   27  O   UNL     5     -11.813  13.711  70.871  1.00  0.00    -0.501 OA 
HETATM   28  H   UNL     5     -11.200  13.115  70.457  1.00  0.00     0.000 HD 
BRANCH  26  29
HETATM   29  C   UNL     5     -11.578  15.005  68.790  1.00  0.00    -0.335 C  
HETATM   30  O   UNL     5     -12.454  14.025  68.235  1.00  0.00    -0.498 OA 
HETATM   31  H   UNL     5     -12.429  14.002  67.285  1.00  0.00     0.000 HD 
BRANCH  29  32
HETATM   32  C   UNL     5     -10.201  14.977  68.107  1.00  0.00    -0.221 C  
HETATM   33  C   UNL     5      -9.334  13.731  68.383  1.00  0.00    -0.190 C  
HETATM   34  O   UNL     5      -9.445  16.200  68.423  1.00  0.00    -0.201 OA 
HETATM   35  O   UNL     5      -9.939  12.627  68.526  1.00  0.00    -0.219 OA 
HETATM   36  O   UNL     5      -8.085  13.994  68.504  1.00  0.00    -0.139 OA 
HETATM   37  H   UNL     5      -8.594  16.183  68.001  1.00  0.00     0.000 HD 
ENDBRANCH  29  32
ENDBRANCH  26  29
ENDBRANCH  23  26
ENDBRANCH   7  23
TORSDOF 8
ENDMDL
MODEL       55
REMARK 921   NORMALIZED FREE ENERGY PREDICTED BY IDOCK:   -6.37 KCAL/MOL
REMARK 922        TOTAL FREE ENERGY PREDICTED BY IDOCK:  -11.60 KCAL/MOL
REMARK 923 INTER-LIGAND FREE ENERGY PREDICTED BY IDOCK:   -8.86 KCAL/MOL
REMARK 924 INTRA-LIGAND FREE ENERGY PREDICTED BY IDOCK:   -2.74 KCAL/MOL
REMARK 927      BINDING AFFINITY PREDICTED BY RF-SCORE:    0.00 PKD
ROOT
HETATM    1 MG   UNL     3      -9.527  11.306  68.033  1.00  0.00    -0.145 Mg 
HETATM    2  O   UNL     4     -12.527  14.650  63.751  1.00  0.00    -1.041 OA 
HETATM    3  C   UNL     4     -12.597  13.772  64.858  1.00  0.00    -0.341 C  
HETATM    4  H   UNL     4     -12.734  15.549  63.978  1.00  0.00     0.000 HD 
HETATM    5  O   UNL     5      -8.214   3.778  68.940  1.00  0.00    -0.071 OA 
HETATM    6  H   UNL     5      -7.416   3.506  68.502  1.00  0.00     0.000 HD 
HETATM    7  C   UNL     5      -9.052   4.552  68.082  1.00  0.00    -0.124 C  
ENDROOT
BRANCH   3   8
HETATM    8  C   UNL     4     -12.262  12.319  64.492  1.00  0.00    -0.388 C  
HETATM    9  O   UNL     4     -13.089  11.894  63.392  1.00  0.00    -0.710 OA 
HETATM   10  H   UNL     4     -12.882  10.995  63.166  1.00  0.00     0.000 HD 
BRANCH   8  11
HETATM   11  C   UNL     4     -10.797  11.961  64.106  1.00  0.00    -0.356 C  
HETATM   12  O   UNL     4     -10.056  13.074  63.617  1.00  0.00    -0.699 OA 
HETATM   13  H   UNL     4      -9.162  12.855  63.382  1.00  0.00     0.000 HD 
BRANCH  11  14
HETATM   14  C   UNL     4      -9.963  11.123  65.112  1.00  0.00    -0.272 C  
HETATM   15  H   UNL     4      -8.673  11.551  66.515  1.00  0.00     0.000 HD 
HETATM   16  O   UNL     4      -9.183  12.064  65.900  1.00  0.00    -0.199 OA 
BRANCH  14  17
HETATM   17  C   UNL     4      -9.064   9.960  64.602  1.00  0.00    -0.242 C  
HETATM   18  C   UNL     4      -8.266   9.248  65.772  1.00  0.00    -0.117 C  
HETATM   19  H   UNL     4      -7.710   9.641  63.168  1.00  0.00     0.000 HD 
HETATM   20  O   UNL     4      -8.258  10.351  63.480  1.00  0.00    -0.162 OA 
HETATM   21  O   UNL     4      -8.948   9.131  66.875  1.00  0.00    -0.121 OA 
HETATM   22  O   UNL     4      -7.055   8.944  65.588  1.00  0.00    -0.082 OA 
ENDBRANCH  14  17
ENDBRANCH  11  14
ENDBRANCH   8  11
ENDBRANCH   3   8
BRANCH   7  23
HETATM   23  C   UNL     5     -10.347   4.993  68.793  1.00  0.00    -0.039 C  
HETATM   24  O   UNL     5     -10.241   4.643  70.174  1.00  0.00    -0.240 OA 
HETATM   25  H   UNL     5     -11.039   4.915  70.612  1.00  0.00     0.000 HD 
BRANCH  23  26
HETATM   26  C   UNL     5     -10.607   6.505  68.620  1.00  0.00    -0.245 C  
HETATM   27  O   UNL     5     -11.526   6.711  67.523  1.00  0.00    -0.721 OA 
HETATM   28  H   UNL     5     -11.686   7.642  67.417  1.00  0.00     0.000 HD 
BRANCH  26  29
HETATM   29  C   UNL     5     -11.067   7.311  69.867  1.00  0.00    -0.212 C  
HETATM   30  O   UNL     5     -12.390   6.980  70.285  1.00  0.00    -0.623 OA 
HETATM   31  H   UNL     5     -12.672   7.472  71.048  1.00  0.00     0.000 HD 
BRANCH  29  32
HETATM   32  C   UNL     5     -10.846   8.833  69.861  1.00  0.00    -0.206 C  
HETATM   33  C   UNL     5     -11.440   9.607  71.055  1.00  0.00    -0.371 C  
HETATM   34  O   UNL     5     -11.317   9.416  68.593  1.00  0.00    -0.459 OA 
HETATM   35  O   UNL     5     -11.445   9.021  72.179  1.00  0.00    -0.355 OA 
HETATM   36  O   UNL     5     -11.928  10.749  70.732  1.00  0.00    -0.322 OA 
HETATM   37  H   UNL     5     -11.181  10.355  68.589  1.00  0.00     0.000 HD 
ENDBRANCH  29  32
ENDBRANCH  26  29
ENDBRANCH  23  26
ENDBRANCH   7  23
TORSDOF 8
ENDMDL
MODEL       56
REMARK 921   NORMALIZED FREE ENERGY PREDICTED BY IDOCK:   -6.37 KCAL/MOL
REMARK 922        TOTAL FREE ENERGY PREDICTED BY IDOCK:  -11.59 KCAL/MOL
REMARK 923 INTER-LIGAND FREE ENERGY PREDICTED BY IDOCK:   -8.72 KCAL/MOL
REMARK 924 INTRA-LIGAND FREE ENERGY PREDICTED BY IDOCK:   -2.87 KCAL/MOL
REMARK 927      BINDING AFFINITY PREDICTED BY RF-SCORE:    0.00 PKD
ROOT
HETATM    1 MG   UNL     3     -13.342  11.073  69.059  1.00  0.00     0.035 Mg 
HETATM    2  O   UNL     4     -12.193  13.569  63.494  1.00  0.00    -0.781 OA 
HETATM    3  C   UNL     4     -12.319  12.404  64.287  1.00  0.00    -0.455 C  
HETATM    4  H   UNL     4     -12.942  13.713  62.926  1.00  0.00     0.000 HD 
HETATM    5  O   UNL     5      -8.915   7.796  74.432  1.00  0.00    -0.437 OA 
HETATM    6  H   UNL     5      -8.576   8.437  75.046  1.00  0.00     0.000 HD 
HETATM    7  C   UNL     5      -8.712   8.201  73.079  1.00  0.00    -0.243 C  
ENDROOT
BRANCH   3   8
HETATM    8  C   UNL     4     -11.110  12.171  65.204  1.00  0.00    -0.322 C  
HETATM    9  O   UNL     4     -10.105  13.169  64.943  1.00  0.00    -0.462 OA 
HETATM   10  H   UNL     4      -9.356  13.024  65.510  1.00  0.00     0.000 HD 
BRANCH   8  11
HETATM   11  C   UNL     4     -11.328  12.157  66.745  1.00  0.00    -0.342 C  
HETATM   12  O   UNL     4     -10.895  10.950  67.364  1.00  0.00    -0.242 OA 
HETATM   13  H   UNL     4     -11.028  10.942  68.304  1.00  0.00     0.000 HD 
BRANCH  11  14
HETATM   14  C   UNL     4     -10.879  13.402  67.556  1.00  0.00    -0.263 C  
HETATM   15  H   UNL     4      -9.379  13.797  68.744  1.00  0.00     0.000 HD 
HETATM   16  O   UNL     4      -9.654  13.035  68.247  1.00  0.00    -0.219 OA 
BRANCH  14  17
HETATM   17  C   UNL     4     -11.871  14.097  68.532  1.00  0.00    -0.355 C  
HETATM   18  C   UNL     4     -11.443  15.582  68.882  1.00  0.00    -0.354 C  
HETATM   19  H   UNL     4     -12.778  13.700  70.269  1.00  0.00     0.000 HD 
HETATM   20  O   UNL     4     -12.172  13.277  69.672  1.00  0.00    -0.279 OA 
HETATM   21  O   UNL     4     -10.933  16.231  67.875  1.00  0.00    -0.338 OA 
HETATM   22  O   UNL     4     -11.538  15.980  70.076  1.00  0.00    -0.332 OA 
ENDBRANCH  14  17
ENDBRANCH  11  14
ENDBRANCH   8  11
ENDBRANCH   3   8
BRANCH   7  23
HETATM   23  C   UNL     5      -9.261   7.160  72.082  1.00  0.00    -0.129 C  
HETATM   24  O   UNL     5     -10.498   6.659  72.594  1.00  0.00    -0.198 OA 
HETATM   25  H   UNL     5     -10.836   6.018  71.980  1.00  0.00     0.000 HD 
BRANCH  23  26
HETATM   26  C   UNL     5      -9.445   7.762  70.672  1.00  0.00    -0.162 C  
HETATM   27  O   UNL     5      -9.118   6.763  69.679  1.00  0.00    -0.143 OA 
HETATM   28  H   UNL     5      -9.232   7.133  68.811  1.00  0.00     0.000 HD 
BRANCH  26  29
HETATM   29  C   UNL     5     -10.810   8.427  70.337  1.00  0.00    -0.235 C  
HETATM   30  O   UNL     5     -11.055   8.515  68.934  1.00  0.00    -0.433 OA 
HETATM   31  H   UNL     5     -11.889   8.921  68.729  1.00  0.00     0.000 HD 
BRANCH  29  32
HETATM   32  C   UNL     5     -11.163   9.741  71.051  1.00  0.00    -0.381 C  
HETATM   33  C   UNL     5     -12.539   9.783  71.750  1.00  0.00    -0.416 C  
HETATM   34  O   UNL     5     -11.028  10.880  70.129  1.00  0.00    -0.441 OA 
HETATM   35  O   UNL     5     -12.956   8.705  72.268  1.00  0.00    -0.363 OA 
HETATM   36  O   UNL     5     -13.127  10.919  71.652  1.00  0.00    -0.430 OA 
HETATM   37  H   UNL     5     -11.246  11.692  70.570  1.00  0.00     0.000 HD 
ENDBRANCH  29  32
ENDBRANCH  26  29
ENDBRANCH  23  26
ENDBRANCH   7  23
TORSDOF 8
ENDMDL
MODEL       57
REMARK 921   NORMALIZED FREE ENERGY PREDICTED BY IDOCK:   -6.36 KCAL/MOL
REMARK 922        TOTAL FREE ENERGY PREDICTED BY IDOCK:  -11.58 KCAL/MOL
REMARK 923 INTER-LIGAND FREE ENERGY PREDICTED BY IDOCK:   -8.89 KCAL/MOL
REMARK 924 INTRA-LIGAND FREE ENERGY PREDICTED BY IDOCK:   -2.70 KCAL/MOL
REMARK 927      BINDING AFFINITY PREDICTED BY RF-SCORE:    0.00 PKD
ROOT
HETATM    1 MG   UNL     3     -12.795  13.874  69.585  1.00  0.00    -0.329 Mg 
HETATM    2  O   UNL     4     -11.851  15.854  63.779  1.00  0.00    -1.221 OA 
HETATM    3  C   UNL     4     -12.437  14.901  64.645  1.00  0.00    -0.174 C  
HETATM    4  H   UNL     4     -12.480  16.475  63.431  1.00  0.00     0.000 HD 
HETATM    5  O   UNL     5      -9.998   8.025  73.729  1.00  0.00    -0.198 OA 
HETATM    6  H   UNL     5      -9.203   8.269  74.188  1.00  0.00     0.000 HD 
HETATM    7  C   UNL     5      -9.947   8.389  72.350  1.00  0.00    -0.310 C  
ENDROOT
BRANCH   3   8
HETATM    8  C   UNL     4     -11.420  13.898  65.209  1.00  0.00    -0.315 C  
HETATM    9  O   UNL     4     -10.085  14.325  64.877  1.00  0.00    -0.519 OA 
HETATM   10  H   UNL     4      -9.456  13.704  65.226  1.00  0.00     0.000 HD 
BRANCH   8  11
HETATM   11  C   UNL     4     -11.423  13.605  66.737  1.00  0.00    -0.346 C  
HETATM   12  O   UNL     4     -11.327  12.218  67.045  1.00  0.00    -0.293 OA 
HETATM   13  H   UNL     4     -11.329  12.040  67.978  1.00  0.00     0.000 HD 
BRANCH  11  14
HETATM   14  C   UNL     4     -10.489  14.452  67.643  1.00  0.00    -0.245 C  
HETATM   15  H   UNL     4      -9.352  14.064  69.184  1.00  0.00     0.000 HD 
HETATM   16  O   UNL     4      -9.924  13.546  68.630  1.00  0.00    -0.219 OA 
BRANCH  14  17
HETATM   17  C   UNL     4     -11.026  15.741  68.329  1.00  0.00    -0.325 C  
HETATM   18  C   UNL     4     -10.332  17.057  67.783  1.00  0.00    -0.335 C  
HETATM   19  H   UNL     4     -11.374  16.412  70.179  1.00  0.00     0.000 HD 
HETATM   20  O   UNL     4     -11.045  15.625  69.760  1.00  0.00    -0.260 OA 
HETATM   21  O   UNL     4     -10.094  17.031  66.503  1.00  0.00    -0.289 OA 
HETATM   22  O   UNL     4      -9.992  17.954  68.603  1.00  0.00    -0.351 OA 
ENDBRANCH  14  17
ENDBRANCH  11  14
ENDBRANCH   8  11
ENDBRANCH   3   8
BRANCH   7  23
HETATM   23  C   UNL     5     -11.238   7.992  71.606  1.00  0.00    -0.255 C  
HETATM   24  O   UNL     5     -12.209   7.593  72.575  1.00  0.00    -0.516 OA 
HETATM   25  H   UNL     5     -13.004   7.348  72.117  1.00  0.00     0.000 HD 
BRANCH  23  26
HETATM   26  C   UNL     5     -11.770   9.147  70.729  1.00  0.00    -0.256 C  
HETATM   27  O   UNL     5     -12.683   9.957  71.505  1.00  0.00    -0.349 OA 
HETATM   28  H   UNL     5     -13.010  10.667  70.966  1.00  0.00     0.000 HD 
BRANCH  26  29
HETATM   29  C   UNL     5     -10.731  10.050  70.007  1.00  0.00    -0.299 C  
HETATM   30  O   UNL     5     -11.166  11.404  69.879  1.00  0.00    -0.414 OA 
HETATM   31  H   UNL     5     -10.530  11.956  69.438  1.00  0.00     0.000 HD 
BRANCH  29  32
HETATM   32  C   UNL     5     -10.117   9.533  68.697  1.00  0.00    -0.181 C  
HETATM   33  C   UNL     5      -8.912  10.329  68.153  1.00  0.00    -0.130 C  
HETATM   34  O   UNL     5     -11.153   9.408  67.658  1.00  0.00    -0.488 OA 
HETATM   35  O   UNL     5      -8.127  10.841  69.006  1.00  0.00    -0.136 OA 
HETATM   36  O   UNL     5      -8.901  10.430  66.875  1.00  0.00    -0.133 OA 
HETATM   37  H   UNL     5     -10.773   9.088  66.848  1.00  0.00     0.000 HD 
ENDBRANCH  29  32
ENDBRANCH  26  29
ENDBRANCH  23  26
ENDBRANCH   7  23
TORSDOF 8
ENDMDL
MODEL       58
REMARK 921   NORMALIZED FREE ENERGY PREDICTED BY IDOCK:   -6.36 KCAL/MOL
REMARK 922        TOTAL FREE ENERGY PREDICTED BY IDOCK:  -11.58 KCAL/MOL
REMARK 923 INTER-LIGAND FREE ENERGY PREDICTED BY IDOCK:   -9.12 KCAL/MOL
REMARK 924 INTRA-LIGAND FREE ENERGY PREDICTED BY IDOCK:   -2.46 KCAL/MOL
REMARK 927      BINDING AFFINITY PREDICTED BY RF-SCORE:    0.00 PKD
ROOT
HETATM    1 MG   UNL     3     -13.027  11.311  70.318  1.00  0.00    -0.278 Mg 
HETATM    2  O   UNL     4     -12.041   5.702  72.784  1.00  0.00    -0.532 OA 
HETATM    3  C   UNL     4     -11.498   6.889  72.239  1.00  0.00    -0.275 C  
HETATM    4  H   UNL     4     -11.960   5.658  73.730  1.00  0.00     0.000 HD 
HETATM    5  O   UNL     5     -12.535  14.142  63.179  1.00  0.00    -1.126 OA 
HETATM    6  H   UNL     5     -13.353  14.045  62.707  1.00  0.00     0.000 HD 
HETATM    7  C   UNL     5     -12.135  12.921  63.802  1.00  0.00    -0.508 C  
ENDROOT
BRANCH   3   8
HETATM    8  C   UNL     4     -11.629   6.960  70.710  1.00  0.00    -0.349 C  
HETATM    9  O   UNL     4     -12.316   8.169  70.339  1.00  0.00    -0.390 OA 
HETATM   10  H   UNL     4     -12.397   8.213  69.393  1.00  0.00     0.000 HD 
BRANCH   8  11
HETATM   11  C   UNL     4     -10.337   6.902  69.843  1.00  0.00    -0.205 C  
HETATM   12  O   UNL     4     -10.301   5.787  68.960  1.00  0.00    -0.197 OA 
HETATM   13  H   UNL     4      -9.513   5.752  68.431  1.00  0.00     0.000 HD 
BRANCH  11  14
HETATM   14  C   UNL     4      -9.879   8.204  69.131  1.00  0.00    -0.182 C  
HETATM   15  H   UNL     4      -9.546  10.040  69.711  1.00  0.00     0.000 HD 
HETATM   16  O   UNL     4      -9.826   9.243  70.147  1.00  0.00    -0.186 OA 
BRANCH  14  17
HETATM   17  C   UNL     4     -10.635   8.710  67.870  1.00  0.00    -0.161 C  
HETATM   18  C   UNL     4      -9.807   8.498  66.536  1.00  0.00    -0.272 C  
HETATM   19  H   UNL     4     -11.617  10.347  67.276  1.00  0.00     0.000 HD 
HETATM   20  O   UNL     4     -11.155  10.037  68.046  1.00  0.00    -0.266 OA 
HETATM   21  O   UNL     4      -9.134   7.383  66.509  1.00  0.00    -0.150 OA 
HETATM   22  O   UNL     4      -9.785   9.421  65.676  1.00  0.00    -0.278 OA 
ENDBRANCH  14  17
ENDBRANCH  11  14
ENDBRANCH   8  11
ENDBRANCH   3   8
BRANCH   7  23
HETATM   23  C   UNL     5     -10.807  13.079  64.569  1.00  0.00    -0.372 C  
HETATM   24  O   UNL     5     -10.444  14.461  64.557  1.00  0.00    -0.574 OA 
HETATM   25  H   UNL     5      -9.626  14.558  65.029  1.00  0.00     0.000 HD 
BRANCH  23  26
HETATM   26  C   UNL     5     -10.915  12.545  66.014  1.00  0.00    -0.283 C  
HETATM   27  O   UNL     5      -9.590  12.410  66.576  1.00  0.00    -0.229 OA 
HETATM   28  H   UNL     5      -9.656  12.082  67.465  1.00  0.00     0.000 HD 
BRANCH  26  29
HETATM   29  C   UNL     5     -11.844  13.304  67.003  1.00  0.00    -0.390 C  
HETATM   30  O   UNL     5     -12.680  14.262  66.355  1.00  0.00    -0.524 OA 
HETATM   31  H   UNL     5     -13.248  14.726  66.960  1.00  0.00     0.000 HD 
BRANCH  29  32
HETATM   32  C   UNL     5     -11.214  13.883  68.280  1.00  0.00    -0.272 C  
HETATM   33  C   UNL     5     -10.242  15.065  68.080  1.00  0.00    -0.228 C  
HETATM   34  O   UNL     5     -10.563  12.818  69.061  1.00  0.00    -0.401 OA 
HETATM   35  O   UNL     5     -10.501  15.872  67.137  1.00  0.00    -0.302 OA 
HETATM   36  O   UNL     5      -9.234  15.037  68.871  1.00  0.00    -0.192 OA 
HETATM   37  H   UNL     5     -10.174  13.176  69.850  1.00  0.00     0.000 HD 
ENDBRANCH  29  32
ENDBRANCH  26  29
ENDBRANCH  23  26
ENDBRANCH   7  23
TORSDOF 8
ENDMDL
MODEL       59
REMARK 921   NORMALIZED FREE ENERGY PREDICTED BY IDOCK:   -6.33 KCAL/MOL
REMARK 922        TOTAL FREE ENERGY PREDICTED BY IDOCK:  -11.53 KCAL/MOL
REMARK 923 INTER-LIGAND FREE ENERGY PREDICTED BY IDOCK:   -8.68 KCAL/MOL
REMARK 924 INTRA-LIGAND FREE ENERGY PREDICTED BY IDOCK:   -2.85 KCAL/MOL
REMARK 927      BINDING AFFINITY PREDICTED BY RF-SCORE:    0.00 PKD
ROOT
HETATM    1 MG   UNL     3     -12.554  14.729  66.382  1.00  0.00    -0.362 Mg 
HETATM    2  O   UNL     4      -9.898  20.322  66.810  1.00  0.00    -0.427 OA 
HETATM    3  C   UNL     4      -9.744  18.928  66.624  1.00  0.00    -0.347 C  
HETATM    4  H   UNL     4      -9.806  20.815  66.003  1.00  0.00     0.000 HD 
HETATM    5  O   UNL     5     -12.959   8.660  71.095  1.00  0.00    -0.484 OA 
HETATM    6  H   UNL     5     -13.709   8.717  71.676  1.00  0.00     0.000 HD 
HETATM    7  C   UNL     5     -12.205   9.872  71.086  1.00  0.00    -0.373 C  
ENDROOT
BRANCH   3   8
HETATM    8  C   UNL     4      -9.892  18.130  67.928  1.00  0.00    -0.313 C  
HETATM    9  O   UNL     4     -10.400  18.989  68.966  1.00  0.00    -0.515 OA 
HETATM   10  H   UNL     4     -10.491  18.496  69.773  1.00  0.00     0.000 HD 
BRANCH   8  11
HETATM   11  C   UNL     4     -10.788  16.857  67.931  1.00  0.00    -0.310 C  
HETATM   12  O   UNL     4     -10.539  15.991  66.829  1.00  0.00    -0.315 OA 
HETATM   13  H   UNL     4     -11.085  15.214  66.832  1.00  0.00     0.000 HD 
BRANCH  11  14
HETATM   14  C   UNL     4     -10.919  16.062  69.258  1.00  0.00    -0.306 C  
HETATM   15  H   UNL     4      -9.739  14.879  70.271  1.00  0.00     0.000 HD 
HETATM   16  O   UNL     4      -9.659  15.366  69.459  1.00  0.00    -0.255 OA 
BRANCH  14  17
HETATM   17  C   UNL     4     -12.119  15.095  69.473  1.00  0.00    -0.283 C  
HETATM   18  C   UNL     4     -12.240  14.596  70.972  1.00  0.00    -0.332 C  
HETATM   19  H   UNL     4     -12.885  13.457  68.620  1.00  0.00     0.000 HD 
HETATM   20  O   UNL     4     -12.152  14.048  68.490  1.00  0.00    -0.357 OA 
HETATM   21  O   UNL     4     -11.955  15.512  71.853  1.00  0.00    -0.342 OA 
HETATM   22  O   UNL     4     -12.501  13.382  71.192  1.00  0.00    -0.362 OA 
ENDBRANCH  14  17
ENDBRANCH  11  14
ENDBRANCH   8  11
ENDBRANCH   3   8
BRANCH   7  23
HETATM   23  C   UNL     5     -10.987   9.780  70.144  1.00  0.00    -0.291 C  
HETATM   24  O   UNL     5     -10.922   8.450  69.625  1.00  0.00    -0.378 OA 
HETATM   25  H   UNL     5     -10.172   8.394  69.044  1.00  0.00     0.000 HD 
BRANCH  23  26
HETATM   26  C   UNL     5     -11.067  10.819  69.004  1.00  0.00    -0.253 C  
HETATM   27  O   UNL     5     -10.552  12.085  69.473  1.00  0.00    -0.434 OA 
HETATM   28  H   UNL     5     -10.601  12.725  68.772  1.00  0.00     0.000 HD 
BRANCH  26  29
HETATM   29  C   UNL     5     -10.427  10.450  67.637  1.00  0.00    -0.233 C  
HETATM   30  O   UNL     5      -9.065  10.863  67.532  1.00  0.00    -0.140 OA 
HETATM   31  H   UNL     5      -8.673  10.637  66.696  1.00  0.00     0.000 HD 
BRANCH  29  32
HETATM   32  C   UNL     5     -11.214  10.787  66.360  1.00  0.00     0.189 C  
HETATM   33  C   UNL     5     -10.404  10.785  65.046  1.00  0.00    -0.287 C  
HETATM   34  O   UNL     5     -11.925  12.066  66.516  1.00  0.00    -0.616 OA 
HETATM   35  O   UNL     5      -9.463   9.942  64.948  1.00  0.00    -0.259 OA 
HETATM   36  O   UNL     5     -10.755  11.710  64.229  1.00  0.00    -0.295 OA 
HETATM   37  H   UNL     5     -12.411  12.274  65.728  1.00  0.00     0.000 HD 
ENDBRANCH  29  32
ENDBRANCH  26  29
ENDBRANCH  23  26
ENDBRANCH   7  23
TORSDOF 8
ENDMDL
MODEL       60
REMARK 921   NORMALIZED FREE ENERGY PREDICTED BY IDOCK:   -6.32 KCAL/MOL
REMARK 922        TOTAL FREE ENERGY PREDICTED BY IDOCK:  -11.51 KCAL/MOL
REMARK 923 INTER-LIGAND FREE ENERGY PREDICTED BY IDOCK:   -8.44 KCAL/MOL
REMARK 924 INTRA-LIGAND FREE ENERGY PREDICTED BY IDOCK:   -3.07 KCAL/MOL
REMARK 927      BINDING AFFINITY PREDICTED BY RF-SCORE:    0.00 PKD
ROOT
HETATM    1 MG   UNL     3      -8.724   7.642  68.917  1.00  0.00    -0.124 Mg 
HETATM    2  O   UNL     4     -11.346   5.082  73.926  1.00  0.00    -0.417 OA 
HETATM    3  C   UNL     4     -11.505   5.817  72.728  1.00  0.00    -0.255 C  
HETATM    4  H   UNL     4     -11.629   4.179  73.847  1.00  0.00     0.000 HD 
HETATM    5  O   UNL     5      -7.118  14.884  66.871  1.00  0.00    -0.321 OA 
HETATM    6  H   UNL     5      -6.258  15.151  67.172  1.00  0.00     0.000 HD 
HETATM    7  C   UNL     5      -7.884  14.285  67.916  1.00  0.00    -0.152 C  
ENDROOT
BRANCH   3   8
HETATM    8  C   UNL     4     -11.047   7.278  72.856  1.00  0.00    -0.325 C  
HETATM    9  O   UNL     4     -10.209   7.421  74.019  1.00  0.00    -0.405 OA 
HETATM   10  H   UNL     4      -9.926   8.325  74.098  1.00  0.00     0.000 HD 
BRANCH   8  11
HETATM   11  C   UNL     4     -10.274   7.928  71.672  1.00  0.00    -0.192 C  
HETATM   12  O   UNL     4      -9.262   7.085  71.130  1.00  0.00    -0.157 OA 
HETATM   13  H   UNL     4      -8.791   7.483  70.407  1.00  0.00     0.000 HD 
BRANCH  11  14
HETATM   14  C   UNL     4     -11.101   8.615  70.552  1.00  0.00    -0.242 C  
HETATM   15  H   UNL     4     -11.499   8.191  68.687  1.00  0.00     0.000 HD 
HETATM   16  O   UNL     4     -10.994   7.771  69.372  1.00  0.00    -0.165 OA 
BRANCH  14  17
HETATM   17  C   UNL     4     -10.834  10.103  70.186  1.00  0.00    -0.311 C  
HETATM   18  C   UNL     4     -12.039  11.053  70.579  1.00  0.00    -0.377 C  
HETATM   19  H   UNL     4     -10.206  11.162  68.611  1.00  0.00     0.000 HD 
HETATM   20  O   UNL     4     -10.369  10.253  68.835  1.00  0.00    -0.182 OA 
HETATM   21  O   UNL     4     -12.612  10.735  71.704  1.00  0.00    -0.385 OA 
HETATM   22  O   UNL     4     -12.399  11.950  69.767  1.00  0.00    -0.187 OA 
ENDBRANCH  14  17
ENDBRANCH  11  14
ENDBRANCH   8  11
ENDBRANCH   3   8
BRANCH   7  23
HETATM   23  C   UNL     5      -9.280  13.853  67.426  1.00  0.00    -0.224 C  
HETATM   24  O   UNL     5      -9.886  13.058  68.447  1.00  0.00    -0.228 OA 
HETATM   25  H   UNL     5     -10.747  12.791  68.145  1.00  0.00     0.000 HD 
BRANCH  23  26
HETATM   26  C   UNL     5     -10.163  15.069  67.070  1.00  0.00    -0.257 C  
HETATM   27  O   UNL     5      -9.523  15.836  66.026  1.00  0.00    -0.311 OA 
HETATM   28  H   UNL     5     -10.066  16.584  65.807  1.00  0.00     0.000 HD 
BRANCH  26  29
HETATM   29  C   UNL     5     -11.652  14.806  66.710  1.00  0.00    -0.324 C  
HETATM   30  O   UNL     5     -12.406  14.289  67.806  1.00  0.00    -0.596 OA 
HETATM   31  H   UNL     5     -13.316  14.128  67.586  1.00  0.00     0.000 HD 
BRANCH  29  32
HETATM   32  C   UNL     5     -11.953  14.040  65.412  1.00  0.00    -0.380 C  
HETATM   33  C   UNL     5     -11.738  12.513  65.462  1.00  0.00    -0.409 C  
HETATM   34  O   UNL     5     -11.203  14.621  64.286  1.00  0.00    -0.615 OA 
HETATM   35  O   UNL     5     -11.993  11.930  66.557  1.00  0.00    -0.588 OA 
HETATM   36  O   UNL     5     -11.252  12.030  64.378  1.00  0.00    -0.315 OA 
HETATM   37  H   UNL     5     -11.389  14.148  63.484  1.00  0.00     0.000 HD 
ENDBRANCH  29  32
ENDBRANCH  26  29
ENDBRANCH  23  26
ENDBRANCH   7  23
TORSDOF 8
ENDMDL
MODEL       61
REMARK 921   NORMALIZED FREE ENERGY PREDICTED BY IDOCK:   -6.31 KCAL/MOL
REMARK 922        TOTAL FREE ENERGY PREDICTED BY IDOCK:  -11.51 KCAL/MOL
REMARK 923 INTER-LIGAND FREE ENERGY PREDICTED BY IDOCK:   -9.26 KCAL/MOL
REMARK 924 INTRA-LIGAND FREE ENERGY PREDICTED BY IDOCK:   -2.25 KCAL/MOL
REMARK 927      BINDING AFFINITY PREDICTED BY RF-SCORE:    0.00 PKD
ROOT
HETATM    1 MG   UNL     3     -11.568  16.236  65.327  1.00  0.00    -0.235 Mg 
HETATM    2  O   UNL     4     -12.117  10.954  68.540  1.00  0.00    -0.754 OA 
HETATM    3  C   UNL     4     -11.861  12.345  68.547  1.00  0.00    -0.304 C  
HETATM    4  H   UNL     4     -12.985  10.735  68.859  1.00  0.00     0.000 HD 
HETATM    5  O   UNL     5      -5.571  20.549  63.172  1.00  0.00    -0.214 OA 
HETATM    6  H   UNL     5      -5.225  20.272  62.332  1.00  0.00     0.000 HD 
HETATM    7  C   UNL     5      -5.743  19.447  64.062  1.00  0.00    -0.290 C  
ENDROOT
BRANCH   3   8
HETATM    8  C   UNL     4     -10.459  12.698  68.030  1.00  0.00    -0.224 C  
HETATM    9  O   UNL     4      -9.821  11.515  67.514  1.00  0.00    -0.186 OA 
HETATM   10  H   UNL     4      -8.953  11.733  67.195  1.00  0.00     0.000 HD 
BRANCH   8  11
HETATM   11  C   UNL     4     -10.318  13.791  66.930  1.00  0.00    -0.266 C  
HETATM   12  O   UNL     4      -9.087  14.502  66.997  1.00  0.00    -0.216 OA 
HETATM   13  H   UNL     4      -9.001  15.168  66.326  1.00  0.00     0.000 HD 
BRANCH  11  14
HETATM   14  C   UNL     4     -10.668  13.401  65.468  1.00  0.00    -0.294 C  
HETATM   15  H   UNL     4     -10.520  14.296  63.738  1.00  0.00     0.000 HD 
HETATM   16  O   UNL     4     -10.306  14.535  64.632  1.00  0.00    -0.370 OA 
BRANCH  14  17
HETATM   17  C   UNL     4     -12.097  12.897  65.116  1.00  0.00    -0.445 C  
HETATM   18  C   UNL     4     -12.123  12.002  63.808  1.00  0.00    -0.499 C  
HETATM   19  H   UNL     4     -13.938  13.650  64.919  1.00  0.00     0.000 HD 
HETATM   20  O   UNL     4     -13.065  13.958  65.134  1.00  0.00    -0.773 OA 
HETATM   21  O   UNL     4     -11.089  11.218  63.690  1.00  0.00    -0.376 OA 
HETATM   22  O   UNL     4     -13.051  12.171  62.970  1.00  0.00    -0.496 OA 
ENDBRANCH  14  17
ENDBRANCH  11  14
ENDBRANCH   8  11
ENDBRANCH   3   8
BRANCH   7  23
HETATM   23  C   UNL     5      -6.306  19.896  65.426  1.00  0.00    -0.250 C  
HETATM   24  O   UNL     5      -7.649  20.342  65.231  1.00  0.00    -0.472 OA 
HETATM   25  H   UNL     5      -7.996  20.619  66.071  1.00  0.00     0.000 HD 
BRANCH  23  26
HETATM   26  C   UNL     5      -6.242  18.762  66.472  1.00  0.00    -0.178 C  
HETATM   27  O   UNL     5      -5.676  19.273  67.700  1.00  0.00    -0.186 OA 
HETATM   28  H   UNL     5      -5.637  18.575  68.343  1.00  0.00     0.000 HD 
BRANCH  26  29
HETATM   29  C   UNL     5      -7.548  17.972  66.769  1.00  0.00    -0.220 C  
HETATM   30  O   UNL     5      -8.291  17.663  65.591  1.00  0.00    -0.467 OA 
HETATM   31  H   UNL     5      -9.089  17.181  65.772  1.00  0.00     0.000 HD 
BRANCH  29  32
HETATM   32  C   UNL     5      -8.464  18.493  67.888  1.00  0.00    -0.275 C  
HETATM   33  C   UNL     5      -9.977  18.270  67.684  1.00  0.00    -0.338 C  
HETATM   34  O   UNL     5      -8.192  19.916  68.154  1.00  0.00    -0.302 OA 
HETATM   35  O   UNL     5     -10.328  17.209  67.087  1.00  0.00    -0.303 OA 
HETATM   36  O   UNL     5     -10.698  19.247  68.095  1.00  0.00    -0.329 OA 
HETATM   37  H   UNL     5      -8.758  20.238  68.846  1.00  0.00     0.000 HD 
ENDBRANCH  29  32
ENDBRANCH  26  29
ENDBRANCH  23  26
ENDBRANCH   7  23
TORSDOF 8
ENDMDL
MODEL       62
REMARK 921   NORMALIZED FREE ENERGY PREDICTED BY IDOCK:   -6.31 KCAL/MOL
REMARK 922        TOTAL FREE ENERGY PREDICTED BY IDOCK:  -11.50 KCAL/MOL
REMARK 923 INTER-LIGAND FREE ENERGY PREDICTED BY IDOCK:   -9.23 KCAL/MOL
REMARK 924 INTRA-LIGAND FREE ENERGY PREDICTED BY IDOCK:   -2.27 KCAL/MOL
REMARK 927      BINDING AFFINITY PREDICTED BY RF-SCORE:    0.00 PKD
ROOT
HETATM    1 MG   UNL     3      -9.343   8.714  63.881  1.00  0.00    -0.424 Mg 
HETATM    2  O   UNL     4      -9.573   4.181  68.115  1.00  0.00    -0.162 OA 
HETATM    3  C   UNL     4     -10.270   5.041  67.234  1.00  0.00    -0.168 C  
HETATM    4  H   UNL     4      -9.512   3.290  67.792  1.00  0.00     0.000 HD 
HETATM    5  O   UNL     5     -11.058  16.214  64.024  1.00  0.00    -1.137 OA 
HETATM    6  H   UNL     5     -10.312  16.739  64.289  1.00  0.00     0.000 HD 
HETATM    7  C   UNL     5     -11.278  15.119  64.913  1.00  0.00    -0.417 C  
ENDROOT
BRANCH   3   8
HETATM    8  C   UNL     4     -10.367   6.482  67.757  1.00  0.00    -0.192 C  
HETATM    9  O   UNL     4     -11.125   7.283  66.830  1.00  0.00    -0.561 OA 
HETATM   10  H   UNL     4     -11.184   8.175  67.154  1.00  0.00     0.000 HD 
BRANCH   8  11
HETATM   11  C   UNL     4     -10.987   6.730  69.163  1.00  0.00    -0.244 C  
HETATM   12  O   UNL     4     -10.894   5.601  70.026  1.00  0.00    -0.325 OA 
HETATM   13  H   UNL     4     -11.272   5.753  70.884  1.00  0.00     0.000 HD 
BRANCH  11  14
HETATM   14  C   UNL     4     -10.611   8.041  69.904  1.00  0.00    -0.242 C  
HETATM   15  H   UNL     4     -10.534   9.927  69.400  1.00  0.00     0.000 HD 
HETATM   16  O   UNL     4     -10.764   9.125  68.947  1.00  0.00    -0.212 OA 
BRANCH  14  17
HETATM   17  C   UNL     4      -9.248   8.155  70.645  1.00  0.00    -0.154 C  
HETATM   18  C   UNL     4      -9.401   8.066  72.220  1.00  0.00    -0.197 C  
HETATM   19  H   UNL     4      -7.638   9.340  70.634  1.00  0.00     0.000 HD 
HETATM   20  O   UNL     4      -8.471   9.271  70.182  1.00  0.00    -0.151 OA 
HETATM   21  O   UNL     4     -10.305   7.215  72.612  1.00  0.00    -0.193 OA 
HETATM   22  O   UNL     4      -8.733   8.856  72.944  1.00  0.00    -0.313 OA 
ENDBRANCH  14  17
ENDBRANCH  11  14
ENDBRANCH   8  11
ENDBRANCH   3   8
BRANCH   7  23
HETATM   23  C   UNL     5     -12.489  14.267  64.482  1.00  0.00    -0.333 C  
HETATM   24  O   UNL     5     -12.598  14.330  63.059  1.00  0.00    -0.884 OA 
HETATM   25  H   UNL     5     -13.344  13.806  62.794  1.00  0.00     0.000 HD 
BRANCH  23  26
HETATM   26  C   UNL     5     -12.361  12.807  64.966  1.00  0.00    -0.499 C  
HETATM   27  O   UNL     5     -13.296  11.977  64.240  1.00  0.00    -0.709 OA 
HETATM   28  H   UNL     5     -13.217  11.078  64.538  1.00  0.00     0.000 HD 
BRANCH  26  29
HETATM   29  C   UNL     5     -10.948  12.159  64.958  1.00  0.00    -0.309 C  
HETATM   30  O   UNL     5     -10.716  11.347  63.808  1.00  0.00    -0.359 OA 
HETATM   31  H   UNL     5      -9.852  10.951  63.802  1.00  0.00     0.000 HD 
BRANCH  29  32
HETATM   32  C   UNL     5     -10.469  11.461  66.242  1.00  0.00    -0.255 C  
HETATM   33  C   UNL     5      -9.169  12.009  66.865  1.00  0.00    -0.197 C  
HETATM   34  O   UNL     5     -10.356  10.009  66.026  1.00  0.00    -0.231 OA 
HETATM   35  O   UNL     5      -8.960  13.255  66.763  1.00  0.00    -0.228 OA 
HETATM   36  O   UNL     5      -8.414  11.097  67.358  1.00  0.00    -0.130 OA 
HETATM   37  H   UNL     5     -10.061   9.578  66.819  1.00  0.00     0.000 HD 
ENDBRANCH  29  32
ENDBRANCH  26  29
ENDBRANCH  23  26
ENDBRANCH   7  23
TORSDOF 8
ENDMDL
MODEL       63
REMARK 921   NORMALIZED FREE ENERGY PREDICTED BY IDOCK:   -6.30 KCAL/MOL
REMARK 922        TOTAL FREE ENERGY PREDICTED BY IDOCK:  -11.49 KCAL/MOL
REMARK 923 INTER-LIGAND FREE ENERGY PREDICTED BY IDOCK:   -8.33 KCAL/MOL
REMARK 924 INTRA-LIGAND FREE ENERGY PREDICTED BY IDOCK:   -3.15 KCAL/MOL
REMARK 927      BINDING AFFINITY PREDICTED BY RF-SCORE:    0.00 PKD
ROOT
HETATM    1 MG   UNL     3     -12.108   6.393  67.757  1.00  0.00    -0.580 Mg 
HETATM    2  O   UNL     4     -10.967   5.858  73.834  1.00  0.00    -0.398 OA 
HETATM    3  C   UNL     4     -11.634   6.542  72.791  1.00  0.00    -0.075 C  
HETATM    4  H   UNL     4     -11.542   5.285  74.329  1.00  0.00     0.000 HD 
HETATM    5  O   UNL     5      -9.820  11.349  62.334  1.00  0.00    -0.521 OA 
HETATM    6  H   UNL     5      -9.011  11.070  61.922  1.00  0.00     0.000 HD 
HETATM    7  C   UNL     5      -9.730  11.312  63.758  1.00  0.00    -0.298 C  
ENDROOT
BRANCH   3   8
HETATM    8  C   UNL     4     -10.705   7.466  71.991  1.00  0.00    -0.219 C  
HETATM    9  O   UNL     4      -9.376   7.410  72.542  1.00  0.00    -0.139 OA 
HETATM   10  H   UNL     4      -8.800   7.983  72.047  1.00  0.00     0.000 HD 
BRANCH   8  11
HETATM   11  C   UNL     4     -10.557   7.238  70.458  1.00  0.00    -0.222 C  
HETATM   12  O   UNL     4     -11.272   6.100  69.987  1.00  0.00    -0.365 OA 
HETATM   13  H   UNL     4     -11.182   5.962  69.052  1.00  0.00     0.000 HD 
BRANCH  11  14
HETATM   14  C   UNL     4     -10.751   8.458  69.518  1.00  0.00    -0.175 C  
HETATM   15  H   UNL     4     -10.409   8.798  67.624  1.00  0.00     0.000 HD 
HETATM   16  O   UNL     4     -10.291   8.051  68.200  1.00  0.00    -0.201 OA 
BRANCH  14  17
HETATM   17  C   UNL     4     -10.153   9.842  69.903  1.00  0.00    -0.251 C  
HETATM   18  C   UNL     4     -10.771  11.030  69.055  1.00  0.00    -0.219 C  
HETATM   19  H   UNL     4      -8.353  10.664  70.179  1.00  0.00     0.000 HD 
HETATM   20  O   UNL     4      -8.718   9.819  69.944  1.00  0.00    -0.192 OA 
HETATM   21  O   UNL     4     -12.044  10.896  68.814  1.00  0.00    -0.496 OA 
HETATM   22  O   UNL     4     -10.003  11.930  68.616  1.00  0.00    -0.207 OA 
ENDBRANCH  14  17
ENDBRANCH  11  14
ENDBRANCH   8  11
ENDBRANCH   3   8
BRANCH   7  23
HETATM   23  C   UNL     5     -11.044  11.766  64.426  1.00  0.00    -0.334 C  
HETATM   24  O   UNL     5     -11.054  11.281  65.770  1.00  0.00    -0.206 OA 
HETATM   25  H   UNL     5     -11.863  11.561  66.181  1.00  0.00     0.000 HD 
BRANCH  23  26
HETATM   26  C   UNL     5     -11.203  13.302  64.387  1.00  0.00    -0.381 C  
HETATM   27  O   UNL     5     -12.606  13.635  64.276  1.00  0.00    -0.640 OA 
HETATM   28  H   UNL     5     -12.704  14.580  64.252  1.00  0.00     0.000 HD 
BRANCH  26  29
HETATM   29  C   UNL     5     -10.541  14.131  65.522  1.00  0.00    -0.326 C  
HETATM   30  O   UNL     5      -9.340  13.538  66.016  1.00  0.00    -0.477 OA 
HETATM   31  H   UNL     5      -8.935  14.044  66.710  1.00  0.00     0.000 HD 
BRANCH  29  32
HETATM   32  C   UNL     5     -11.437  14.620  66.671  1.00  0.00    -0.357 C  
HETATM   33  C   UNL     5     -10.709  15.258  67.873  1.00  0.00    -0.275 C  
HETATM   34  O   UNL     5     -12.321  13.536  67.131  1.00  0.00    -0.315 OA 
HETATM   35  O   UNL     5      -9.660  15.924  67.625  1.00  0.00    -0.219 OA 
HETATM   36  O   UNL     5     -11.237  14.966  69.004  1.00  0.00    -0.238 OA 
HETATM   37  H   UNL     5     -12.875  13.838  67.841  1.00  0.00     0.000 HD 
ENDBRANCH  29  32
ENDBRANCH  26  29
ENDBRANCH  23  26
ENDBRANCH   7  23
TORSDOF 8
ENDMDL
MODEL       64
REMARK 921   NORMALIZED FREE ENERGY PREDICTED BY IDOCK:   -6.29 KCAL/MOL
REMARK 922        TOTAL FREE ENERGY PREDICTED BY IDOCK:  -11.48 KCAL/MOL
REMARK 923 INTER-LIGAND FREE ENERGY PREDICTED BY IDOCK:   -9.50 KCAL/MOL
REMARK 924 INTRA-LIGAND FREE ENERGY PREDICTED BY IDOCK:   -1.98 KCAL/MOL
REMARK 927      BINDING AFFINITY PREDICTED BY RF-SCORE:    0.00 PKD
ROOT
HETATM    1 MG   UNL     3     -10.626  13.795  70.520  1.00  0.00    -0.422 Mg 
HETATM    2  O   UNL     4      -9.892  17.355  65.490  1.00  0.00    -0.536 OA 
HETATM    3  C   UNL     4     -10.630  16.345  66.152  1.00  0.00    -0.255 C  
HETATM    4  H   UNL     4     -10.332  18.197  65.493  1.00  0.00     0.000 HD 
HETATM    5  O   UNL     5      -9.307   6.362  72.012  1.00  0.00    -0.152 OA 
HETATM    6  H   UNL     5      -8.422   6.219  72.324  1.00  0.00     0.000 HD 
HETATM    7  C   UNL     5      -9.330   7.157  70.827  1.00  0.00    -0.160 C  
ENDROOT
BRANCH   3   8
HETATM    8  C   UNL     4      -9.919  14.984  66.146  1.00  0.00    -0.291 C  
HETATM    9  O   UNL     4      -8.511  15.172  66.382  1.00  0.00    -0.413 OA 
HETATM   10  H   UNL     4      -8.071  14.330  66.378  1.00  0.00     0.000 HD 
BRANCH   8  11
HETATM   11  C   UNL     4     -10.390  13.887  67.145  1.00  0.00    -0.265 C  
HETATM   12  O   UNL     4     -10.995  14.418  68.320  1.00  0.00    -0.236 OA 
HETATM   13  H   UNL     4     -11.282  13.749  68.929  1.00  0.00     0.000 HD 
BRANCH  11  14
HETATM   14  C   UNL     4     -11.202  12.689  66.582  1.00  0.00    -0.300 C  
HETATM   15  H   UNL     4     -11.558  10.867  67.191  1.00  0.00     0.000 HD 
HETATM   16  O   UNL     4     -11.061  11.600  67.535  1.00  0.00    -0.240 OA 
BRANCH  14  17
HETATM   17  C   UNL     4     -10.944  12.185  65.134  1.00  0.00    -0.310 C  
HETATM   18  C   UNL     4     -12.105  12.586  64.132  1.00  0.00    -0.447 C  
HETATM   19  H   UNL     4     -10.422  10.487  64.216  1.00  0.00     0.000 HD 
HETATM   20  O   UNL     4     -10.580  10.795  65.101  1.00  0.00    -0.259 OA 
HETATM   21  O   UNL     4     -12.596  13.773  64.348  1.00  0.00    -0.638 OA 
HETATM   22  O   UNL     4     -12.513  11.733  63.297  1.00  0.00    -0.543 OA 
ENDBRANCH  14  17
ENDBRANCH  11  14
ENDBRANCH   8  11
ENDBRANCH   3   8
BRANCH   7  23
HETATM   23  C   UNL     5     -10.768   7.389  70.321  1.00  0.00    -0.237 C  
HETATM   24  O   UNL     5     -11.440   6.128  70.288  1.00  0.00    -0.375 OA 
HETATM   25  H   UNL     5     -12.325   6.271  69.976  1.00  0.00     0.000 HD 
BRANCH  23  26
HETATM   26  C   UNL     5     -11.528   8.402  71.204  1.00  0.00    -0.274 C  
HETATM   27  O   UNL     5     -10.812   8.585  72.447  1.00  0.00    -0.346 OA 
HETATM   28  H   UNL     5     -11.280   9.208  72.991  1.00  0.00     0.000 HD 
BRANCH  26  29
HETATM   29  C   UNL     5     -11.890   9.780  70.584  1.00  0.00    -0.281 C  
HETATM   30  O   UNL     5     -10.747  10.601  70.348  1.00  0.00    -0.445 OA 
HETATM   31  H   UNL     5     -10.968  11.443  69.968  1.00  0.00     0.000 HD 
BRANCH  29  32
HETATM   32  C   UNL     5     -13.031  10.581  71.230  1.00  0.00    -0.433 C  
HETATM   33  C   UNL     5     -12.861  12.115  71.239  1.00  0.00    -0.250 C  
HETATM   34  O   UNL     5     -13.295  10.093  72.594  1.00  0.00    -0.524 OA 
HETATM   35  O   UNL     5     -12.269  12.636  70.247  1.00  0.00    -0.331 OA 
HETATM   36  O   UNL     5     -13.291  12.671  72.311  1.00  0.00    -0.533 OA 
HETATM   37  H   UNL     5     -14.000  10.588  72.993  1.00  0.00     0.000 HD 
ENDBRANCH  29  32
ENDBRANCH  26  29
ENDBRANCH  23  26
ENDBRANCH   7  23
TORSDOF 8
ENDMDL
MODEL       65
REMARK 921   NORMALIZED FREE ENERGY PREDICTED BY IDOCK:   -6.29 KCAL/MOL
REMARK 922        TOTAL FREE ENERGY PREDICTED BY IDOCK:  -11.47 KCAL/MOL
REMARK 923 INTER-LIGAND FREE ENERGY PREDICTED BY IDOCK:   -8.80 KCAL/MOL
REMARK 924 INTRA-LIGAND FREE ENERGY PREDICTED BY IDOCK:   -2.67 KCAL/MOL
REMARK 927      BINDING AFFINITY PREDICTED BY RF-SCORE:    0.00 PKD
ROOT
HETATM    1 MG   UNL     3     -12.842  16.026  68.736  1.00  0.00    -0.580 Mg 
HETATM    2  O   UNL     4      -9.715  20.999  66.734  1.00  0.00    -0.608 OA 
HETATM    3  C   UNL     4     -10.383  19.792  66.421  1.00  0.00    -0.508 C  
HETATM    4  H   UNL     4     -10.227  21.771  66.523  1.00  0.00     0.000 HD 
HETATM    5  O   UNL     5     -11.043   8.590  69.555  1.00  0.00    -0.422 OA 
HETATM    6  H   UNL     5     -10.669   8.412  70.410  1.00  0.00     0.000 HD 
HETATM    7  C   UNL     5     -10.417   9.708  68.926  1.00  0.00    -0.215 C  
ENDROOT
BRANCH   3   8
HETATM    8  C   UNL     4      -9.554  18.544  66.761  1.00  0.00    -0.321 C  
HETATM    9  O   UNL     4      -8.546  18.343  65.753  1.00  0.00    -0.450 OA 
HETATM   10  H   UNL     4      -8.034  17.571  65.964  1.00  0.00     0.000 HD 
BRANCH   8  11
HETATM   11  C   UNL     4      -8.824  18.481  68.134  1.00  0.00    -0.306 C  
HETATM   12  O   UNL     4      -9.451  19.267  69.143  1.00  0.00    -0.343 OA 
HETATM   13  H   UNL     4      -9.004  19.227  69.980  1.00  0.00     0.000 HD 
BRANCH  11  14
HETATM   14  C   UNL     4      -8.413  17.085  68.677  1.00  0.00    -0.262 C  
HETATM   15  H   UNL     4      -6.791  16.000  68.583  1.00  0.00     0.000 HD 
HETATM   16  O   UNL     4      -7.042  16.854  68.251  1.00  0.00    -0.168 OA 
BRANCH  14  17
HETATM   17  C   UNL     4      -9.297  15.841  68.377  1.00  0.00    -0.196 C  
HETATM   18  C   UNL     4     -10.421  15.612  69.470  1.00  0.00    -0.270 C  
HETATM   19  H   UNL     4      -9.049  13.917  67.892  1.00  0.00     0.000 HD 
HETATM   20  O   UNL     4      -8.510  14.678  68.076  1.00  0.00    -0.142 OA 
HETATM   21  O   UNL     4     -10.950  16.716  69.916  1.00  0.00    -0.347 OA 
HETATM   22  O   UNL     4     -10.646  14.440  69.879  1.00  0.00    -0.022 OA 
ENDBRANCH  14  17
ENDBRANCH  11  14
ENDBRANCH   8  11
ENDBRANCH   3   8
BRANCH   7  23
HETATM   23  C   UNL     5     -11.024   9.996  67.538  1.00  0.00    -0.212 C  
HETATM   24  O   UNL     5     -12.144  10.866  67.711  1.00  0.00    -0.629 OA 
HETATM   25  H   UNL     5     -12.518  11.044  66.856  1.00  0.00     0.000 HD 
BRANCH  23  26
HETATM   26  C   UNL     5      -9.984  10.612  66.577  1.00  0.00    -0.215 C  
HETATM   27  O   UNL     5      -9.859   9.775  65.405  1.00  0.00    -0.306 OA 
HETATM   28  H   UNL     5      -9.219  10.154  64.814  1.00  0.00     0.000 HD 
BRANCH  26  29
HETATM   29  C   UNL     5     -10.170  12.098  66.159  1.00  0.00    -0.227 C  
HETATM   30  O   UNL     5     -10.609  12.926  67.235  1.00  0.00    -0.232 OA 
HETATM   31  H   UNL     5     -10.723  13.835  66.980  1.00  0.00     0.000 HD 
BRANCH  29  32
HETATM   32  C   UNL     5     -10.955  12.389  64.870  1.00  0.00    -0.302 C  
HETATM   33  C   UNL     5     -11.127  13.879  64.505  1.00  0.00    -0.366 C  
HETATM   34  O   UNL     5     -12.266  11.721  64.905  1.00  0.00    -0.210 OA 
HETATM   35  O   UNL     5     -10.172  14.659  64.798  1.00  0.00    -0.367 OA 
HETATM   36  O   UNL     5     -12.274  14.152  64.001  1.00  0.00    -0.571 OA 
HETATM   37  H   UNL     5     -12.752  11.901  64.109  1.00  0.00     0.000 HD 
ENDBRANCH  29  32
ENDBRANCH  26  29
ENDBRANCH  23  26
ENDBRANCH   7  23
TORSDOF 8
ENDMDL
MODEL       66
REMARK 921   NORMALIZED FREE ENERGY PREDICTED BY IDOCK:   -6.28 KCAL/MOL
REMARK 922        TOTAL FREE ENERGY PREDICTED BY IDOCK:  -11.47 KCAL/MOL
REMARK 923 INTER-LIGAND FREE ENERGY PREDICTED BY IDOCK:   -9.13 KCAL/MOL
REMARK 924 INTRA-LIGAND FREE ENERGY PREDICTED BY IDOCK:   -2.33 KCAL/MOL
REMARK 927      BINDING AFFINITY PREDICTED BY RF-SCORE:    0.00 PKD
ROOT
HETATM    1 MG   UNL     3     -13.256  11.054  70.435  1.00  0.00    -0.296 Mg 
HETATM    2  O   UNL     4     -11.001   6.486  73.979  1.00  0.00    -0.405 OA 
HETATM    3  C   UNL     4     -10.764   7.685  73.268  1.00  0.00    -0.350 C  
HETATM    4  H   UNL     4     -11.040   6.614  74.920  1.00  0.00     0.000 HD 
HETATM    5  O   UNL     5     -12.659  12.771  62.958  1.00  0.00    -0.660 OA 
HETATM    6  H   UNL     5     -13.340  12.350  62.446  1.00  0.00     0.000 HD 
HETATM    7  C   UNL     5     -12.005  11.848  63.828  1.00  0.00    -0.445 C  
ENDROOT
BRANCH   3   8
HETATM    8  C   UNL     4     -10.701   7.477  71.748  1.00  0.00    -0.211 C  
HETATM    9  O   UNL     4     -11.418   6.279  71.393  1.00  0.00    -0.294 OA 
HETATM   10  H   UNL     4     -11.379   6.150  70.453  1.00  0.00     0.000 HD 
BRANCH   8  11
HETATM   11  C   UNL     4     -11.234   8.602  70.814  1.00  0.00    -0.261 C  
HETATM   12  O   UNL     4     -11.451   9.837  71.488  1.00  0.00    -0.378 OA 
HETATM   13  H   UNL     4     -11.776  10.524  70.917  1.00  0.00     0.000 HD 
BRANCH  11  14
HETATM   14  C   UNL     4     -10.520   8.818  69.452  1.00  0.00    -0.222 C  
HETATM   15  H   UNL     4      -9.539   7.662  68.220  1.00  0.00     0.000 HD 
HETATM   16  O   UNL     4      -9.976   7.530  69.053  1.00  0.00    -0.167 OA 
BRANCH  14  17
HETATM   17  C   UNL     4      -9.448   9.935  69.301  1.00  0.00    -0.209 C  
HETATM   18  C   UNL     4      -9.971  11.173  68.462  1.00  0.00    -0.199 C  
HETATM   19  H   UNL     4      -7.525  10.096  68.782  1.00  0.00     0.000 HD 
HETATM   20  O   UNL     4      -8.180   9.414  68.873  1.00  0.00    -0.107 OA 
HETATM   21  O   UNL     4     -11.218  11.471  68.689  1.00  0.00    -0.205 OA 
HETATM   22  O   UNL     4      -9.205  11.698  67.607  1.00  0.00    -0.170 OA 
ENDBRANCH  14  17
ENDBRANCH  11  14
ENDBRANCH   8  11
ENDBRANCH   3   8
BRANCH   7  23
HETATM   23  C   UNL     5     -10.899  12.531  64.658  1.00  0.00    -0.310 C  
HETATM   24  O   UNL     5      -9.670  12.428  63.938  1.00  0.00    -0.583 OA 
HETATM   25  H   UNL     5      -8.989  12.848  64.449  1.00  0.00     0.000 HD 
BRANCH  23  26
HETATM   26  C   UNL     5     -11.243  14.005  64.965  1.00  0.00    -0.352 C  
HETATM   27  O   UNL     5     -12.441  14.060  65.772  1.00  0.00    -0.463 OA 
HETATM   28  H   UNL     5     -12.653  14.967  65.960  1.00  0.00     0.000 HD 
BRANCH  26  29
HETATM   29  C   UNL     5     -10.133  14.896  65.588  1.00  0.00    -0.359 C  
HETATM   30  O   UNL     5      -9.033  14.141  66.094  1.00  0.00    -0.488 OA 
HETATM   31  H   UNL     5      -8.354  14.685  66.476  1.00  0.00     0.000 HD 
BRANCH  29  32
HETATM   32  C   UNL     5     -10.562  15.992  66.578  1.00  0.00    -0.284 C  
HETATM   33  C   UNL     5     -10.583  17.432  66.024  1.00  0.00    -0.210 C  
HETATM   34  O   UNL     5      -9.744  15.930  67.800  1.00  0.00    -0.218 OA 
HETATM   35  O   UNL     5     -10.912  17.579  64.810  1.00  0.00    -0.950 OA 
HETATM   36  O   UNL     5     -10.188  18.310  66.871  1.00  0.00    -0.338 OA 
HETATM   37  H   UNL     5     -10.009  16.607  68.411  1.00  0.00     0.000 HD 
ENDBRANCH  29  32
ENDBRANCH  26  29
ENDBRANCH  23  26
ENDBRANCH   7  23
TORSDOF 8
ENDMDL
MODEL       67
REMARK 921   NORMALIZED FREE ENERGY PREDICTED BY IDOCK:   -6.28 KCAL/MOL
REMARK 922        TOTAL FREE ENERGY PREDICTED BY IDOCK:  -11.46 KCAL/MOL
REMARK 923 INTER-LIGAND FREE ENERGY PREDICTED BY IDOCK:   -9.88 KCAL/MOL
REMARK 924 INTRA-LIGAND FREE ENERGY PREDICTED BY IDOCK:   -1.57 KCAL/MOL
REMARK 927      BINDING AFFINITY PREDICTED BY RF-SCORE:    0.00 PKD
ROOT
HETATM    1 MG   UNL     3      -8.028   9.969  70.863  1.00  0.00    -0.166 Mg 
HETATM    2  O   UNL     4      -9.932   4.246  69.400  1.00  0.00    -0.183 OA 
HETATM    3  C   UNL     4      -9.462   5.506  68.962  1.00  0.00    -0.129 C  
HETATM    4  H   UNL     4      -9.266   3.569  69.363  1.00  0.00     0.000 HD 
HETATM    5  O   UNL     5     -11.237  16.942  70.318  1.00  0.00    -0.423 OA 
HETATM    6  H   UNL     5     -11.737  17.159  71.095  1.00  0.00     0.000 HD 
HETATM    7  C   UNL     5     -11.568  15.646  69.820  1.00  0.00    -0.352 C  
ENDROOT
BRANCH   3   8
HETATM    8  C   UNL     4     -10.539   6.600  69.021  1.00  0.00    -0.239 C  
HETATM    9  O   UNL     4     -11.650   6.231  68.183  1.00  0.00    -0.479 OA 
HETATM   10  H   UNL     4     -12.316   6.908  68.220  1.00  0.00     0.000 HD 
BRANCH   8  11
HETATM   11  C   UNL     4     -11.138   6.988  70.404  1.00  0.00    -0.287 C  
HETATM   12  O   UNL     4     -10.563   6.268  71.489  1.00  0.00    -0.224 OA 
HETATM   13  H   UNL     4     -10.929   6.505  72.333  1.00  0.00     0.000 HD 
BRANCH  11  14
HETATM   14  C   UNL     4     -11.282   8.497  70.738  1.00  0.00    -0.257 C  
HETATM   15  H   UNL     4     -10.259   9.767  71.814  1.00  0.00     0.000 HD 
HETATM   16  O   UNL     4     -10.171   8.844  71.610  1.00  0.00    -0.290 OA 
BRANCH  14  17
HETATM   17  C   UNL     4     -12.619   9.045  71.314  1.00  0.00    -0.280 C  
HETATM   18  C   UNL     4     -12.792  10.603  71.079  1.00  0.00    -0.402 C  
HETATM   19  H   UNL     4     -13.659   8.950  73.018  1.00  0.00     0.000 HD 
HETATM   20  O   UNL     4     -12.842   8.616  72.667  1.00  0.00    -0.361 OA 
HETATM   21  O   UNL     4     -12.344  11.011  69.926  1.00  0.00    -0.322 OA 
HETATM   22  O   UNL     4     -13.245  11.315  72.017  1.00  0.00    -0.506 OA 
ENDBRANCH  14  17
ENDBRANCH  11  14
ENDBRANCH   8  11
ENDBRANCH   3   8
BRANCH   7  23
HETATM   23  C   UNL     5     -10.755  15.293  68.557  1.00  0.00    -0.247 C  
HETATM   24  O   UNL     5     -10.981  13.916  68.249  1.00  0.00    -0.241 OA 
HETATM   25  H   UNL     5     -10.480  13.699  67.472  1.00  0.00     0.000 HD 
BRANCH  23  26
HETATM   26  C   UNL     5     -11.131  16.199  67.365  1.00  0.00    -0.134 C  
HETATM   27  O   UNL     5     -10.617  17.531  67.594  1.00  0.00    -0.364 OA 
HETATM   28  H   UNL     5     -10.848  18.089  66.861  1.00  0.00     0.000 HD 
BRANCH  26  29
HETATM   29  C   UNL     5     -10.754  15.716  65.937  1.00  0.00    -0.329 C  
HETATM   30  O   UNL     5      -9.693  16.473  65.355  1.00  0.00    -0.496 OA 
HETATM   31  H   UNL     5      -9.463  16.178  64.482  1.00  0.00     0.000 HD 
BRANCH  29  32
HETATM   32  C   UNL     5     -11.894  15.486  64.932  1.00  0.00    -0.028 C  
HETATM   33  C   UNL     5     -12.191  14.016  64.569  1.00  0.00    -0.434 C  
HETATM   34  O   UNL     5     -11.669  16.274  63.709  1.00  0.00    -1.511 OA 
HETATM   35  O   UNL     5     -12.034  13.153  65.483  1.00  0.00    -0.365 OA 
HETATM   36  O   UNL     5     -12.499  13.846  63.336  1.00  0.00    -0.833 OA 
HETATM   37  H   UNL     5     -12.373  16.132  63.088  1.00  0.00     0.000 HD 
ENDBRANCH  29  32
ENDBRANCH  26  29
ENDBRANCH  23  26
ENDBRANCH   7  23
TORSDOF 8
ENDMDL
MODEL       68
REMARK 921   NORMALIZED FREE ENERGY PREDICTED BY IDOCK:   -6.27 KCAL/MOL
REMARK 922        TOTAL FREE ENERGY PREDICTED BY IDOCK:  -11.45 KCAL/MOL
REMARK 923 INTER-LIGAND FREE ENERGY PREDICTED BY IDOCK:   -8.98 KCAL/MOL
REMARK 924 INTRA-LIGAND FREE ENERGY PREDICTED BY IDOCK:   -2.47 KCAL/MOL
REMARK 927      BINDING AFFINITY PREDICTED BY RF-SCORE:    0.00 PKD
ROOT
HETATM    1 MG   UNL     3      -7.856  11.983  65.446  1.00  0.00    -0.296 Mg 
HETATM    2  O   UNL     4     -11.780  16.432  63.623  1.00  0.00    -1.520 OA 
HETATM    3  C   UNL     4     -11.183  15.717  64.687  1.00  0.00    -0.363 C  
HETATM    4  H   UNL     4     -11.418  17.304  63.513  1.00  0.00     0.000 HD 
HETATM    5  O   UNL     5      -8.805   4.892  68.281  1.00  0.00    -0.101 OA 
HETATM    6  H   UNL     5      -8.856   4.243  67.590  1.00  0.00     0.000 HD 
HETATM    7  C   UNL     5      -9.675   5.997  68.035  1.00  0.00    -0.119 C  
ENDROOT
BRANCH   3   8
HETATM    8  C   UNL     4     -11.768  14.309  64.865  1.00  0.00    -0.397 C  
HETATM    9  O   UNL     4     -12.455  13.915  63.662  1.00  0.00    -0.872 OA 
HETATM   10  H   UNL     4     -12.817  13.043  63.772  1.00  0.00     0.000 HD 
BRANCH   8  11
HETATM   11  C   UNL     4     -10.808  13.138  65.229  1.00  0.00    -0.297 C  
HETATM   12  O   UNL     4      -9.742  12.976  64.300  1.00  0.00    -0.613 OA 
HETATM   13  H   UNL     4      -9.156  12.261  64.522  1.00  0.00     0.000 HD 
BRANCH  11  14
HETATM   14  C   UNL     4     -10.304  13.038  66.694  1.00  0.00    -0.260 C  
HETATM   15  H   UNL     4      -8.822  13.829  67.691  1.00  0.00     0.000 HD 
HETATM   16  O   UNL     4      -9.131  13.890  66.795  1.00  0.00    -0.245 OA 
BRANCH  14  17
HETATM   17  C   UNL     4     -10.025  11.646  67.329  1.00  0.00    -0.191 C  
HETATM   18  C   UNL     4     -10.947  11.351  68.583  1.00  0.00    -0.220 C  
HETATM   19  H   UNL     4      -8.452  10.573  67.939  1.00  0.00     0.000 HD 
HETATM   20  O   UNL     4      -8.623  11.424  67.552  1.00  0.00    -0.132 OA 
HETATM   21  O   UNL     4     -12.165  11.793  68.453  1.00  0.00    -0.467 OA 
HETATM   22  O   UNL     4     -10.436  10.817  69.606  1.00  0.00    -0.219 OA 
ENDBRANCH  14  17
ENDBRANCH  11  14
ENDBRANCH   8  11
ENDBRANCH   3   8
BRANCH   7  23
HETATM   23  C   UNL     5      -9.591   7.051  69.157  1.00  0.00    -0.149 C  
HETATM   24  O   UNL     5      -9.356   8.326  68.557  1.00  0.00    -0.139 OA 
HETATM   25  H   UNL     5      -9.305   8.976  69.248  1.00  0.00     0.000 HD 
BRANCH  23  26
HETATM   26  C   UNL     5     -10.871   7.069  70.021  1.00  0.00    -0.261 C  
HETATM   27  O   UNL     5     -11.244   5.713  70.353  1.00  0.00    -0.231 OA 
HETATM   28  H   UNL     5     -12.031   5.724  70.885  1.00  0.00     0.000 HD 
BRANCH  26  29
HETATM   29  C   UNL     5     -10.875   7.957  71.297  1.00  0.00    -0.235 C  
HETATM   30  O   UNL     5      -9.645   8.652  71.494  1.00  0.00    -0.205 OA 
HETATM   31  H   UNL     5      -9.647   9.195  72.274  1.00  0.00     0.000 HD 
BRANCH  29  32
HETATM   32  C   UNL     5     -11.381   7.331  72.606  1.00  0.00    -0.291 C  
HETATM   33  C   UNL     5     -10.389   6.405  73.341  1.00  0.00    -0.250 C  
HETATM   34  O   UNL     5     -12.657   6.631  72.383  1.00  0.00    -0.530 OA 
HETATM   35  O   UNL     5      -9.160   6.705  73.272  1.00  0.00    -0.127 OA 
HETATM   36  O   UNL     5     -10.947   5.385  73.883  1.00  0.00    -0.253 OA 
HETATM   37  H   UNL     5     -12.969   6.244  73.192  1.00  0.00     0.000 HD 
ENDBRANCH  29  32
ENDBRANCH  26  29
ENDBRANCH  23  26
ENDBRANCH   7  23
TORSDOF 8
ENDMDL
MODEL       69
REMARK 921   NORMALIZED FREE ENERGY PREDICTED BY IDOCK:   -6.24 KCAL/MOL
REMARK 922        TOTAL FREE ENERGY PREDICTED BY IDOCK:  -11.41 KCAL/MOL
REMARK 923 INTER-LIGAND FREE ENERGY PREDICTED BY IDOCK:   -9.43 KCAL/MOL
REMARK 924 INTRA-LIGAND FREE ENERGY PREDICTED BY IDOCK:   -1.97 KCAL/MOL
REMARK 927      BINDING AFFINITY PREDICTED BY RF-SCORE:    0.00 PKD
ROOT
HETATM    1 MG   UNL     3      -8.682   9.172  73.031  1.00  0.00    -0.164 Mg 
HETATM    2  O   UNL     4     -10.825   3.419  73.938  1.00  0.00    -0.200 OA 
HETATM    3  C   UNL     4     -10.127   4.325  73.106  1.00  0.00    -0.148 C  
HETATM    4  H   UNL     4     -10.250   2.814  74.392  1.00  0.00     0.000 HD 
HETATM    5  O   UNL     5     -10.868  15.010  68.518  1.00  0.00    -0.237 OA 
HETATM    6  H   UNL     5     -11.508  15.564  68.948  1.00  0.00     0.000 HD 
HETATM    7  C   UNL     5     -11.217  13.629  68.609  1.00  0.00    -0.277 C  
ENDROOT
BRANCH   3   8
HETATM    8  C   UNL     4     -11.057   5.303  72.373  1.00  0.00    -0.197 C  
HETATM    9  O   UNL     4     -12.407   5.134  72.846  1.00  0.00    -0.386 OA 
HETATM   10  H   UNL     4     -12.982   5.738  72.392  1.00  0.00     0.000 HD 
BRANCH   8  11
HETATM   11  C   UNL     4     -10.752   6.827  72.446  1.00  0.00    -0.226 C  
HETATM   12  O   UNL     4      -9.482   7.173  71.903  1.00  0.00    -0.147 OA 
HETATM   13  H   UNL     4      -9.296   8.104  71.948  1.00  0.00     0.000 HD 
BRANCH  11  14
HETATM   14  C   UNL     4     -11.856   7.815  71.980  1.00  0.00    -0.307 C  
HETATM   15  H   UNL     4     -13.228   7.781  70.590  1.00  0.00     0.000 HD 
HETATM   16  O   UNL     4     -12.552   7.177  70.875  1.00  0.00    -0.329 OA 
BRANCH  14  17
HETATM   17  C   UNL     4     -11.488   9.283  71.620  1.00  0.00    -0.398 C  
HETATM   18  C   UNL     4     -12.763  10.181  71.344  1.00  0.00    -0.425 C  
HETATM   19  H   UNL     4     -10.249  10.250  70.385  1.00  0.00     0.000 HD 
HETATM   20  O   UNL     4     -10.475   9.353  70.605  1.00  0.00    -0.245 OA 
HETATM   21  O   UNL     4     -13.769   9.918  72.128  1.00  0.00    -0.359 OA 
HETATM   22  O   UNL     4     -12.745  10.984  70.371  1.00  0.00    -0.288 OA 
ENDBRANCH  14  17
ENDBRANCH  11  14
ENDBRANCH   8  11
ENDBRANCH   3   8
BRANCH   7  23
HETATM   23  C   UNL     5     -10.178  12.729  67.911  1.00  0.00    -0.229 C  
HETATM   24  O   UNL     5     -10.407  11.379  68.319  1.00  0.00    -0.180 OA 
HETATM   25  H   UNL     5      -9.767  10.825  67.889  1.00  0.00     0.000 HD 
BRANCH  23  26
HETATM   26  C   UNL     5     -10.245  12.864  66.374  1.00  0.00    -0.267 C  
HETATM   27  O   UNL     5      -9.948  11.586  65.767  1.00  0.00    -0.216 OA 
HETATM   28  H   UNL     5      -9.990  11.669  64.821  1.00  0.00     0.000 HD 
BRANCH  26  29
HETATM   29  C   UNL     5     -11.536  13.468  65.753  1.00  0.00    -0.330 C  
HETATM   30  O   UNL     5     -12.581  12.508  65.601  1.00  0.00    -0.612 OA 
HETATM   31  H   UNL     5     -13.371  12.877  65.222  1.00  0.00     0.000 HD 
BRANCH  29  32
HETATM   32  C   UNL     5     -11.389  14.338  64.494  1.00  0.00    -0.334 C  
HETATM   33  C   UNL     5     -11.049  15.824  64.735  1.00  0.00    -0.400 C  
HETATM   34  O   UNL     5     -12.587  14.224  63.647  1.00  0.00    -0.988 OA 
HETATM   35  O   UNL     5     -10.301  16.092  65.723  1.00  0.00    -0.342 OA 
HETATM   36  O   UNL     5     -11.638  16.622  63.923  1.00  0.00    -1.204 OA 
HETATM   37  H   UNL     5     -12.497  14.762  62.869  1.00  0.00     0.000 HD 
ENDBRANCH  29  32
ENDBRANCH  26  29
ENDBRANCH  23  26
ENDBRANCH   7  23
TORSDOF 8
ENDMDL
MODEL       70
REMARK 921   NORMALIZED FREE ENERGY PREDICTED BY IDOCK:   -6.24 KCAL/MOL
REMARK 922        TOTAL FREE ENERGY PREDICTED BY IDOCK:  -11.40 KCAL/MOL
REMARK 923 INTER-LIGAND FREE ENERGY PREDICTED BY IDOCK:   -9.52 KCAL/MOL
REMARK 924 INTRA-LIGAND FREE ENERGY PREDICTED BY IDOCK:   -1.87 KCAL/MOL
REMARK 927      BINDING AFFINITY PREDICTED BY RF-SCORE:    0.00 PKD
ROOT
HETATM    1 MG   UNL     3     -11.667  13.912  69.622  1.00  0.00    -0.215 Mg 
HETATM    2  O   UNL     4     -11.951  15.896  63.749  1.00  0.00    -1.238 OA 
HETATM    3  C   UNL     4     -12.272  14.898  64.698  1.00  0.00    -0.341 C  
HETATM    4  H   UNL     4     -12.695  16.439  63.515  1.00  0.00     0.000 HD 
HETATM    5  O   UNL     5      -7.576   8.466  73.203  1.00  0.00    -0.250 OA 
HETATM    6  H   UNL     5      -6.746   8.803  73.519  1.00  0.00     0.000 HD 
HETATM    7  C   UNL     5      -7.801   8.813  71.837  1.00  0.00    -0.008 C  
ENDROOT
BRANCH   3   8
HETATM    8  C   UNL     4     -11.069  14.021  65.075  1.00  0.00    -0.363 C  
HETATM    9  O   UNL     4     -10.332  13.674  63.888  1.00  0.00    -0.590 OA 
HETATM   10  H   UNL     4      -9.588  13.131  64.121  1.00  0.00     0.000 HD 
BRANCH   8  11
HETATM   11  C   UNL     4     -10.030  14.572  66.095  1.00  0.00    -0.311 C  
HETATM   12  O   UNL     4      -8.896  13.726  66.254  1.00  0.00    -0.458 OA 
HETATM   13  H   UNL     4      -8.262  14.062  66.877  1.00  0.00     0.000 HD 
BRANCH  11  14
HETATM   14  C   UNL     4      -9.613  16.063  65.976  1.00  0.00    -0.350 C  
HETATM   15  H   UNL     4      -7.912  17.021  66.058  1.00  0.00     0.000 HD 
HETATM   16  O   UNL     4      -8.167  16.109  66.130  1.00  0.00    -0.299 OA 
BRANCH  14  17
HETATM   17  C   UNL     4     -10.292  17.136  66.873  1.00  0.00    -0.308 C  
HETATM   18  C   UNL     4     -10.626  18.469  66.083  1.00  0.00    -0.338 C  
HETATM   19  H   UNL     4     -10.003  17.990  68.658  1.00  0.00     0.000 HD 
HETATM   20  O   UNL     4      -9.588  17.334  68.109  1.00  0.00    -0.265 OA 
HETATM   21  O   UNL     4     -11.030  18.266  64.862  1.00  0.00    -0.660 OA 
HETATM   22  O   UNL     4     -10.400  19.580  66.637  1.00  0.00    -0.393 OA 
ENDBRANCH  14  17
ENDBRANCH  11  14
ENDBRANCH   8  11
ENDBRANCH   3   8
BRANCH   7  23
HETATM   23  C   UNL     5      -9.148   8.267  71.323  1.00  0.00    -0.160 C  
HETATM   24  O   UNL     5     -10.194   9.090  71.843  1.00  0.00    -0.343 OA 
HETATM   25  H   UNL     5     -11.024   8.753  71.527  1.00  0.00     0.000 HD 
BRANCH  23  26
HETATM   26  C   UNL     5      -9.194   8.219  69.780  1.00  0.00    -0.154 C  
HETATM   27  O   UNL     5     -10.146   7.215  69.360  1.00  0.00    -0.169 OA 
HETATM   28  H   UNL     5     -10.174   7.185  68.410  1.00  0.00     0.000 HD 
BRANCH  26  29
HETATM   29  C   UNL     5      -9.444   9.550  69.018  1.00  0.00    -0.158 C  
HETATM   30  O   UNL     5      -9.125  10.703  69.795  1.00  0.00    -0.395 OA 
HETATM   31  H   UNL     5      -9.278  11.517  69.329  1.00  0.00     0.000 HD 
BRANCH  29  32
HETATM   32  C   UNL     5     -10.786   9.719  68.288  1.00  0.00    -0.210 C  
HETATM   33  C   UNL     5     -10.855  10.864  67.256  1.00  0.00    -0.287 C  
HETATM   34  O   UNL     5     -11.887   9.844  69.258  1.00  0.00    -0.464 OA 
HETATM   35  O   UNL     5      -9.799  11.119  66.604  1.00  0.00    -0.191 OA 
HETATM   36  O   UNL     5     -11.985  11.471  67.241  1.00  0.00    -0.605 OA 
HETATM   37  H   UNL     5     -12.716   9.949  68.807  1.00  0.00     0.000 HD 
ENDBRANCH  29  32
ENDBRANCH  26  29
ENDBRANCH  23  26
ENDBRANCH   7  23
TORSDOF 8
ENDMDL
MODEL       71
REMARK 921   NORMALIZED FREE ENERGY PREDICTED BY IDOCK:   -6.23 KCAL/MOL
REMARK 922        TOTAL FREE ENERGY PREDICTED BY IDOCK:  -11.39 KCAL/MOL
REMARK 923 INTER-LIGAND FREE ENERGY PREDICTED BY IDOCK:   -9.09 KCAL/MOL
REMARK 924 INTRA-LIGAND FREE ENERGY PREDICTED BY IDOCK:   -2.29 KCAL/MOL
REMARK 927      BINDING AFFINITY PREDICTED BY RF-SCORE:    0.00 PKD
ROOT
HETATM    1 MG   UNL     3     -12.017  13.526  69.212  1.00  0.00    -0.228 Mg 
HETATM    2  O   UNL     4     -11.578  16.704  63.899  1.00  0.00    -1.582 OA 
HETATM    3  C   UNL     4     -11.791  15.463  64.545  1.00  0.00    -0.256 C  
HETATM    4  H   UNL     4     -12.379  17.089  63.563  1.00  0.00     0.000 HD 
HETATM    5  O   UNL     5      -7.392   8.552  72.830  1.00  0.00    -0.254 OA 
HETATM    6  H   UNL     5      -6.789   8.996  73.414  1.00  0.00     0.000 HD 
HETATM    7  C   UNL     5      -7.405   9.145  71.531  1.00  0.00     0.074 C  
ENDROOT
BRANCH   3   8
HETATM    8  C   UNL     4     -10.496  14.841  65.088  1.00  0.00    -0.418 C  
HETATM    9  O   UNL     4      -9.694  15.861  65.712  1.00  0.00    -0.323 OA 
HETATM   10  H   UNL     4      -8.893  15.476  66.048  1.00  0.00     0.000 HD 
BRANCH   8  11
HETATM   11  C   UNL     4     -10.598  13.672  66.112  1.00  0.00    -0.291 C  
HETATM   12  O   UNL     4     -10.592  14.109  67.467  1.00  0.00    -0.254 OA 
HETATM   13  H   UNL     4     -10.654  13.396  68.091  1.00  0.00     0.000 HD 
BRANCH  11  14
HETATM   14  C   UNL     4     -11.679  12.585  65.871  1.00  0.00    -0.426 C  
HETATM   15  H   UNL     4     -12.633  11.322  67.017  1.00  0.00     0.000 HD 
HETATM   16  O   UNL     4     -11.971  11.988  67.164  1.00  0.00    -0.601 OA 
BRANCH  14  17
HETATM   17  C   UNL     4     -11.451  11.482  64.798  1.00  0.00    -0.072 C  
HETATM   18  C   UNL     4     -10.024  10.803  64.916  1.00  0.00    -0.312 C  
HETATM   19  H   UNL     4     -11.654  11.258  62.822  1.00  0.00     0.000 HD 
HETATM   20  O   UNL     4     -11.793  11.931  63.478  1.00  0.00    -0.473 OA 
HETATM   21  O   UNL     4      -9.624  10.634  66.143  1.00  0.00    -0.176 OA 
HETATM   22  O   UNL     4      -9.370  10.571  63.862  1.00  0.00    -0.226 OA 
ENDBRANCH  14  17
ENDBRANCH  11  14
ENDBRANCH   8  11
ENDBRANCH   3   8
BRANCH   7  23
HETATM   23  C   UNL     5      -8.385   8.424  70.583  1.00  0.00    -0.125 C  
HETATM   24  O   UNL     5      -9.268   7.627  71.374  1.00  0.00    -0.136 OA 
HETATM   25  H   UNL     5      -9.872   7.183  70.790  1.00  0.00     0.000 HD 
BRANCH  23  26
HETATM   26  C   UNL     5      -9.170   9.423  69.707  1.00  0.00    -0.196 C  
HETATM   27  O   UNL     5      -8.532   9.532  68.414  1.00  0.00    -0.117 OA 
HETATM   28  H   UNL     5      -9.015  10.147  67.875  1.00  0.00     0.000 HD 
BRANCH  26  29
HETATM   29  C   UNL     5     -10.698   9.195  69.534  1.00  0.00    -0.215 C  
HETATM   30  O   UNL     5     -11.081   9.003  68.173  1.00  0.00    -0.479 OA 
HETATM   31  H   UNL     5     -12.015   8.864  68.068  1.00  0.00     0.000 HD 
BRANCH  29  32
HETATM   32  C   UNL     5     -11.654  10.159  70.255  1.00  0.00    -0.302 C  
HETATM   33  C   UNL     5     -12.152   9.707  71.644  1.00  0.00    -0.402 C  
HETATM   34  O   UNL     5     -12.799  10.491  69.390  1.00  0.00    -0.654 OA 
HETATM   35  O   UNL     5     -11.344   9.042  72.358  1.00  0.00    -0.237 OA 
HETATM   36  O   UNL     5     -13.376  10.012  71.872  1.00  0.00    -0.413 OA 
HETATM   37  H   UNL     5     -13.390  11.086  69.835  1.00  0.00     0.000 HD 
ENDBRANCH  29  32
ENDBRANCH  26  29
ENDBRANCH  23  26
ENDBRANCH   7  23
TORSDOF 8
ENDMDL
MODEL       72
REMARK 921   NORMALIZED FREE ENERGY PREDICTED BY IDOCK:   -6.23 KCAL/MOL
REMARK 922        TOTAL FREE ENERGY PREDICTED BY IDOCK:  -11.38 KCAL/MOL
REMARK 923 INTER-LIGAND FREE ENERGY PREDICTED BY IDOCK:   -9.40 KCAL/MOL
REMARK 924 INTRA-LIGAND FREE ENERGY PREDICTED BY IDOCK:   -1.98 KCAL/MOL
REMARK 927      BINDING AFFINITY PREDICTED BY RF-SCORE:    0.00 PKD
ROOT
HETATM    1 MG   UNL     3      -8.129   9.959  64.107  1.00  0.00    -0.117 Mg 
HETATM    2  O   UNL     4      -9.286   4.595  67.007  1.00  0.00    -0.125 OA 
HETATM    3  C   UNL     4      -9.741   5.617  66.141  1.00  0.00    -0.098 C  
HETATM    4  H   UNL     4      -9.046   3.799  66.547  1.00  0.00     0.000 HD 
HETATM    5  O   UNL     5     -10.468  17.207  65.203  1.00  0.00    -0.666 OA 
HETATM    6  H   UNL     5      -9.895  17.673  65.801  1.00  0.00     0.000 HD 
HETATM    7  C   UNL     5     -10.860  15.939  65.726  1.00  0.00    -0.254 C  
ENDROOT
BRANCH   3   8
HETATM    8  C   UNL     4     -10.129   6.903  66.884  1.00  0.00    -0.218 C  
HETATM    9  O   UNL     4     -11.504   6.823  67.305  1.00  0.00    -0.752 OA 
HETATM   10  H   UNL     4     -11.744   7.620  67.765  1.00  0.00     0.000 HD 
BRANCH   8  11
HETATM   11  C   UNL     4      -9.307   7.321  68.139  1.00  0.00    -0.131 C  
HETATM   12  O   UNL     4      -8.936   8.696  68.136  1.00  0.00    -0.141 OA 
HETATM   13  H   UNL     4      -8.435   8.950  68.902  1.00  0.00     0.000 HD 
BRANCH  11  14
HETATM   14  C   UNL     4      -9.829   6.878  69.532  1.00  0.00    -0.159 C  
HETATM   15  H   UNL     4     -10.487   5.197  70.279  1.00  0.00     0.000 HD 
HETATM   16  O   UNL     4     -10.168   5.468  69.426  1.00  0.00    -0.210 OA 
BRANCH  14  17
HETATM   17  C   UNL     4     -10.979   7.666  70.221  1.00  0.00    -0.252 C  
HETATM   18  C   UNL     4     -10.477   8.524  71.455  1.00  0.00    -0.248 C  
HETATM   19  H   UNL     4     -12.820   7.316  70.916  1.00  0.00     0.000 HD 
HETATM   20  O   UNL     4     -12.118   6.834  70.495  1.00  0.00    -0.386 OA 
HETATM   21  O   UNL     4      -9.309   9.070  71.273  1.00  0.00    -0.240 OA 
HETATM   22  O   UNL     4     -11.169   8.540  72.511  1.00  0.00    -0.357 OA 
ENDBRANCH  14  17
ENDBRANCH  11  14
ENDBRANCH   8  11
ENDBRANCH   3   8
BRANCH   7  23
HETATM   23  C   UNL     5     -11.789  15.182  64.755  1.00  0.00    -0.291 C  
HETATM   24  O   UNL     5     -12.107  16.054  63.669  1.00  0.00    -1.285 OA 
HETATM   25  H   UNL     5     -12.680  15.588  63.071  1.00  0.00     0.000 HD 
BRANCH  23  26
HETATM   26  C   UNL     5     -11.142  13.875  64.248  1.00  0.00    -0.233 C  
HETATM   27  O   UNL     5      -9.835  13.724  64.846  1.00  0.00    -0.609 OA 
HETATM   28  H   UNL     5      -9.437  12.920  64.534  1.00  0.00     0.000 HD 
BRANCH  26  29
HETATM   29  C   UNL     5     -11.955  12.558  64.392  1.00  0.00    -0.404 C  
HETATM   30  O   UNL     5     -13.268  12.769  64.910  1.00  0.00    -0.808 OA 
HETATM   31  H   UNL     5     -13.765  11.964  64.998  1.00  0.00     0.000 HD 
BRANCH  29  32
HETATM   32  C   UNL     5     -11.270  11.361  65.071  1.00  0.00    -0.089 C  
HETATM   33  C   UNL     5     -11.082  11.468  66.599  1.00  0.00    -0.295 C  
HETATM   34  O   UNL     5      -9.983  11.068  64.421  1.00  0.00    -0.258 OA 
HETATM   35  O   UNL     5     -11.984  12.074  67.251  1.00  0.00    -0.591 OA 
HETATM   36  O   UNL     5      -9.972  10.975  67.013  1.00  0.00    -0.183 OA 
HETATM   37  H   UNL     5      -9.559  10.329  64.841  1.00  0.00     0.000 HD 
ENDBRANCH  29  32
ENDBRANCH  26  29
ENDBRANCH  23  26
ENDBRANCH   7  23
TORSDOF 8
ENDMDL
MODEL       73
REMARK 921   NORMALIZED FREE ENERGY PREDICTED BY IDOCK:   -6.22 KCAL/MOL
REMARK 922        TOTAL FREE ENERGY PREDICTED BY IDOCK:  -11.37 KCAL/MOL
REMARK 923 INTER-LIGAND FREE ENERGY PREDICTED BY IDOCK:   -8.11 KCAL/MOL
REMARK 924 INTRA-LIGAND FREE ENERGY PREDICTED BY IDOCK:   -3.26 KCAL/MOL
REMARK 927      BINDING AFFINITY PREDICTED BY RF-SCORE:    0.00 PKD
ROOT
HETATM    1 MG   UNL     3     -11.666  13.412  70.126  1.00  0.00    -0.248 Mg 
HETATM    2  O   UNL     4     -10.664   7.462  68.673  1.00  0.00    -0.312 OA 
HETATM    3  C   UNL     4     -10.130   8.707  69.081  1.00  0.00    -0.199 C  
HETATM    4  H   UNL     4     -10.720   6.832  69.382  1.00  0.00     0.000 HD 
HETATM    5  O   UNL     5     -10.331  20.068  66.503  1.00  0.00    -0.451 OA 
HETATM    6  H   UNL     5     -11.062  20.319  65.952  1.00  0.00     0.000 HD 
HETATM    7  C   UNL     5      -9.943  18.712  66.282  1.00  0.00    -0.372 C  
ENDROOT
BRANCH   3   8
HETATM    8  C   UNL     4     -10.040   9.724  67.934  1.00  0.00    -0.173 C  
HETATM    9  O   UNL     4     -10.333   9.072  66.684  1.00  0.00    -0.263 OA 
HETATM   10  H   UNL     4     -10.277   9.701  65.974  1.00  0.00     0.000 HD 
BRANCH   8  11
HETATM   11  C   UNL     4     -10.935  10.997  67.988  1.00  0.00    -0.258 C  
HETATM   12  O   UNL     4     -10.438  11.997  68.870  1.00  0.00    -0.316 OA 
HETATM   13  H   UNL     4     -10.984  12.774  68.902  1.00  0.00     0.000 HD 
BRANCH  11  14
HETATM   14  C   UNL     4     -11.409  11.611  66.643  1.00  0.00    -0.270 C  
HETATM   15  H   UNL     4     -10.539  12.033  64.946  1.00  0.00     0.000 HD 
HETATM   16  O   UNL     4     -10.249  11.657  65.768  1.00  0.00    -0.223 OA 
BRANCH  14  17
HETATM   17  C   UNL     4     -12.158  12.975  66.630  1.00  0.00    -0.319 C  
HETATM   18  C   UNL     4     -12.759  13.327  65.206  1.00  0.00    -0.412 C  
HETATM   19  H   UNL     4     -11.838  14.858  67.219  1.00  0.00     0.000 HD 
HETATM   20  O   UNL     4     -11.381  14.025  67.227  1.00  0.00    -0.303 OA 
HETATM   21  O   UNL     4     -13.238  12.296  64.570  1.00  0.00    -0.799 OA 
HETATM   22  O   UNL     4     -12.653  14.507  64.773  1.00  0.00    -0.567 OA 
ENDBRANCH  14  17
ENDBRANCH  11  14
ENDBRANCH   8  11
ENDBRANCH   3   8
BRANCH   7  23
HETATM   23  C   UNL     5      -8.755  18.304  67.178  1.00  0.00    -0.256 C  
HETATM   24  O   UNL     5      -8.092  19.493  67.612  1.00  0.00    -0.274 OA 
HETATM   25  H   UNL     5      -7.361  19.241  68.163  1.00  0.00     0.000 HD 
BRANCH  23  26
HETATM   26  C   UNL     5      -9.214  17.452  68.381  1.00  0.00    -0.277 C  
HETATM   27  O   UNL     5     -10.253  16.541  67.955  1.00  0.00    -0.256 OA 
HETATM   28  H   UNL     5     -10.536  16.017  68.695  1.00  0.00     0.000 HD 
BRANCH  26  29
HETATM   29  C   UNL     5      -8.128  16.688  69.188  1.00  0.00    -0.139 C  
HETATM   30  O   UNL     5      -6.830  17.270  69.062  1.00  0.00    -0.225 OA 
HETATM   31  H   UNL     5      -6.166  16.803  69.556  1.00  0.00     0.000 HD 
BRANCH  29  32
HETATM   32  C   UNL     5      -8.071  15.158  69.049  1.00  0.00    -0.191 C  
HETATM   33  C   UNL     5      -7.639  14.620  67.669  1.00  0.00    -0.180 C  
HETATM   34  O   UNL     5      -9.354  14.558  69.449  1.00  0.00    -0.402 OA 
HETATM   35  O   UNL     5      -6.783  15.297  67.027  1.00  0.00    -0.251 OA 
HETATM   36  O   UNL     5      -8.272  13.563  67.312  1.00  0.00    -0.177 OA 
HETATM   37  H   UNL     5      -9.320  13.613  69.363  1.00  0.00     0.000 HD 
ENDBRANCH  29  32
ENDBRANCH  26  29
ENDBRANCH  23  26
ENDBRANCH   7  23
TORSDOF 8
ENDMDL
MODEL       74
REMARK 921   NORMALIZED FREE ENERGY PREDICTED BY IDOCK:   -6.22 KCAL/MOL
REMARK 922        TOTAL FREE ENERGY PREDICTED BY IDOCK:  -11.37 KCAL/MOL
REMARK 923 INTER-LIGAND FREE ENERGY PREDICTED BY IDOCK:   -9.17 KCAL/MOL
REMARK 924 INTRA-LIGAND FREE ENERGY PREDICTED BY IDOCK:   -2.20 KCAL/MOL
REMARK 927      BINDING AFFINITY PREDICTED BY RF-SCORE:    0.00 PKD
ROOT
HETATM    1 MG   UNL     3     -11.971   6.050  67.512  1.00  0.00    -0.400 Mg 
HETATM    2  O   UNL     4     -10.879   4.948  73.521  1.00  0.00    -0.249 OA 
HETATM    3  C   UNL     4     -11.518   5.742  72.540  1.00  0.00    -0.296 C  
HETATM    4  H   UNL     4     -11.475   4.354  73.963  1.00  0.00     0.000 HD 
HETATM    5  O   UNL     5      -9.495  11.384  62.549  1.00  0.00    -0.523 OA 
HETATM    6  H   UNL     5      -8.693  11.115  62.116  1.00  0.00     0.000 HD 
HETATM    7  C   UNL     5      -9.414  11.219  63.964  1.00  0.00    -0.180 C  
ENDROOT
BRANCH   3   8
HETATM    8  C   UNL     4     -10.555   6.702  71.826  1.00  0.00    -0.215 C  
HETATM    9  O   UNL     4      -9.197   6.273  72.040  1.00  0.00    -0.146 OA 
HETATM   10  H   UNL     4      -8.601   6.867  71.598  1.00  0.00     0.000 HD 
BRANCH   8  11
HETATM   11  C   UNL     4     -10.713   6.921  70.293  1.00  0.00    -0.242 C  
HETATM   12  O   UNL     4     -12.045   6.724  69.831  1.00  0.00    -0.656 OA 
HETATM   13  H   UNL     4     -12.141   6.858  68.896  1.00  0.00     0.000 HD 
BRANCH  11  14
HETATM   14  C   UNL     4     -10.079   8.193  69.670  1.00  0.00    -0.199 C  
HETATM   15  H   UNL     4     -10.242  10.111  70.004  1.00  0.00     0.000 HD 
HETATM   16  O   UNL     4     -10.630   9.333  70.386  1.00  0.00    -0.214 OA 
BRANCH  14  17
HETATM   17  C   UNL     4     -10.149   8.427  68.134  1.00  0.00    -0.200 C  
HETATM   18  C   UNL     4      -8.716   8.550  67.469  1.00  0.00    -0.135 C  
HETATM   19  H   UNL     4     -11.104   9.625  66.849  1.00  0.00     0.000 HD 
HETATM   20  O   UNL     4     -11.061   9.482  67.788  1.00  0.00    -0.186 OA 
HETATM   21  O   UNL     4      -7.830   7.744  67.982  1.00  0.00    -0.119 OA 
HETATM   22  O   UNL     4      -8.521   9.440  66.596  1.00  0.00    -0.124 OA 
ENDBRANCH  14  17
ENDBRANCH  11  14
ENDBRANCH   8  11
ENDBRANCH   3   8
BRANCH   7  23
HETATM   23  C   UNL     5     -10.715  11.656  64.666  1.00  0.00    -0.315 C  
HETATM   24  O   UNL     5     -10.508  11.586  66.078  1.00  0.00    -0.237 OA 
HETATM   25  H   UNL     5     -11.310  11.855  66.510  1.00  0.00     0.000 HD 
BRANCH  23  26
HETATM   26  C   UNL     5     -11.147  13.075  64.237  1.00  0.00    -0.385 C  
HETATM   27  O   UNL     5     -11.939  12.991  63.030  1.00  0.00    -0.827 OA 
HETATM   28  H   UNL     5     -12.205  13.864  62.766  1.00  0.00     0.000 HD 
BRANCH  26  29
HETATM   29  C   UNL     5     -11.863  13.967  65.289  1.00  0.00    -0.359 C  
HETATM   30  O   UNL     5     -13.091  14.513  64.811  1.00  0.00    -0.485 OA 
HETATM   31  H   UNL     5     -13.529  15.059  65.455  1.00  0.00     0.000 HD 
BRANCH  29  32
HETATM   32  C   UNL     5     -11.025  15.029  66.021  1.00  0.00    -0.334 C  
HETATM   33  C   UNL     5     -10.572  16.235  65.172  1.00  0.00    -0.304 C  
HETATM   34  O   UNL     5      -9.864  14.405  66.677  1.00  0.00    -0.260 OA 
HETATM   35  O   UNL     5     -11.364  16.636  64.269  1.00  0.00    -1.116 OA 
HETATM   36  O   UNL     5      -9.389  16.643  65.456  1.00  0.00    -0.461 OA 
HETATM   37  H   UNL     5      -9.346  15.061  67.129  1.00  0.00     0.000 HD 
ENDBRANCH  29  32
ENDBRANCH  26  29
ENDBRANCH  23  26
ENDBRANCH   7  23
TORSDOF 8
ENDMDL
MODEL       75
REMARK 921   NORMALIZED FREE ENERGY PREDICTED BY IDOCK:   -6.22 KCAL/MOL
REMARK 922        TOTAL FREE ENERGY PREDICTED BY IDOCK:  -11.37 KCAL/MOL
REMARK 923 INTER-LIGAND FREE ENERGY PREDICTED BY IDOCK:   -8.79 KCAL/MOL
REMARK 924 INTRA-LIGAND FREE ENERGY PREDICTED BY IDOCK:   -2.58 KCAL/MOL
REMARK 927      BINDING AFFINITY PREDICTED BY RF-SCORE:    0.00 PKD
ROOT
HETATM    1 MG   UNL     3     -13.592  10.567  70.047  1.00  0.00    -0.340 Mg 
HETATM    2  O   UNL     4     -11.800   5.314  72.824  1.00  0.00    -0.355 OA 
HETATM    3  C   UNL     4     -11.454   6.597  72.340  1.00  0.00    -0.262 C  
HETATM    4  H   UNL     4     -11.875   5.282  73.771  1.00  0.00     0.000 HD 
HETATM    5  O   UNL     5     -12.534  13.488  63.008  1.00  0.00    -0.950 OA 
HETATM    6  H   UNL     5     -13.216  13.210  62.407  1.00  0.00     0.000 HD 
HETATM    7  C   UNL     5     -11.982  12.387  63.728  1.00  0.00    -0.514 C  
ENDROOT
BRANCH   3   8
HETATM    8  C   UNL     4     -11.332   6.648  70.810  1.00  0.00    -0.336 C  
HETATM    9  O   UNL     4     -12.645   6.606  70.219  1.00  0.00    -0.438 OA 
HETATM   10  H   UNL     4     -12.569   6.637  69.272  1.00  0.00     0.000 HD 
BRANCH   8  11
HETATM   11  C   UNL     4     -10.592   7.850  70.156  1.00  0.00    -0.237 C  
HETATM   12  O   UNL     4     -11.391   9.026  70.074  1.00  0.00    -0.393 OA 
HETATM   13  H   UNL     4     -10.938   9.760  69.674  1.00  0.00     0.000 HD 
BRANCH  11  14
HETATM   14  C   UNL     4      -9.155   8.175  70.646  1.00  0.00    -0.150 C  
HETATM   15  H   UNL     4      -8.367   9.583  71.748  1.00  0.00     0.000 HD 
HETATM   16  O   UNL     4      -9.246   9.384  71.448  1.00  0.00    -0.277 OA 
BRANCH  14  17
HETATM   17  C   UNL     4      -7.988   8.285  69.622  1.00  0.00    -0.111 C  
HETATM   18  C   UNL     4      -8.414   9.028  68.289  1.00  0.00    -0.129 C  
HETATM   19  H   UNL     4      -6.612   7.095  68.796  1.00  0.00     0.000 HD 
HETATM   20  O   UNL     4      -7.324   7.027  69.421  1.00  0.00    -0.086 OA 
HETATM   21  O   UNL     4      -9.229  10.025  68.483  1.00  0.00    -0.135 OA 
HETATM   22  O   UNL     4      -8.026   8.565  67.181  1.00  0.00    -0.099 OA 
ENDBRANCH  14  17
ENDBRANCH  11  14
ENDBRANCH   8  11
ENDBRANCH   3   8
BRANCH   7  23
HETATM   23  C   UNL     5     -10.876  12.839  64.703  1.00  0.00    -0.335 C  
HETATM   24  O   UNL     5      -9.923  13.613  63.972  1.00  0.00    -0.679 OA 
HETATM   25  H   UNL     5      -9.242  13.891  64.573  1.00  0.00     0.000 HD 
BRANCH  23  26
HETATM   26  C   UNL     5     -11.453  13.643  65.888  1.00  0.00    -0.316 C  
HETATM   27  O   UNL     5     -12.898  13.616  65.827  1.00  0.00    -0.456 OA 
HETATM   28  H   UNL     5     -13.253  14.111  66.556  1.00  0.00     0.000 HD 
BRANCH  26  29
HETATM   29  C   UNL     5     -10.969  13.279  67.320  1.00  0.00    -0.268 C  
HETATM   30  O   UNL     5      -9.692  12.640  67.328  1.00  0.00    -0.201 OA 
HETATM   31  H   UNL     5      -9.396  12.417  68.203  1.00  0.00     0.000 HD 
BRANCH  29  32
HETATM   32  C   UNL     5     -11.959  12.564  68.254  1.00  0.00    -0.221 C  
HETATM   33  C   UNL     5     -11.874  12.944  69.747  1.00  0.00    -0.310 C  
HETATM   34  O   UNL     5     -11.854  11.104  68.095  1.00  0.00    -0.559 OA 
HETATM   35  O   UNL     5     -11.573  14.144  70.022  1.00  0.00    -0.269 OA 
HETATM   36  O   UNL     5     -12.059  11.951  70.538  1.00  0.00    -0.366 OA 
HETATM   37  H   UNL     5     -12.465  10.663  68.672  1.00  0.00     0.000 HD 
ENDBRANCH  29  32
ENDBRANCH  26  29
ENDBRANCH  23  26
ENDBRANCH   7  23
TORSDOF 8
ENDMDL
MODEL       76
REMARK 921   NORMALIZED FREE ENERGY PREDICTED BY IDOCK:   -6.21 KCAL/MOL
REMARK 922        TOTAL FREE ENERGY PREDICTED BY IDOCK:  -11.36 KCAL/MOL
REMARK 923 INTER-LIGAND FREE ENERGY PREDICTED BY IDOCK:   -9.32 KCAL/MOL
REMARK 924 INTRA-LIGAND FREE ENERGY PREDICTED BY IDOCK:   -2.04 KCAL/MOL
REMARK 927      BINDING AFFINITY PREDICTED BY RF-SCORE:    0.00 PKD
ROOT
HETATM    1 MG   UNL     3     -11.150  10.111  67.506  1.00  0.00    -0.214 Mg 
HETATM    2  O   UNL     4     -14.246   8.000  72.454  1.00  0.00    -0.581 OA 
HETATM    3  C   UNL     4     -14.255   8.770  71.268  1.00  0.00    -0.130 C  
HETATM    4  H   UNL     4     -14.690   7.165  72.357  1.00  0.00     0.000 HD 
HETATM    5  O   UNL     5      -8.218  16.964  65.596  1.00  0.00    -0.331 OA 
HETATM    6  H   UNL     5      -7.326  17.062  65.907  1.00  0.00     0.000 HD 
HETATM    7  C   UNL     5      -9.091  16.500  66.626  1.00  0.00    -0.255 C  
ENDROOT
BRANCH   3   8
HETATM    8  C   UNL     4     -13.537  10.119  71.424  1.00  0.00    -0.148 C  
HETATM    9  O   UNL     4     -13.115  10.286  72.791  1.00  0.00    -0.274 OA 
HETATM   10  H   UNL     4     -12.671  11.121  72.888  1.00  0.00     0.000 HD 
BRANCH   8  11
HETATM   11  C   UNL     4     -12.291  10.412  70.538  1.00  0.00    -0.322 C  
HETATM   12  O   UNL     4     -11.905  11.782  70.547  1.00  0.00    -0.461 OA 
HETATM   13  H   UNL     4     -11.144  11.961  70.007  1.00  0.00     0.000 HD 
BRANCH  11  14
HETATM   14  C   UNL     4     -11.061   9.475  70.678  1.00  0.00    -0.300 C  
HETATM   15  H   UNL     4      -9.263   9.450  69.915  1.00  0.00     0.000 HD 
HETATM   16  O   UNL     4     -10.015  10.024  69.829  1.00  0.00    -0.225 OA 
BRANCH  14  17
HETATM   17  C   UNL     4     -11.213   7.946  70.439  1.00  0.00    -0.234 C  
HETATM   18  C   UNL     4     -10.902   7.091  71.737  1.00  0.00    -0.223 C  
HETATM   19  H   UNL     4     -10.617   6.577  69.111  1.00  0.00     0.000 HD 
HETATM   20  O   UNL     4     -10.523   7.511  69.257  1.00  0.00    -0.210 OA 
HETATM   21  O   UNL     4     -11.325   7.641  72.840  1.00  0.00    -0.369 OA 
HETATM   22  O   UNL     4     -10.219   6.037  71.624  1.00  0.00    -0.193 OA 
ENDBRANCH  14  17
ENDBRANCH  11  14
ENDBRANCH   8  11
ENDBRANCH   3   8
BRANCH   7  23
HETATM   23  C   UNL     5     -10.538  16.340  66.120  1.00  0.00    -0.267 C  
HETATM   24  O   UNL     5     -10.904  17.532  65.422  1.00  0.00    -0.528 OA 
HETATM   25  H   UNL     5     -11.796  17.434  65.111  1.00  0.00     0.000 HD 
BRANCH  23  26
HETATM   26  C   UNL     5     -10.693  15.097  65.216  1.00  0.00    -0.404 C  
HETATM   27  O   UNL     5      -9.517  14.265  65.339  1.00  0.00    -0.527 OA 
HETATM   28  H   UNL     5      -9.613  13.501  64.783  1.00  0.00     0.000 HD 
BRANCH  26  29
HETATM   29  C   UNL     5     -11.979  14.238  65.374  1.00  0.00    -0.383 C  
HETATM   30  O   UNL     5     -12.116  13.679  66.680  1.00  0.00    -0.404 OA 
HETATM   31  H   UNL     5     -12.902  13.154  66.777  1.00  0.00     0.000 HD 
BRANCH  29  32
HETATM   32  C   UNL     5     -12.288  13.199  64.285  1.00  0.00    -0.351 C  
HETATM   33  C   UNL     5     -11.383  11.949  64.266  1.00  0.00    -0.353 C  
HETATM   34  O   UNL     5     -12.302  13.834  62.957  1.00  0.00    -1.089 OA 
HETATM   35  O   UNL     5     -10.968  11.520  65.383  1.00  0.00    -0.282 OA 
HETATM   36  O   UNL     5     -11.105  11.538  63.083  1.00  0.00    -0.267 OA 
HETATM   37  H   UNL     5     -12.493  13.193  62.284  1.00  0.00     0.000 HD 
ENDBRANCH  29  32
ENDBRANCH  26  29
ENDBRANCH  23  26
ENDBRANCH   7  23
TORSDOF 8
ENDMDL
MODEL       77
REMARK 921   NORMALIZED FREE ENERGY PREDICTED BY IDOCK:   -6.21 KCAL/MOL
REMARK 922        TOTAL FREE ENERGY PREDICTED BY IDOCK:  -11.35 KCAL/MOL
REMARK 923 INTER-LIGAND FREE ENERGY PREDICTED BY IDOCK:  -10.52 KCAL/MOL
REMARK 924 INTRA-LIGAND FREE ENERGY PREDICTED BY IDOCK:   -0.84 KCAL/MOL
REMARK 927      BINDING AFFINITY PREDICTED BY RF-SCORE:    0.00 PKD
ROOT
HETATM    1 MG   UNL     3     -12.490  13.512  69.023  1.00  0.00    -0.306 Mg 
HETATM    2  O   UNL     4     -11.466  16.698  63.796  1.00  0.00    -1.518 OA 
HETATM    3  C   UNL     4     -11.835  15.477  64.408  1.00  0.00    -0.219 C  
HETATM    4  H   UNL     4     -12.206  17.167  63.428  1.00  0.00     0.000 HD 
HETATM    5  O   UNL     5      -8.576   8.052  72.775  1.00  0.00    -0.155 OA 
HETATM    6  H   UNL     5      -7.962   8.425  73.396  1.00  0.00     0.000 HD 
HETATM    7  C   UNL     5      -8.463   8.660  71.488  1.00  0.00    -0.181 C  
ENDROOT
BRANCH   3   8
HETATM    8  C   UNL     4     -10.638  14.721  65.004  1.00  0.00    -0.429 C  
HETATM    9  O   UNL     4      -9.695  15.662  65.552  1.00  0.00    -0.321 OA 
HETATM   10  H   UNL     4      -8.954  15.194  65.920  1.00  0.00     0.000 HD 
BRANCH   8  11
HETATM   11  C   UNL     4     -10.897  13.660  66.112  1.00  0.00    -0.279 C  
HETATM   12  O   UNL     4     -10.937  14.213  67.423  1.00  0.00    -0.288 OA 
HETATM   13  H   UNL     4     -11.096  13.565  68.099  1.00  0.00     0.000 HD 
BRANCH  11  14
HETATM   14  C   UNL     4     -12.050  12.643  65.892  1.00  0.00    -0.396 C  
HETATM   15  H   UNL     4     -12.874  11.247  66.982  1.00  0.00     0.000 HD 
HETATM   16  O   UNL     4     -12.169  11.869  67.117  1.00  0.00    -0.501 OA 
BRANCH  14  17
HETATM   17  C   UNL     4     -12.034  11.703  64.652  1.00  0.00     0.033 C  
HETATM   18  C   UNL     4     -10.571  11.242  64.255  1.00  0.00    -0.358 C  
HETATM   19  H   UNL     4     -12.802  11.656  62.807  1.00  0.00     0.000 HD 
HETATM   20  O   UNL     4     -12.811  12.229  63.564  1.00  0.00    -0.768 OA 
HETATM   21  O   UNL     4      -9.799  11.010  65.278  1.00  0.00    -0.228 OA 
HETATM   22  O   UNL     4     -10.247  11.222  63.035  1.00  0.00    -0.313 OA 
ENDBRANCH  14  17
ENDBRANCH  11  14
ENDBRANCH   8  11
ENDBRANCH   3   8
BRANCH   7  23
HETATM   23  C   UNL     5      -9.460   8.054  70.480  1.00  0.00    -0.166 C  
HETATM   24  O   UNL     5      -8.769   7.078  69.698  1.00  0.00    -0.140 OA 
HETATM   25  H   UNL     5      -9.383   6.705  69.077  1.00  0.00     0.000 HD 
BRANCH  23  26
HETATM   26  C   UNL     5     -10.684   7.433  71.190  1.00  0.00    -0.231 C  
HETATM   27  O   UNL     5     -10.354   6.098  71.634  1.00  0.00    -0.207 OA 
HETATM   28  H   UNL     5     -11.106   5.716  72.071  1.00  0.00     0.000 HD 
BRANCH  26  29
HETATM   29  C   UNL     5     -11.340   8.239  72.346  1.00  0.00    -0.388 C  
HETATM   30  O   UNL     5     -11.407   7.503  73.567  1.00  0.00    -0.620 OA 
HETATM   31  H   UNL     5     -11.808   7.996  74.274  1.00  0.00     0.000 HD 
BRANCH  29  32
HETATM   32  C   UNL     5     -12.664   8.964  72.055  1.00  0.00    -0.394 C  
HETATM   33  C   UNL     5     -12.543  10.426  71.575  1.00  0.00    -0.439 C  
HETATM   34  O   UNL     5     -13.560   8.885  73.220  1.00  0.00    -1.012 OA 
HETATM   35  O   UNL     5     -11.546  10.715  70.849  1.00  0.00    -0.320 OA 
HETATM   36  O   UNL     5     -13.456  11.195  72.044  1.00  0.00    -0.376 OA 
HETATM   37  H   UNL     5     -14.378   9.333  73.041  1.00  0.00     0.000 HD 
ENDBRANCH  29  32
ENDBRANCH  26  29
ENDBRANCH  23  26
ENDBRANCH   7  23
TORSDOF 8
ENDMDL
MODEL       78
REMARK 921   NORMALIZED FREE ENERGY PREDICTED BY IDOCK:   -6.20 KCAL/MOL
REMARK 922        TOTAL FREE ENERGY PREDICTED BY IDOCK:  -11.34 KCAL/MOL
REMARK 923 INTER-LIGAND FREE ENERGY PREDICTED BY IDOCK:   -9.68 KCAL/MOL
REMARK 924 INTRA-LIGAND FREE ENERGY PREDICTED BY IDOCK:   -1.66 KCAL/MOL
REMARK 927      BINDING AFFINITY PREDICTED BY RF-SCORE:    0.00 PKD
ROOT
HETATM    1 MG   UNL     3     -13.156  11.199  68.824  1.00  0.00    -0.063 Mg 
HETATM    2  O   UNL     4     -11.767  13.297  63.151  1.00  0.00    -0.731 OA 
HETATM    3  C   UNL     4     -12.004  12.190  63.999  1.00  0.00    -0.440 C  
HETATM    4  H   UNL     4     -12.497  13.484  62.572  1.00  0.00     0.000 HD 
HETATM    5  O   UNL     5      -9.068   7.785  74.379  1.00  0.00    -0.434 OA 
HETATM    6  H   UNL     5      -8.671   8.421  74.962  1.00  0.00     0.000 HD 
HETATM    7  C   UNL     5      -8.826   8.102  73.008  1.00  0.00    -0.248 C  
ENDROOT
BRANCH   3   8
HETATM    8  C   UNL     4     -10.824  11.889  64.934  1.00  0.00    -0.305 C  
HETATM    9  O   UNL     4      -9.584  12.099  64.232  1.00  0.00    -0.486 OA 
HETATM   10  H   UNL     4      -8.854  11.912  64.810  1.00  0.00     0.000 HD 
BRANCH   8  11
HETATM   11  C   UNL     4     -10.709  12.671  66.275  1.00  0.00    -0.256 C  
HETATM   12  O   UNL     4      -9.500  12.407  66.979  1.00  0.00    -0.199 OA 
HETATM   13  H   UNL     4      -9.431  12.886  67.797  1.00  0.00     0.000 HD 
BRANCH  11  14
HETATM   14  C   UNL     4     -11.039  14.189  66.263  1.00  0.00    -0.318 C  
HETATM   15  H   UNL     4     -12.664  15.237  65.989  1.00  0.00     0.000 HD 
HETATM   16  O   UNL     4     -12.463  14.308  65.997  1.00  0.00    -0.442 OA 
BRANCH  14  17
HETATM   17  C   UNL     4     -10.229  15.155  65.352  1.00  0.00    -0.372 C  
HETATM   18  C   UNL     4      -9.092  15.928  66.141  1.00  0.00    -0.350 C  
HETATM   19  H   UNL     4     -10.589  16.585  64.003  1.00  0.00     0.000 HD 
HETATM   20  O   UNL     4     -11.083  15.995  64.559  1.00  0.00    -0.572 OA 
HETATM   21  O   UNL     4      -8.495  15.203  67.043  1.00  0.00    -0.199 OA 
HETATM   22  O   UNL     4      -8.919  17.157  65.914  1.00  0.00    -0.519 OA 
ENDBRANCH  14  17
ENDBRANCH  11  14
ENDBRANCH   8  11
ENDBRANCH   3   8
BRANCH   7  23
HETATM   23  C   UNL     5      -9.470   7.070  72.060  1.00  0.00    -0.138 C  
HETATM   24  O   UNL     5      -9.127   5.762  72.522  1.00  0.00    -0.137 OA 
HETATM   25  H   UNL     5      -9.524   5.127  71.939  1.00  0.00     0.000 HD 
BRANCH  23  26
HETATM   26  C   UNL     5     -11.002   7.248  71.979  1.00  0.00    -0.238 C  
HETATM   27  O   UNL     5     -11.517   7.570  73.291  1.00  0.00    -0.613 OA 
HETATM   28  H   UNL     5     -12.460   7.679  73.241  1.00  0.00     0.000 HD 
BRANCH  26  29
HETATM   29  C   UNL     5     -11.565   8.238  70.922  1.00  0.00    -0.262 C  
HETATM   30  O   UNL     5     -11.041   8.011  69.614  1.00  0.00    -0.422 OA 
HETATM   31  H   UNL     5     -11.385   8.617  68.967  1.00  0.00     0.000 HD 
BRANCH  29  32
HETATM   32  C   UNL     5     -11.570   9.735  71.271  1.00  0.00    -0.390 C  
HETATM   33  C   UNL     5     -12.925  10.320  71.724  1.00  0.00    -0.469 C  
HETATM   34  O   UNL     5     -11.025  10.526  70.155  1.00  0.00    -0.297 OA 
HETATM   35  O   UNL     5     -13.686   9.560  72.394  1.00  0.00    -0.438 OA 
HETATM   36  O   UNL     5     -13.138  11.508  71.293  1.00  0.00    -0.336 OA 
HETATM   37  H   UNL     5     -11.028  11.451  70.370  1.00  0.00     0.000 HD 
ENDBRANCH  29  32
ENDBRANCH  26  29
ENDBRANCH  23  26
ENDBRANCH   7  23
TORSDOF 8
ENDMDL
MODEL       79
REMARK 921   NORMALIZED FREE ENERGY PREDICTED BY IDOCK:   -6.19 KCAL/MOL
REMARK 922        TOTAL FREE ENERGY PREDICTED BY IDOCK:  -11.33 KCAL/MOL
REMARK 923 INTER-LIGAND FREE ENERGY PREDICTED BY IDOCK:   -9.35 KCAL/MOL
REMARK 924 INTRA-LIGAND FREE ENERGY PREDICTED BY IDOCK:   -1.98 KCAL/MOL
REMARK 927      BINDING AFFINITY PREDICTED BY RF-SCORE:    0.00 PKD
ROOT
HETATM    1 MG   UNL     3     -11.799  16.602  68.025  1.00  0.00    -0.279 Mg 
HETATM    2  O   UNL     4     -13.079  12.186  63.857  1.00  0.00    -0.749 OA 
HETATM    3  C   UNL     4     -12.361  12.579  65.010  1.00  0.00    -0.453 C  
HETATM    4  H   UNL     4     -13.809  11.610  64.053  1.00  0.00     0.000 HD 
HETATM    5  O   UNL     5      -5.746  21.203  69.208  1.00  0.00    -0.325 OA 
HETATM    6  H   UNL     5      -5.819  22.012  68.716  1.00  0.00     0.000 HD 
HETATM    7  C   UNL     5      -5.990  20.060  68.388  1.00  0.00    -0.252 C  
ENDROOT
BRANCH   3   8
HETATM    8  C   UNL     4     -11.181  13.510  64.693  1.00  0.00    -0.363 C  
HETATM    9  O   UNL     4     -11.639  14.615  63.892  1.00  0.00    -0.607 OA 
HETATM   10  H   UNL     4     -10.909  15.191  63.695  1.00  0.00     0.000 HD 
BRANCH   8  11
HETATM   11  C   UNL     4     -10.372  14.125  65.872  1.00  0.00    -0.316 C  
HETATM   12  O   UNL     4     -10.648  15.505  66.085  1.00  0.00    -0.298 OA 
HETATM   13  H   UNL     4     -10.155  15.880  66.805  1.00  0.00     0.000 HD 
BRANCH  11  14
HETATM   14  C   UNL     4     -10.330  13.342  67.213  1.00  0.00    -0.244 C  
HETATM   15  H   UNL     4      -9.634  11.602  67.763  1.00  0.00     0.000 HD 
HETATM   16  O   UNL     4      -9.660  12.080  66.943  1.00  0.00    -0.195 OA 
BRANCH  14  17
HETATM   17  C   UNL     4     -11.639  13.105  68.019  1.00  0.00    -0.334 C  
HETATM   18  C   UNL     4     -11.630  13.834  69.426  1.00  0.00    -0.310 C  
HETATM   19  H   UNL     4     -12.800  11.570  68.560  1.00  0.00     0.000 HD 
HETATM   20  O   UNL     4     -12.000  11.716  68.068  1.00  0.00    -0.577 OA 
HETATM   21  O   UNL     4     -11.062  15.006  69.404  1.00  0.00    -0.252 OA 
HETATM   22  O   UNL     4     -12.069  13.219  70.436  1.00  0.00    -0.348 OA 
ENDBRANCH  14  17
ENDBRANCH  11  14
ENDBRANCH   8  11
ENDBRANCH   3   8
BRANCH   7  23
HETATM   23  C   UNL     5      -5.871  18.747  69.188  1.00  0.00    -0.225 C  
HETATM   24  O   UNL     5      -6.262  19.007  70.537  1.00  0.00    -0.077 OA 
HETATM   25  H   UNL     5      -6.188  18.198  71.029  1.00  0.00     0.000 HD 
BRANCH  23  26
HETATM   26  C   UNL     5      -6.726  17.621  68.567  1.00  0.00    -0.208 C  
HETATM   27  O   UNL     5      -6.609  16.429  69.376  1.00  0.00    -0.191 OA 
HETATM   28  H   UNL     5      -7.135  15.736  68.994  1.00  0.00     0.000 HD 
BRANCH  26  29
HETATM   29  C   UNL     5      -8.221  17.924  68.268  1.00  0.00    -0.290 C  
HETATM   30  O   UNL     5      -9.089  16.851  68.632  1.00  0.00    -0.251 OA 
HETATM   31  H   UNL     5     -10.003  17.036  68.450  1.00  0.00     0.000 HD 
BRANCH  29  32
HETATM   32  C   UNL     5      -8.578  18.488  66.883  1.00  0.00    -0.278 C  
HETATM   33  C   UNL     5     -10.079  18.724  66.615  1.00  0.00    -0.378 C  
HETATM   34  O   UNL     5      -7.999  17.648  65.822  1.00  0.00    -0.549 OA 
HETATM   35  O   UNL     5     -10.790  19.092  67.597  1.00  0.00    -0.448 OA 
HETATM   36  O   UNL     5     -10.434  18.444  65.415  1.00  0.00    -0.554 OA 
HETATM   37  H   UNL     5      -8.219  17.995  64.966  1.00  0.00     0.000 HD 
ENDBRANCH  29  32
ENDBRANCH  26  29
ENDBRANCH  23  26
ENDBRANCH   7  23
TORSDOF 8
ENDMDL
MODEL       80
REMARK 921   NORMALIZED FREE ENERGY PREDICTED BY IDOCK:   -6.19 KCAL/MOL
REMARK 922        TOTAL FREE ENERGY PREDICTED BY IDOCK:  -11.32 KCAL/MOL
REMARK 923 INTER-LIGAND FREE ENERGY PREDICTED BY IDOCK:   -8.76 KCAL/MOL
REMARK 924 INTRA-LIGAND FREE ENERGY PREDICTED BY IDOCK:   -2.56 KCAL/MOL
REMARK 927      BINDING AFFINITY PREDICTED BY RF-SCORE:    0.00 PKD
ROOT
HETATM    1 MG   UNL     3     -13.122  11.501  70.247  1.00  0.00    -0.216 Mg 
HETATM    2  O   UNL     4     -11.517   6.154  72.958  1.00  0.00    -0.461 OA 
HETATM    3  C   UNL     4     -11.113   7.398  72.419  1.00  0.00    -0.287 C  
HETATM    4  H   UNL     4     -11.508   6.141  73.908  1.00  0.00     0.000 HD 
HETATM    5  O   UNL     5     -12.478  14.233  63.083  1.00  0.00    -1.102 OA 
HETATM    6  H   UNL     5     -13.231  14.005  62.551  1.00  0.00     0.000 HD 
HETATM    7  C   UNL     5     -11.953  13.099  63.773  1.00  0.00    -0.508 C  
ENDROOT
BRANCH   3   8
HETATM    8  C   UNL     4     -11.129   7.418  70.884  1.00  0.00    -0.263 C  
HETATM    9  O   UNL     4     -12.329   6.784  70.403  1.00  0.00    -0.584 OA 
HETATM   10  H   UNL     4     -12.338   6.796  69.453  1.00  0.00     0.000 HD 
BRANCH   8  11
HETATM   11  C   UNL     4     -11.030   8.788  70.151  1.00  0.00    -0.223 C  
HETATM   12  O   UNL     4     -10.825   9.886  71.034  1.00  0.00    -0.321 OA 
HETATM   13  H   UNL     4     -10.764  10.721  70.586  1.00  0.00     0.000 HD 
BRANCH  11  14
HETATM   14  C   UNL     4     -10.107   8.883  68.905  1.00  0.00    -0.197 C  
HETATM   15  H   UNL     4      -9.260   7.578  67.724  1.00  0.00     0.000 HD 
HETATM   16  O   UNL     4      -9.824   7.520  68.486  1.00  0.00    -0.157 OA 
BRANCH  14  17
HETATM   17  C   UNL     4      -8.797   9.719  68.967  1.00  0.00    -0.153 C  
HETATM   18  C   UNL     4      -7.846   9.276  70.154  1.00  0.00    -0.125 C  
HETATM   19  H   UNL     4      -8.253  11.642  68.937  1.00  0.00     0.000 HD 
HETATM   20  O   UNL     4      -9.053  11.131  68.900  1.00  0.00    -0.164 OA 
HETATM   21  O   UNL     4      -7.827   7.990  70.357  1.00  0.00    -0.087 OA 
HETATM   22  O   UNL     4      -7.274  10.165  70.842  1.00  0.00    -0.291 OA 
ENDBRANCH  14  17
ENDBRANCH  11  14
ENDBRANCH   8  11
ENDBRANCH   3   8
BRANCH   7  23
HETATM   23  C   UNL     5     -10.730  13.470  64.635  1.00  0.00    -0.416 C  
HETATM   24  O   UNL     5     -10.574  14.890  64.604  1.00  0.00    -0.571 OA 
HETATM   25  H   UNL     5      -9.820  15.119  65.135  1.00  0.00     0.000 HD 
BRANCH  23  26
HETATM   26  C   UNL     5     -10.876  12.958  66.084  1.00  0.00    -0.279 C  
HETATM   27  O   UNL     5      -9.708  12.182  66.438  1.00  0.00    -0.220 OA 
HETATM   28  H   UNL     5      -9.798  11.866  67.330  1.00  0.00     0.000 HD 
BRANCH  26  29
HETATM   29  C   UNL     5     -11.187  13.998  67.196  1.00  0.00    -0.313 C  
HETATM   30  O   UNL     5     -10.041  14.752  67.588  1.00  0.00    -0.226 OA 
HETATM   31  H   UNL     5     -10.231  15.389  68.268  1.00  0.00     0.000 HD 
BRANCH  29  32
HETATM   32  C   UNL     5     -11.992  13.526  68.417  1.00  0.00    -0.343 C  
HETATM   33  C   UNL     5     -12.043  14.501  69.612  1.00  0.00    -0.323 C  
HETATM   34  O   UNL     5     -11.522  12.204  68.863  1.00  0.00    -0.249 OA 
HETATM   35  O   UNL     5     -12.057  15.740  69.346  1.00  0.00    -0.354 OA 
HETATM   36  O   UNL     5     -11.995  13.916  70.752  1.00  0.00    -0.326 OA 
HETATM   37  H   UNL     5     -12.019  11.912  69.617  1.00  0.00     0.000 HD 
ENDBRANCH  29  32
ENDBRANCH  26  29
ENDBRANCH  23  26
ENDBRANCH   7  23
TORSDOF 8
ENDMDL
MODEL       81
REMARK 921   NORMALIZED FREE ENERGY PREDICTED BY IDOCK:   -6.18 KCAL/MOL
REMARK 922        TOTAL FREE ENERGY PREDICTED BY IDOCK:  -11.31 KCAL/MOL
REMARK 923 INTER-LIGAND FREE ENERGY PREDICTED BY IDOCK:   -8.58 KCAL/MOL
REMARK 924 INTRA-LIGAND FREE ENERGY PREDICTED BY IDOCK:   -2.73 KCAL/MOL
REMARK 927      BINDING AFFINITY PREDICTED BY RF-SCORE:    0.00 PKD
ROOT
HETATM    1 MG   UNL     3     -10.814  12.485  69.123  1.00  0.00    -0.207 Mg 
HETATM    2  O   UNL     4     -11.900  15.378  63.740  1.00  0.00    -0.875 OA 
HETATM    3  C   UNL     4     -12.293  14.395  64.679  1.00  0.00    -0.418 C  
HETATM    4  H   UNL     4     -12.438  16.160  63.775  1.00  0.00     0.000 HD 
HETATM    5  O   UNL     5      -8.124   5.515  70.965  1.00  0.00    -0.113 OA 
HETATM    6  H   UNL     5      -7.177   5.513  71.038  1.00  0.00     0.000 HD 
HETATM    7  C   UNL     5      -8.560   6.132  69.754  1.00  0.00    -0.132 C  
ENDROOT
BRANCH   3   8
HETATM    8  C   UNL     4     -11.423  13.131  64.622  1.00  0.00    -0.333 C  
HETATM    9  O   UNL     4     -10.227  13.400  63.866  1.00  0.00    -0.712 OA 
HETATM   10  H   UNL     4      -9.689  12.618  63.830  1.00  0.00     0.000 HD 
BRANCH   8  11
HETATM   11  C   UNL     4     -10.963  12.476  65.957  1.00  0.00    -0.283 C  
HETATM   12  O   UNL     4     -11.828  12.761  67.051  1.00  0.00    -0.372 OA 
HETATM   13  H   UNL     4     -11.547  12.361  67.866  1.00  0.00     0.000 HD 
BRANCH  11  14
HETATM   14  C   UNL     4     -10.555  10.978  65.932  1.00  0.00    -0.206 C  
HETATM   15  H   UNL     4     -10.810   9.467  67.144  1.00  0.00     0.000 HD 
HETATM   16  O   UNL     4     -11.059  10.384  67.159  1.00  0.00    -0.244 OA 
BRANCH  14  17
HETATM   17  C   UNL     4      -9.070  10.578  65.700  1.00  0.00    -0.182 C  
HETATM   18  C   UNL     4      -8.815   9.991  64.250  1.00  0.00    -0.220 C  
HETATM   19  H   UNL     4      -7.646   9.527  66.630  1.00  0.00     0.000 HD 
HETATM   20  O   UNL     4      -8.553   9.772  66.771  1.00  0.00    -0.127 OA 
HETATM   21  O   UNL     4      -9.499  10.588  63.316  1.00  0.00    -0.270 OA 
HETATM   22  O   UNL     4      -8.074   8.978  64.123  1.00  0.00    -0.140 OA 
ENDBRANCH  14  17
ENDBRANCH  11  14
ENDBRANCH   8  11
ENDBRANCH   3   8
BRANCH   7  23
HETATM   23  C   UNL     5     -10.098   6.135  69.636  1.00  0.00    -0.179 C  
HETATM   24  O   UNL     5     -10.632   5.376  70.722  1.00  0.00    -0.256 OA 
HETATM   25  H   UNL     5     -11.579   5.378  70.648  1.00  0.00     0.000 HD 
BRANCH  23  26
HETATM   26  C   UNL     5     -10.667   7.570  69.627  1.00  0.00    -0.230 C  
HETATM   27  O   UNL     5     -11.282   7.834  68.345  1.00  0.00    -0.355 OA 
HETATM   28  H   UNL     5     -11.633   8.717  68.340  1.00  0.00     0.000 HD 
BRANCH  26  29
HETATM   29  C   UNL     5     -11.626   7.980  70.779  1.00  0.00    -0.242 C  
HETATM   30  O   UNL     5     -12.954   7.488  70.598  1.00  0.00    -0.540 OA 
HETATM   31  H   UNL     5     -13.540   7.738  71.302  1.00  0.00     0.000 HD 
BRANCH  29  32
HETATM   32  C   UNL     5     -11.630   9.452  71.222  1.00  0.00    -0.364 C  
HETATM   33  C   UNL     5     -12.902   9.936  71.949  1.00  0.00    -0.429 C  
HETATM   34  O   UNL     5     -11.331  10.333  70.082  1.00  0.00    -0.270 OA 
HETATM   35  O   UNL     5     -13.497   9.100  72.692  1.00  0.00    -0.463 OA 
HETATM   36  O   UNL     5     -13.240  11.135  71.643  1.00  0.00    -0.418 OA 
HETATM   37  H   UNL     5     -11.333  11.242  70.356  1.00  0.00     0.000 HD 
ENDBRANCH  29  32
ENDBRANCH  26  29
ENDBRANCH  23  26
ENDBRANCH   7  23
TORSDOF 8
ENDMDL
MODEL       82
REMARK 921   NORMALIZED FREE ENERGY PREDICTED BY IDOCK:   -6.17 KCAL/MOL
REMARK 922        TOTAL FREE ENERGY PREDICTED BY IDOCK:  -11.30 KCAL/MOL
REMARK 923 INTER-LIGAND FREE ENERGY PREDICTED BY IDOCK:  -10.06 KCAL/MOL
REMARK 924 INTRA-LIGAND FREE ENERGY PREDICTED BY IDOCK:   -1.24 KCAL/MOL
REMARK 927      BINDING AFFINITY PREDICTED BY RF-SCORE:    0.00 PKD
ROOT
HETATM    1 MG   UNL     3     -12.277   6.539  67.224  1.00  0.00    -0.647 Mg 
HETATM    2  O   UNL     4      -9.347   4.221  72.180  1.00  0.00    -0.120 OA 
HETATM    3  C   UNL     4     -10.283   5.144  71.659  1.00  0.00    -0.212 C  
HETATM    4  H   UNL     4      -9.757   3.482  72.614  1.00  0.00     0.000 HD 
HETATM    5  O   UNL     5     -11.627  13.094  63.248  1.00  0.00    -0.690 OA 
HETATM    6  H   UNL     5     -10.990  13.017  62.547  1.00  0.00     0.000 HD 
HETATM    7  C   UNL     5     -11.107  12.621  64.490  1.00  0.00    -0.327 C  
ENDROOT
BRANCH   3   8
HETATM    8  C   UNL     4      -9.618   6.338  70.958  1.00  0.00    -0.175 C  
HETATM    9  O   UNL     4      -8.506   5.878  70.168  1.00  0.00    -0.122 OA 
HETATM   10  H   UNL     4      -8.094   6.617  69.734  1.00  0.00     0.000 HD 
BRANCH   8  11
HETATM   11  C   UNL     4     -10.482   7.235  70.023  1.00  0.00    -0.224 C  
HETATM   12  O   UNL     4     -11.666   6.592  69.563  1.00  0.00    -0.640 OA 
HETATM   13  H   UNL     4     -12.193   7.139  68.993  1.00  0.00     0.000 HD 
BRANCH  11  14
HETATM   14  C   UNL     4     -10.767   8.694  70.472  1.00  0.00    -0.221 C  
HETATM   15  H   UNL     4      -9.872   9.963  71.657  1.00  0.00     0.000 HD 
HETATM   16  O   UNL     4      -9.698   9.071  71.383  1.00  0.00    -0.276 OA 
BRANCH  14  17
HETATM   17  C   UNL     4     -12.153   9.069  71.071  1.00  0.00    -0.251 C  
HETATM   18  C   UNL     4     -12.549  10.578  70.793  1.00  0.00    -0.382 C  
HETATM   19  H   UNL     4     -13.125   8.888  72.808  1.00  0.00     0.000 HD 
HETATM   20  O   UNL     4     -12.279   8.659  72.442  1.00  0.00    -0.374 OA 
HETATM   21  O   UNL     4     -12.192  11.005  69.616  1.00  0.00    -0.330 OA 
HETATM   22  O   UNL     4     -13.073  11.252  71.722  1.00  0.00    -0.472 OA 
ENDBRANCH  14  17
ENDBRANCH  11  14
ENDBRANCH   8  11
ENDBRANCH   3   8
BRANCH   7  23
HETATM   23  C   UNL     5     -12.141  12.746  65.627  1.00  0.00    -0.459 C  
HETATM   24  O   UNL     5     -11.918  11.682  66.554  1.00  0.00    -0.474 OA 
HETATM   25  H   UNL     5     -12.555  11.759  67.255  1.00  0.00     0.000 HD 
BRANCH  23  26
HETATM   26  C   UNL     5     -12.057  14.120  66.327  1.00  0.00    -0.442 C  
HETATM   27  O   UNL     5     -12.515  13.991  67.693  1.00  0.00    -0.498 OA 
HETATM   28  H   UNL     5     -12.463  14.837  68.123  1.00  0.00     0.000 HD 
BRANCH  26  29
HETATM   29  C   UNL     5     -10.700  14.877  66.284  1.00  0.00    -0.320 C  
HETATM   30  O   UNL     5      -9.664  14.201  66.996  1.00  0.00    -0.243 OA 
HETATM   31  H   UNL     5      -8.834  14.664  66.970  1.00  0.00     0.000 HD 
BRANCH  29  32
HETATM   32  C   UNL     5     -10.706  16.382  66.598  1.00  0.00    -0.173 C  
HETATM   33  C   UNL     5     -10.642  17.327  65.380  1.00  0.00    -0.072 C  
HETATM   34  O   UNL     5      -9.636  16.712  67.553  1.00  0.00    -0.238 OA 
HETATM   35  O   UNL     5     -11.228  16.948  64.323  1.00  0.00    -1.204 OA 
HETATM   36  O   UNL     5      -9.925  18.371  65.581  1.00  0.00    -0.477 OA 
HETATM   37  H   UNL     5      -9.639  17.641  67.747  1.00  0.00     0.000 HD 
ENDBRANCH  29  32
ENDBRANCH  26  29
ENDBRANCH  23  26
ENDBRANCH   7  23
TORSDOF 8
ENDMDL
MODEL       83
REMARK 921   NORMALIZED FREE ENERGY PREDICTED BY IDOCK:   -6.15 KCAL/MOL
REMARK 922        TOTAL FREE ENERGY PREDICTED BY IDOCK:  -11.27 KCAL/MOL
REMARK 923 INTER-LIGAND FREE ENERGY PREDICTED BY IDOCK:   -9.12 KCAL/MOL
REMARK 924 INTRA-LIGAND FREE ENERGY PREDICTED BY IDOCK:   -2.15 KCAL/MOL
REMARK 927      BINDING AFFINITY PREDICTED BY RF-SCORE:    0.00 PKD
ROOT
HETATM    1 MG   UNL     3      -9.256  11.856  69.479  1.00  0.00    -0.377 Mg 
HETATM    2  O   UNL     4     -13.175   7.963  72.308  1.00  0.00    -0.502 OA 
HETATM    3  C   UNL     4     -12.813   8.662  71.133  1.00  0.00    -0.092 C  
HETATM    4  H   UNL     4     -12.962   7.038  72.269  1.00  0.00     0.000 HD 
HETATM    5  O   UNL     5      -9.717  19.229  67.325  1.00  0.00    -0.312 OA 
HETATM    6  H   UNL     5      -9.434  19.815  68.017  1.00  0.00     0.000 HD 
HETATM    7  C   UNL     5     -10.656  18.264  67.798  1.00  0.00    -0.393 C  
ENDROOT
BRANCH   3   8
HETATM    8  C   UNL     4     -13.157  10.158  71.196  1.00  0.00    -0.392 C  
HETATM    9  O   UNL     4     -13.695  10.476  72.493  1.00  0.00    -0.505 OA 
HETATM   10  H   UNL     4     -13.908  11.401  72.532  1.00  0.00     0.000 HD 
BRANCH   8  11
HETATM   11  C   UNL     4     -12.033  11.198  70.917  1.00  0.00    -0.257 C  
HETATM   12  O   UNL     4     -10.904  10.642  70.252  1.00  0.00    -0.437 OA 
HETATM   13  H   UNL     4     -10.219  11.277  70.082  1.00  0.00     0.000 HD 
BRANCH  11  14
HETATM   14  C   UNL     4     -12.441  12.562  70.297  1.00  0.00    -0.084 C  
HETATM   15  H   UNL     4     -12.081  13.459  68.599  1.00  0.00     0.000 HD 
HETATM   16  O   UNL     4     -11.832  12.624  68.978  1.00  0.00    -0.296 OA 
BRANCH  14  17
HETATM   17  C   UNL     4     -12.187  13.882  71.080  1.00  0.00    -0.342 C  
HETATM   18  C   UNL     4     -13.403  14.282  72.013  1.00  0.00    -0.398 C  
HETATM   19  H   UNL     4     -11.561  15.742  70.703  1.00  0.00     0.000 HD 
HETATM   20  O   UNL     4     -11.717  14.936  70.225  1.00  0.00    -0.269 OA 
HETATM   21  O   UNL     4     -13.979  13.264  72.588  1.00  0.00    -0.741 OA 
HETATM   22  O   UNL     4     -13.768  15.489  72.058  1.00  0.00    -0.458 OA 
ENDBRANCH  14  17
ENDBRANCH  11  14
ENDBRANCH   8  11
ENDBRANCH   3   8
BRANCH   7  23
HETATM   23  C   UNL     5     -11.114  17.314  66.674  1.00  0.00     0.391 C  
HETATM   24  O   UNL     5     -10.699  17.866  65.423  1.00  0.00    -0.634 OA 
HETATM   25  H   UNL     5     -10.981  17.280  64.730  1.00  0.00     0.000 HD 
BRANCH  23  26
HETATM   26  C   UNL     5     -10.552  15.888  66.866  1.00  0.00    -0.309 C  
HETATM   27  O   UNL     5     -11.588  14.922  66.578  1.00  0.00    -0.339 OA 
HETATM   28  H   UNL     5     -11.243  14.045  66.697  1.00  0.00     0.000 HD 
BRANCH  26  29
HETATM   29  C   UNL     5      -9.244  15.514  66.116  1.00  0.00    -0.344 C  
HETATM   30  O   UNL     5      -9.255  14.180  65.610  1.00  0.00    -0.487 OA 
HETATM   31  H   UNL     5      -8.455  13.951  65.151  1.00  0.00     0.000 HD 
BRANCH  29  32
HETATM   32  C   UNL     5      -7.905  15.844  66.796  1.00  0.00    -0.238 C  
HETATM   33  C   UNL     5      -7.125  17.040  66.211  1.00  0.00    -0.201 C  
HETATM   34  O   UNL     5      -7.044  14.651  66.843  1.00  0.00    -0.324 OA 
HETATM   35  O   UNL     5      -7.806  18.008  65.760  1.00  0.00    -0.534 OA 
HETATM   36  O   UNL     5      -5.855  16.862  66.195  1.00  0.00    -0.251 OA 
HETATM   37  H   UNL     5      -6.218  14.854  67.264  1.00  0.00     0.000 HD 
ENDBRANCH  29  32
ENDBRANCH  26  29
ENDBRANCH  23  26
ENDBRANCH   7  23
TORSDOF 8
ENDMDL
MODEL       84
REMARK 921   NORMALIZED FREE ENERGY PREDICTED BY IDOCK:   -6.15 KCAL/MOL
REMARK 922        TOTAL FREE ENERGY PREDICTED BY IDOCK:  -11.27 KCAL/MOL
REMARK 923 INTER-LIGAND FREE ENERGY PREDICTED BY IDOCK:   -9.43 KCAL/MOL
REMARK 924 INTRA-LIGAND FREE ENERGY PREDICTED BY IDOCK:   -1.84 KCAL/MOL
REMARK 927      BINDING AFFINITY PREDICTED BY RF-SCORE:    0.00 PKD
ROOT
HETATM    1 MG   UNL     3      -7.428  13.627  66.303  1.00  0.00    -0.249 Mg 
HETATM    2  O   UNL     4     -12.267  11.326  63.171  1.00  0.00    -0.814 OA 
HETATM    3  C   UNL     4     -11.209  12.263  63.232  1.00  0.00    -0.324 C  
HETATM    4  H   UNL     4     -12.090  10.604  62.579  1.00  0.00     0.000 HD 
HETATM    5  O   UNL     5      -6.278  20.095  70.309  1.00  0.00    -0.363 OA 
HETATM    6  H   UNL     5      -6.523  19.991  71.221  1.00  0.00     0.000 HD 
HETATM    7  C   UNL     5      -7.301  19.631  69.429  1.00  0.00    -0.194 C  
ENDROOT
BRANCH   3   8
HETATM    8  C   UNL     4     -11.496  13.428  64.190  1.00  0.00    -0.383 C  
HETATM    9  O   UNL     4     -12.889  13.424  64.553  1.00  0.00    -0.653 OA 
HETATM   10  H   UNL     4     -13.066  14.146  65.146  1.00  0.00     0.000 HD 
BRANCH   8  11
HETATM   11  C   UNL     4     -10.693  13.520  65.521  1.00  0.00    -0.290 C  
HETATM   12  O   UNL     4      -9.650  14.488  65.483  1.00  0.00    -0.520 OA 
HETATM   13  H   UNL     4      -9.160  14.544  66.295  1.00  0.00     0.000 HD 
BRANCH  11  14
HETATM   14  C   UNL     4     -11.492  13.600  66.850  1.00  0.00    -0.345 C  
HETATM   15  H   UNL     4     -12.315  15.049  67.870  1.00  0.00     0.000 HD 
HETATM   16  O   UNL     4     -11.826  15.000  67.057  1.00  0.00    -0.272 OA 
BRANCH  14  17
HETATM   17  C   UNL     4     -10.907  12.979  68.150  1.00  0.00    -0.247 C  
HETATM   18  C   UNL     4     -11.578  11.592  68.520  1.00  0.00    -0.317 C  
HETATM   19  H   UNL     4     -10.501  13.548  70.023  1.00  0.00     0.000 HD 
HETATM   20  O   UNL     4     -10.859  13.927  69.229  1.00  0.00    -0.221 OA 
HETATM   21  O   UNL     4     -11.845  10.847  67.486  1.00  0.00    -0.524 OA 
HETATM   22  O   UNL     4     -11.877  11.360  69.724  1.00  0.00    -0.302 OA 
ENDBRANCH  14  17
ENDBRANCH  11  14
ENDBRANCH   8  11
ENDBRANCH   3   8
BRANCH   7  23
HETATM   23  C   UNL     5      -6.903  19.800  67.949  1.00  0.00    -0.249 C  
HETATM   24  O   UNL     5      -6.336  18.570  67.494  1.00  0.00    -0.190 OA 
HETATM   25  H   UNL     5      -6.091  18.674  66.583  1.00  0.00     0.000 HD 
BRANCH  23  26
HETATM   26  C   UNL     5      -8.108  20.215  67.077  1.00  0.00    -0.326 C  
HETATM   27  O   UNL     5      -7.673  20.382  65.708  1.00  0.00    -0.528 OA 
HETATM   28  H   UNL     5      -8.415  20.637  65.171  1.00  0.00     0.000 HD 
BRANCH  26  29
HETATM   29  C   UNL     5      -9.384  19.330  67.132  1.00  0.00    -0.315 C  
HETATM   30  O   UNL     5     -10.089  19.448  68.367  1.00  0.00    -0.399 OA 
HETATM   31  H   UNL     5     -10.870  18.907  68.401  1.00  0.00     0.000 HD 
BRANCH  29  32
HETATM   32  C   UNL     5      -9.260  17.861  66.697  1.00  0.00    -0.278 C  
HETATM   33  C   UNL     5      -8.974  16.844  67.821  1.00  0.00    -0.225 C  
HETATM   34  O   UNL     5      -8.260  17.725  65.624  1.00  0.00    -0.490 OA 
HETATM   35  O   UNL     5      -9.491  17.076  68.955  1.00  0.00    -0.266 OA 
HETATM   36  O   UNL     5      -8.173  15.906  67.470  1.00  0.00    -0.147 OA 
HETATM   37  H   UNL     5      -8.183  16.818  65.355  1.00  0.00     0.000 HD 
ENDBRANCH  29  32
ENDBRANCH  26  29
ENDBRANCH  23  26
ENDBRANCH   7  23
TORSDOF 8
ENDMDL
MODEL       85
REMARK 921   NORMALIZED FREE ENERGY PREDICTED BY IDOCK:   -6.14 KCAL/MOL
REMARK 922        TOTAL FREE ENERGY PREDICTED BY IDOCK:  -11.26 KCAL/MOL
REMARK 923 INTER-LIGAND FREE ENERGY PREDICTED BY IDOCK:   -9.73 KCAL/MOL
REMARK 924 INTRA-LIGAND FREE ENERGY PREDICTED BY IDOCK:   -1.52 KCAL/MOL
REMARK 927      BINDING AFFINITY PREDICTED BY RF-SCORE:    0.00 PKD
ROOT
HETATM    1 MG   UNL     3     -10.122  11.993  64.140  1.00  0.00    -0.243 Mg 
HETATM    2  O   UNL     4     -10.080   6.774  67.498  1.00  0.00    -0.146 OA 
HETATM    3  C   UNL     4     -10.651   8.046  67.259  1.00  0.00    -0.290 C  
HETATM    4  H   UNL     4     -10.623   6.059  67.187  1.00  0.00     0.000 HD 
HETATM    5  O   UNL     5      -7.794  19.202  65.489  1.00  0.00    -0.401 OA 
HETATM    6  H   UNL     5      -6.884  19.327  65.247  1.00  0.00     0.000 HD 
HETATM    7  C   UNL     5      -7.971  18.039  66.298  1.00  0.00    -0.241 C  
ENDROOT
BRANCH   3   8
HETATM    8  C   UNL     4      -9.772   9.200  67.763  1.00  0.00    -0.154 C  
HETATM    9  O   UNL     4      -9.560  10.147  66.699  1.00  0.00    -0.171 OA 
HETATM   10  H   UNL     4      -9.016  10.861  67.011  1.00  0.00     0.000 HD 
BRANCH   8  11
HETATM   11  C   UNL     4     -10.247  10.022  68.997  1.00  0.00    -0.203 C  
HETATM   12  O   UNL     4      -9.191  10.717  69.651  1.00  0.00    -0.403 OA 
HETATM   13  H   UNL     4      -9.481  11.218  70.403  1.00  0.00     0.000 HD 
BRANCH  11  14
HETATM   14  C   UNL     4     -11.502  10.921  68.834  1.00  0.00    -0.300 C  
HETATM   15  H   UNL     4     -12.449  11.690  67.308  1.00  0.00     0.000 HD 
HETATM   16  O   UNL     4     -11.681  11.140  67.408  1.00  0.00    -0.564 OA 
BRANCH  14  17
HETATM   17  C   UNL     4     -11.605  12.265  69.611  1.00  0.00    -0.278 C  
HETATM   18  C   UNL     4     -12.561  12.169  70.871  1.00  0.00    -0.247 C  
HETATM   19  H   UNL     4     -11.936  14.196  69.213  1.00  0.00     0.000 HD 
HETATM   20  O   UNL     4     -11.873  13.375  68.739  1.00  0.00    -0.318 OA 
HETATM   21  O   UNL     4     -12.479  11.035  71.506  1.00  0.00    -0.342 OA 
HETATM   22  O   UNL     4     -13.362  13.117  71.103  1.00  0.00    -0.123 OA 
ENDBRANCH  14  17
ENDBRANCH  11  14
ENDBRANCH   8  11
ENDBRANCH   3   8
BRANCH   7  23
HETATM   23  C   UNL     5      -9.449  17.836  66.690  1.00  0.00    -0.292 C  
HETATM   24  O   UNL     5     -10.250  18.700  65.882  1.00  0.00    -0.533 OA 
HETATM   25  H   UNL     5     -11.160  18.575  66.124  1.00  0.00     0.000 HD 
BRANCH  23  26
HETATM   26  C   UNL     5      -9.884  16.363  66.531  1.00  0.00    -0.274 C  
HETATM   27  O   UNL     5     -10.969  16.083  67.446  1.00  0.00    -0.315 OA 
HETATM   28  H   UNL     5     -11.237  15.177  67.348  1.00  0.00     0.000 HD 
BRANCH  26  29
HETATM   29  C   UNL     5     -10.240  15.859  65.105  1.00  0.00    -0.163 C  
HETATM   30  O   UNL     5     -11.042  16.785  64.373  1.00  0.00    -1.176 OA 
HETATM   31  H   UNL     5     -11.260  16.477  63.500  1.00  0.00     0.000 HD 
BRANCH  29  32
HETATM   32  C   UNL     5     -10.768  14.423  64.960  1.00  0.00    -0.423 C  
HETATM   33  C   UNL     5     -12.254  14.285  64.568  1.00  0.00    -0.455 C  
HETATM   34  O   UNL     5     -10.491  13.648  66.181  1.00  0.00    -0.286 OA 
HETATM   35  O   UNL     5     -12.730  15.164  63.790  1.00  0.00    -0.722 OA 
HETATM   36  O   UNL     5     -12.848  13.309  65.151  1.00  0.00    -0.670 OA 
HETATM   37  H   UNL     5     -10.818  12.761  66.092  1.00  0.00     0.000 HD 
ENDBRANCH  29  32
ENDBRANCH  26  29
ENDBRANCH  23  26
ENDBRANCH   7  23
TORSDOF 8
ENDMDL
MODEL       86
REMARK 921   NORMALIZED FREE ENERGY PREDICTED BY IDOCK:   -6.14 KCAL/MOL
REMARK 922        TOTAL FREE ENERGY PREDICTED BY IDOCK:  -11.25 KCAL/MOL
REMARK 923 INTER-LIGAND FREE ENERGY PREDICTED BY IDOCK:   -9.53 KCAL/MOL
REMARK 924 INTRA-LIGAND FREE ENERGY PREDICTED BY IDOCK:   -1.72 KCAL/MOL
REMARK 927      BINDING AFFINITY PREDICTED BY RF-SCORE:    0.00 PKD
ROOT
HETATM    1 MG   UNL     3     -11.874  11.192  69.070  1.00  0.00    -0.204 Mg 
HETATM    2  O   UNL     4     -11.739  16.621  72.073  1.00  0.00    -0.616 OA 
HETATM    3  C   UNL     4     -11.920  15.924  70.856  1.00  0.00    -0.394 C  
HETATM    4  H   UNL     4     -12.556  16.921  72.454  1.00  0.00     0.000 HD 
HETATM    5  O   UNL     5      -7.069   7.700  64.178  1.00  0.00    -0.062 OA 
HETATM    6  H   UNL     5      -6.429   7.168  64.636  1.00  0.00     0.000 HD 
HETATM    7  C   UNL     5      -7.157   9.014  64.729  1.00  0.00    -0.092 C  
ENDROOT
BRANCH   3   8
HETATM    8  C   UNL     4     -10.598  15.440  70.241  1.00  0.00    -0.277 C  
HETATM    9  O   UNL     4     -10.783  14.134  69.664  1.00  0.00    -0.440 OA 
HETATM   10  H   UNL     4      -9.965  13.834  69.284  1.00  0.00     0.000 HD 
BRANCH   8  11
HETATM   11  C   UNL     4      -9.915  16.313  69.148  1.00  0.00    -0.260 C  
HETATM   12  O   UNL     4      -8.618  15.849  68.788  1.00  0.00    -0.185 OA 
HETATM   13  H   UNL     4      -8.202  16.382  68.120  1.00  0.00     0.000 HD 
BRANCH  11  14
HETATM   14  C   UNL     4     -10.749  16.696  67.896  1.00  0.00    -0.344 C  
HETATM   15  H   UNL     4     -11.827  15.698  66.608  1.00  0.00     0.000 HD 
HETATM   16  O   UNL     4     -11.317  15.463  67.375  1.00  0.00    -0.319 OA 
BRANCH  14  17
HETATM   17  C   UNL     4     -10.100  17.526  66.751  1.00  0.00    -0.320 C  
HETATM   18  C   UNL     4     -10.440  19.070  66.849  1.00  0.00    -0.426 C  
HETATM   19  H   UNL     4      -9.938  17.449  64.760  1.00  0.00     0.000 HD 
HETATM   20  O   UNL     4     -10.335  16.942  65.459  1.00  0.00    -0.572 OA 
HETATM   21  O   UNL     4     -10.468  19.524  68.070  1.00  0.00    -0.420 OA 
HETATM   22  O   UNL     4     -10.735  19.699  65.795  1.00  0.00    -0.516 OA 
ENDBRANCH  14  17
ENDBRANCH  11  14
ENDBRANCH   8  11
ENDBRANCH   3   8
BRANCH   7  23
HETATM   23  C   UNL     5      -8.196   9.878  63.987  1.00  0.00    -0.159 C  
HETATM   24  O   UNL     5      -8.710   9.117  62.892  1.00  0.00    -0.269 OA 
HETATM   25  H   UNL     5      -9.351   9.649  62.434  1.00  0.00     0.000 HD 
BRANCH  23  26
HETATM   26  C   UNL     5      -9.332  10.339  64.926  1.00  0.00    -0.252 C  
HETATM   27  O   UNL     5      -8.761  10.982  66.088  1.00  0.00    -0.175 OA 
HETATM   28  H   UNL     5      -9.460  11.265  66.666  1.00  0.00     0.000 HD 
BRANCH  26  29
HETATM   29  C   UNL     5     -10.462  11.220  64.324  1.00  0.00    -0.357 C  
HETATM   30  O   UNL     5      -9.993  12.105  63.307  1.00  0.00    -0.434 OA 
HETATM   31  H   UNL     5     -10.684  12.644  62.938  1.00  0.00     0.000 HD 
BRANCH  29  32
HETATM   32  C   UNL     5     -11.410  11.937  65.298  1.00  0.00    -0.275 C  
HETATM   33  C   UNL     5     -12.654  12.597  64.667  1.00  0.00    -0.440 C  
HETATM   34  O   UNL     5     -10.670  12.919  66.107  1.00  0.00    -0.268 OA 
HETATM   35  O   UNL     5     -13.172  12.017  63.667  1.00  0.00    -0.737 OA 
HETATM   36  O   UNL     5     -12.970  13.716  65.211  1.00  0.00    -0.719 OA 
HETATM   37  H   UNL     5     -11.256  13.362  66.709  1.00  0.00     0.000 HD 
ENDBRANCH  29  32
ENDBRANCH  26  29
ENDBRANCH  23  26
ENDBRANCH   7  23
TORSDOF 8
ENDMDL
MODEL       87
REMARK 921   NORMALIZED FREE ENERGY PREDICTED BY IDOCK:   -6.13 KCAL/MOL
REMARK 922        TOTAL FREE ENERGY PREDICTED BY IDOCK:  -11.24 KCAL/MOL
REMARK 923 INTER-LIGAND FREE ENERGY PREDICTED BY IDOCK:   -8.90 KCAL/MOL
REMARK 924 INTRA-LIGAND FREE ENERGY PREDICTED BY IDOCK:   -2.34 KCAL/MOL
REMARK 927      BINDING AFFINITY PREDICTED BY RF-SCORE:    0.00 PKD
ROOT
HETATM    1 MG   UNL     3     -11.815  10.933  70.174  1.00  0.00    -0.205 Mg 
HETATM    2  O   UNL     4     -10.758  16.952  69.094  1.00  0.00    -0.330 OA 
HETATM    3  C   UNL     4     -11.189  15.699  68.600  1.00  0.00    -0.338 C  
HETATM    4  H   UNL     4     -11.477  17.551  69.264  1.00  0.00     0.000 HD 
HETATM    5  O   UNL     5      -8.160   4.455  68.201  1.00  0.00    -0.089 OA 
HETATM    6  H   UNL     5      -7.500   4.217  68.840  1.00  0.00     0.000 HD 
HETATM    7  C   UNL     5      -8.051   5.824  67.812  1.00  0.00    -0.102 C  
ENDROOT
BRANCH   3   8
HETATM    8  C   UNL     4     -10.028  14.732  68.326  1.00  0.00    -0.222 C  
HETATM    9  O   UNL     4      -9.090  14.781  69.418  1.00  0.00    -0.388 OA 
HETATM   10  H   UNL     4      -8.371  14.183  69.248  1.00  0.00     0.000 HD 
BRANCH   8  11
HETATM   11  C   UNL     4     -10.345  13.228  68.084  1.00  0.00    -0.244 C  
HETATM   12  O   UNL     4     -10.331  12.451  69.277  1.00  0.00    -0.419 OA 
HETATM   13  H   UNL     4     -10.525  11.533  69.130  1.00  0.00     0.000 HD 
BRANCH  11  14
HETATM   14  C   UNL     4     -11.566  12.875  67.193  1.00  0.00    -0.363 C  
HETATM   15  H   UNL     4     -12.939  11.485  67.235  1.00  0.00     0.000 HD 
HETATM   16  O   UNL     4     -12.192  11.701  67.781  1.00  0.00    -0.560 OA 
BRANCH  14  17
HETATM   17  C   UNL     4     -11.383  12.686  65.659  1.00  0.00    -0.322 C  
HETATM   18  C   UNL     4     -12.694  13.038  64.841  1.00  0.00    -0.390 C  
HETATM   19  H   UNL     4     -10.687  11.300  64.399  1.00  0.00     0.000 HD 
HETATM   20  O   UNL     4     -10.799  11.415  65.336  1.00  0.00    -0.281 OA 
HETATM   21  O   UNL     4     -13.350  14.058  65.315  1.00  0.00    -0.741 OA 
HETATM   22  O   UNL     4     -13.041  12.284  63.891  1.00  0.00    -0.772 OA 
ENDBRANCH  14  17
ENDBRANCH  11  14
ENDBRANCH   8  11
ENDBRANCH   3   8
BRANCH   7  23
HETATM   23  C   UNL     5      -9.123   6.211  66.774  1.00  0.00    -0.133 C  
HETATM   24  O   UNL     5      -9.530   5.026  66.087  1.00  0.00    -0.144 OA 
HETATM   25  H   UNL     5     -10.190   5.264  65.447  1.00  0.00     0.000 HD 
BRANCH  23  26
HETATM   26  C   UNL     5     -10.330   6.913  67.434  1.00  0.00    -0.231 C  
HETATM   27  O   UNL     5     -11.548   6.486  66.782  1.00  0.00    -0.731 OA 
HETATM   28  H   UNL     5     -12.291   6.918  67.188  1.00  0.00     0.000 HD 
BRANCH  26  29
HETATM   29  C   UNL     5     -10.480   6.806  68.977  1.00  0.00    -0.206 C  
HETATM   30  O   UNL     5     -11.612   6.034  69.373  1.00  0.00    -0.294 OA 
HETATM   31  H   UNL     5     -11.704   5.968  70.317  1.00  0.00     0.000 HD 
BRANCH  29  32
HETATM   32  C   UNL     5     -10.368   8.099  69.801  1.00  0.00    -0.216 C  
HETATM   33  C   UNL     5     -10.922   8.034  71.240  1.00  0.00    -0.236 C  
HETATM   34  O   UNL     5     -10.975   9.227  69.075  1.00  0.00    -0.391 OA 
HETATM   35  O   UNL     5     -10.799   6.934  71.857  1.00  0.00    -0.224 OA 
HETATM   36  O   UNL     5     -11.512   9.111  71.609  1.00  0.00    -0.333 OA 
HETATM   37  H   UNL     5     -10.906  10.025  69.584  1.00  0.00     0.000 HD 
ENDBRANCH  29  32
ENDBRANCH  26  29
ENDBRANCH  23  26
ENDBRANCH   7  23
TORSDOF 8
ENDMDL
MODEL       88
REMARK 921   NORMALIZED FREE ENERGY PREDICTED BY IDOCK:   -6.12 KCAL/MOL
REMARK 922        TOTAL FREE ENERGY PREDICTED BY IDOCK:  -11.23 KCAL/MOL
REMARK 923 INTER-LIGAND FREE ENERGY PREDICTED BY IDOCK:   -9.20 KCAL/MOL
REMARK 924 INTRA-LIGAND FREE ENERGY PREDICTED BY IDOCK:   -2.03 KCAL/MOL
REMARK 927      BINDING AFFINITY PREDICTED BY RF-SCORE:    0.00 PKD
ROOT
HETATM    1 MG   UNL     3      -7.589  11.992  69.874  1.00  0.00    -0.337 Mg 
HETATM    2  O   UNL     4      -9.292  17.053  66.710  1.00  0.00    -0.235 OA 
HETATM    3  C   UNL     4      -9.506  16.196  67.815  1.00  0.00    -0.217 C  
HETATM    4  H   UNL     4      -8.871  17.870  66.950  1.00  0.00     0.000 HD 
HETATM    5  O   UNL     5     -10.578   4.943  70.636  1.00  0.00    -0.162 OA 
HETATM    6  H   UNL     5     -10.255   4.351  69.967  1.00  0.00     0.000 HD 
HETATM    7  C   UNL     5     -11.041   6.171  70.077  1.00  0.00    -0.392 C  
ENDROOT
BRANCH   3   8
HETATM    8  C   UNL     4     -10.186  14.875  67.426  1.00  0.00    -0.234 C  
HETATM    9  O   UNL     4     -11.616  15.046  67.435  1.00  0.00    -0.348 OA 
HETATM   10  H   UNL     4     -12.036  14.228  67.195  1.00  0.00     0.000 HD 
BRANCH   8  11
HETATM   11  C   UNL     4      -9.828  14.222  66.059  1.00  0.00    -0.314 C  
HETATM   12  O   UNL     4      -9.231  12.936  66.189  1.00  0.00    -0.431 OA 
HETATM   13  H   UNL     4      -9.013  12.538  65.355  1.00  0.00     0.000 HD 
BRANCH  11  14
HETATM   14  C   UNL     4     -10.905  14.236  64.941  1.00  0.00    -0.416 C  
HETATM   15  H   UNL     4     -11.993  15.626  64.102  1.00  0.00     0.000 HD 
HETATM   16  O   UNL     4     -11.334  15.617  64.786  1.00  0.00    -0.409 OA 
BRANCH  14  17
HETATM   17  C   UNL     4     -12.136  13.289  65.031  1.00  0.00    -0.408 C  
HETATM   18  C   UNL     4     -12.214  12.274  63.816  1.00  0.00    -0.546 C  
HETATM   19  H   UNL     4     -14.104  13.426  65.347  1.00  0.00     0.000 HD 
HETATM   20  O   UNL     4     -13.353  14.005  65.291  1.00  0.00    -0.741 OA 
HETATM   21  O   UNL     4     -11.053  11.826  63.431  1.00  0.00    -0.393 OA 
HETATM   22  O   UNL     4     -13.333  12.054  63.275  1.00  0.00    -0.524 OA 
ENDBRANCH  14  17
ENDBRANCH  11  14
ENDBRANCH   8  11
ENDBRANCH   3   8
BRANCH   7  23
HETATM   23  C   UNL     5     -11.566   7.132  71.164  1.00  0.00    -0.301 C  
HETATM   24  O   UNL     5     -10.850   6.874  72.373  1.00  0.00    -0.219 OA 
HETATM   25  H   UNL     5     -11.173   7.466  73.042  1.00  0.00     0.000 HD 
BRANCH  23  26
HETATM   26  C   UNL     5     -11.423   8.609  70.737  1.00  0.00    -0.259 C  
HETATM   27  O   UNL     5     -11.711   9.464  71.867  1.00  0.00    -0.374 OA 
HETATM   28  H   UNL     5     -11.623  10.373  71.604  1.00  0.00     0.000 HD 
BRANCH  26  29
HETATM   29  C   UNL     5     -10.096   9.045  70.056  1.00  0.00    -0.196 C  
HETATM   30  O   UNL     5      -9.251   9.803  70.921  1.00  0.00    -0.327 OA 
HETATM   31  H   UNL     5      -8.439  10.070  70.505  1.00  0.00     0.000 HD 
BRANCH  29  32
HETATM   32  C   UNL     5     -10.180   9.679  68.658  1.00  0.00    -0.189 C  
HETATM   33  C   UNL     5     -10.851  11.066  68.583  1.00  0.00    -0.215 C  
HETATM   34  O   UNL     5     -10.822   8.752  67.711  1.00  0.00    -0.466 OA 
HETATM   35  O   UNL     5     -10.681  11.844  69.568  1.00  0.00    -0.039 OA 
HETATM   36  O   UNL     5     -11.570  11.229  67.533  1.00  0.00    -0.508 OA 
HETATM   37  H   UNL     5     -10.874   9.143  66.847  1.00  0.00     0.000 HD 
ENDBRANCH  29  32
ENDBRANCH  26  29
ENDBRANCH  23  26
ENDBRANCH   7  23
TORSDOF 8
ENDMDL
MODEL       89
REMARK 921   NORMALIZED FREE ENERGY PREDICTED BY IDOCK:   -6.12 KCAL/MOL
REMARK 922        TOTAL FREE ENERGY PREDICTED BY IDOCK:  -11.22 KCAL/MOL
REMARK 923 INTER-LIGAND FREE ENERGY PREDICTED BY IDOCK:   -8.21 KCAL/MOL
REMARK 924 INTRA-LIGAND FREE ENERGY PREDICTED BY IDOCK:   -3.02 KCAL/MOL
REMARK 927      BINDING AFFINITY PREDICTED BY RF-SCORE:    0.00 PKD
ROOT
HETATM    1 MG   UNL     3     -10.307  14.191  70.152  1.00  0.00    -0.416 Mg 
HETATM    2  O   UNL     4     -10.943   8.556  67.631  1.00  0.00    -0.501 OA 
HETATM    3  C   UNL     4     -10.107   9.664  67.905  1.00  0.00    -0.181 C  
HETATM    4  H   UNL     4     -10.768   7.812  68.196  1.00  0.00     0.000 HD 
HETATM    5  O   UNL     5      -9.767  21.291  67.233  1.00  0.00    -0.590 OA 
HETATM    6  H   UNL     5     -10.622  21.690  67.122  1.00  0.00     0.000 HD 
HETATM    7  C   UNL     5      -9.722  19.975  66.681  1.00  0.00    -0.442 C  
ENDROOT
BRANCH   3   8
HETATM    8  C   UNL     4     -10.390  10.866  66.992  1.00  0.00    -0.231 C  
HETATM    9  O   UNL     4     -10.651  10.406  65.653  1.00  0.00    -0.157 OA 
HETATM   10  H   UNL     4     -10.826  11.150  65.088  1.00  0.00     0.000 HD 
BRANCH   8  11
HETATM   11  C   UNL     4     -11.553  11.832  67.362  1.00  0.00    -0.280 C  
HETATM   12  O   UNL     4     -11.551  12.216  68.733  1.00  0.00    -0.277 OA 
HETATM   13  H   UNL     4     -12.261  12.806  68.958  1.00  0.00     0.000 HD 
BRANCH  11  14
HETATM   14  C   UNL     4     -11.813  13.048  66.433  1.00  0.00    -0.405 C  
HETATM   15  H   UNL     4     -12.601  13.276  64.660  1.00  0.00     0.000 HD 
HETATM   16  O   UNL     4     -12.442  12.531  65.228  1.00  0.00    -0.608 OA 
BRANCH  14  17
HETATM   17  C   UNL     4     -10.651  14.016  66.071  1.00  0.00    -0.297 C  
HETATM   18  C   UNL     4     -10.708  15.372  66.891  1.00  0.00    -0.314 C  
HETATM   19  H   UNL     4      -9.795  14.772  64.430  1.00  0.00     0.000 HD 
HETATM   20  O   UNL     4     -10.506  14.181  64.652  1.00  0.00    -0.434 OA 
HETATM   21  O   UNL     4     -11.091  15.221  68.126  1.00  0.00    -0.282 OA 
HETATM   22  O   UNL     4     -10.478  16.458  66.291  1.00  0.00    -0.309 OA 
ENDBRANCH  14  17
ENDBRANCH  11  14
ENDBRANCH   8  11
ENDBRANCH   3   8
BRANCH   7  23
HETATM   23  C   UNL     5      -8.334  19.327  66.861  1.00  0.00    -0.283 C  
HETATM   24  O   UNL     5      -7.339  20.328  66.634  1.00  0.00    -0.262 OA 
HETATM   25  H   UNL     5      -6.485  19.929  66.744  1.00  0.00     0.000 HD 
BRANCH  23  26
HETATM   26  C   UNL     5      -8.176  18.693  68.260  1.00  0.00    -0.323 C  
HETATM   27  O   UNL     5      -9.424  18.075  68.649  1.00  0.00    -0.310 OA 
HETATM   28  H   UNL     5      -9.327  17.685  69.510  1.00  0.00     0.000 HD 
BRANCH  26  29
HETATM   29  C   UNL     5      -6.995  17.709  68.484  1.00  0.00    -0.231 C  
HETATM   30  O   UNL     5      -5.718  18.331  68.338  1.00  0.00    -0.168 OA 
HETATM   31  H   UNL     5      -4.996  17.730  68.475  1.00  0.00     0.000 HD 
BRANCH  29  32
HETATM   32  C   UNL     5      -7.042  16.353  67.763  1.00  0.00    -0.133 C  
HETATM   33  C   UNL     5      -7.412  15.135  68.635  1.00  0.00    -0.124 C  
HETATM   34  O   UNL     5      -5.776  16.103  67.053  1.00  0.00    -0.333 OA 
HETATM   35  O   UNL     5      -8.241  15.327  69.574  1.00  0.00    -0.234 OA 
HETATM   36  O   UNL     5      -6.762  14.072  68.331  1.00  0.00    -0.082 OA 
HETATM   37  H   UNL     5      -5.806  15.265  66.608  1.00  0.00     0.000 HD 
ENDBRANCH  29  32
ENDBRANCH  26  29
ENDBRANCH  23  26
ENDBRANCH   7  23
TORSDOF 8
ENDMDL
MODEL       90
REMARK 921   NORMALIZED FREE ENERGY PREDICTED BY IDOCK:   -6.12 KCAL/MOL
REMARK 922        TOTAL FREE ENERGY PREDICTED BY IDOCK:  -11.22 KCAL/MOL
REMARK 923 INTER-LIGAND FREE ENERGY PREDICTED BY IDOCK:   -9.14 KCAL/MOL
REMARK 924 INTRA-LIGAND FREE ENERGY PREDICTED BY IDOCK:   -2.08 KCAL/MOL
REMARK 927      BINDING AFFINITY PREDICTED BY RF-SCORE:    0.00 PKD
ROOT
HETATM    1 MG   UNL     3      -7.427  11.625  70.393  1.00  0.00    -0.324 Mg 
HETATM    2  O   UNL     4      -8.832  16.663  67.052  1.00  0.00    -0.187 OA 
HETATM    3  C   UNL     4      -9.009  15.922  68.244  1.00  0.00    -0.184 C  
HETATM    4  H   UNL     4      -8.274  17.423  67.168  1.00  0.00     0.000 HD 
HETATM    5  O   UNL     5     -11.228   5.160  72.119  1.00  0.00    -0.134 OA 
HETATM    6  H   UNL     5     -11.084   4.485  71.467  1.00  0.00     0.000 HD 
HETATM    7  C   UNL     5     -11.589   6.405  71.521  1.00  0.00    -0.310 C  
ENDROOT
BRANCH   3   8
HETATM    8  C   UNL     4      -9.911  14.694  68.057  1.00  0.00    -0.220 C  
HETATM    9  O   UNL     4      -9.902  13.898  69.257  1.00  0.00    -0.414 OA 
HETATM   10  H   UNL     4     -10.460  13.138  69.141  1.00  0.00     0.000 HD 
BRANCH   8  11
HETATM   11  C   UNL     4     -11.407  14.911  67.684  1.00  0.00    -0.337 C  
HETATM   12  O   UNL     4     -11.724  16.270  67.399  1.00  0.00     0.248 OA 
HETATM   13  H   UNL     4     -12.637  16.402  67.171  1.00  0.00     0.000 HD 
BRANCH  11  14
HETATM   14  C   UNL     4     -12.046  13.950  66.645  1.00  0.00    -0.448 C  
HETATM   15  H   UNL     4     -11.909  12.035  66.282  1.00  0.00     0.000 HD 
HETATM   16  O   UNL     4     -11.518  12.623  66.918  1.00  0.00    -0.303 OA 
BRANCH  14  17
HETATM   17  C   UNL     4     -11.956  14.272  65.126  1.00  0.00    -0.395 C  
HETATM   18  C   UNL     4     -12.444  13.069  64.217  1.00  0.00    -0.315 C  
HETATM   19  H   UNL     4     -10.623  15.014  63.835  1.00  0.00     0.000 HD 
HETATM   20  O   UNL     4     -10.678  14.817  64.762  1.00  0.00    -0.407 OA 
HETATM   21  O   UNL     4     -13.466  12.425  64.704  1.00  0.00    -0.671 OA 
HETATM   22  O   UNL     4     -11.781  12.777  63.184  1.00  0.00    -0.472 OA 
ENDBRANCH  14  17
ENDBRANCH  11  14
ENDBRANCH   8  11
ENDBRANCH   3   8
BRANCH   7  23
HETATM   23  C   UNL     5     -11.823   7.502  72.580  1.00  0.00    -0.221 C  
HETATM   24  O   UNL     5     -10.559   8.081  72.910  1.00  0.00    -0.339 OA 
HETATM   25  H   UNL     5     -10.703   8.757  73.562  1.00  0.00     0.000 HD 
BRANCH  23  26
HETATM   26  C   UNL     5     -12.814   8.575  72.081  1.00  0.00    -0.369 C  
HETATM   27  O   UNL     5     -13.719   8.927  73.152  1.00  0.00    -1.009 OA 
HETATM   28  H   UNL     5     -14.329   9.588  72.845  1.00  0.00     0.000 HD 
BRANCH  26  29
HETATM   29  C   UNL     5     -12.229   9.858  71.428  1.00  0.00    -0.408 C  
HETATM   30  O   UNL     5     -13.072  10.999  71.590  1.00  0.00    -0.446 OA 
HETATM   31  H   UNL     5     -12.714  11.783  71.191  1.00  0.00     0.000 HD 
BRANCH  29  32
HETATM   32  C   UNL     5     -11.699   9.755  69.989  1.00  0.00    -0.074 C  
HETATM   33  C   UNL     5     -10.193  10.038  69.800  1.00  0.00    -0.250 C  
HETATM   34  O   UNL     5     -12.491  10.605  69.086  1.00  0.00    -0.752 OA 
HETATM   35  O   UNL     5      -9.417   9.683  70.737  1.00  0.00    -0.219 OA 
HETATM   36  O   UNL     5      -9.925  10.675  68.720  1.00  0.00    -0.176 OA 
HETATM   37  H   UNL     5     -12.164  10.541  68.197  1.00  0.00     0.000 HD 
ENDBRANCH  29  32
ENDBRANCH  26  29
ENDBRANCH  23  26
ENDBRANCH   7  23
TORSDOF 8
ENDMDL
MODEL       91
REMARK 921   NORMALIZED FREE ENERGY PREDICTED BY IDOCK:   -6.11 KCAL/MOL
REMARK 922        TOTAL FREE ENERGY PREDICTED BY IDOCK:  -11.22 KCAL/MOL
REMARK 923 INTER-LIGAND FREE ENERGY PREDICTED BY IDOCK:   -8.90 KCAL/MOL
REMARK 924 INTRA-LIGAND FREE ENERGY PREDICTED BY IDOCK:   -2.32 KCAL/MOL
REMARK 927      BINDING AFFINITY PREDICTED BY RF-SCORE:    0.00 PKD
ROOT
HETATM    1 MG   UNL     3      -7.272  13.794  66.653  1.00  0.00    -0.338 Mg 
HETATM    2  O   UNL     4     -11.808  11.378  63.174  1.00  0.00    -0.887 OA 
HETATM    3  C   UNL     4     -10.755  12.315  63.297  1.00  0.00    -0.284 C  
HETATM    4  H   UNL     4     -11.580  10.633  62.629  1.00  0.00     0.000 HD 
HETATM    5  O   UNL     5      -6.469  20.415  70.491  1.00  0.00    -0.458 OA 
HETATM    6  H   UNL     5      -6.799  20.347  71.379  1.00  0.00     0.000 HD 
HETATM    7  C   UNL     5      -7.408  19.918  69.538  1.00  0.00    -0.042 C  
ENDROOT
BRANCH   3   8
HETATM    8  C   UNL     4     -11.125  13.517  64.177  1.00  0.00    -0.278 C  
HETATM    9  O   UNL     4     -12.124  14.314  63.514  1.00  0.00    -0.904 OA 
HETATM   10  H   UNL     4     -12.352  15.059  64.059  1.00  0.00     0.000 HD 
BRANCH   8  11
HETATM   11  C   UNL     4     -11.653  13.258  65.619  1.00  0.00    -0.335 C  
HETATM   12  O   UNL     4     -12.904  12.581  65.646  1.00  0.00    -0.392 OA 
HETATM   13  H   UNL     4     -13.226  12.422  66.526  1.00  0.00     0.000 HD 
BRANCH  11  14
HETATM   14  C   UNL     4     -10.665  12.666  66.660  1.00  0.00    -0.253 C  
HETATM   15  H   UNL     4      -8.806  13.021  67.143  1.00  0.00     0.000 HD 
HETATM   16  O   UNL     4      -9.410  13.383  66.506  1.00  0.00    -0.256 OA 
BRANCH  14  17
HETATM   17  C   UNL     4     -10.415  11.132  66.715  1.00  0.00    -0.252 C  
HETATM   18  C   UNL     4     -11.040  10.457  68.005  1.00  0.00    -0.298 C  
HETATM   19  H   UNL     4      -8.887   9.861  66.505  1.00  0.00     0.000 HD 
HETATM   20  O   UNL     4      -9.040  10.798  66.472  1.00  0.00    -0.159 OA 
HETATM   21  O   UNL     4     -12.190  10.959  68.354  1.00  0.00    -0.540 OA 
HETATM   22  O   UNL     4     -10.369   9.588  68.626  1.00  0.00    -0.192 OA 
ENDBRANCH  14  17
ENDBRANCH  11  14
ENDBRANCH   8  11
ENDBRANCH   3   8
BRANCH   7  23
HETATM   23  C   UNL     5      -6.872  20.028  68.097  1.00  0.00    -0.294 C  
HETATM   24  O   UNL     5      -5.837  21.013  68.077  1.00  0.00    -0.293 OA 
HETATM   25  H   UNL     5      -5.507  21.081  67.190  1.00  0.00     0.000 HD 
BRANCH  23  26
HETATM   26  C   UNL     5      -6.357  18.669  67.574  1.00  0.00    -0.195 C  
HETATM   27  O   UNL     5      -6.597  17.650  68.570  1.00  0.00    -0.189 OA 
HETATM   28  H   UNL     5      -6.280  16.814  68.248  1.00  0.00     0.000 HD 
BRANCH  26  29
HETATM   29  C   UNL     5      -6.855  18.189  66.182  1.00  0.00    -0.263 C  
HETATM   30  O   UNL     5      -7.063  19.263  65.265  1.00  0.00    -0.446 OA 
HETATM   31  H   UNL     5      -7.368  18.970  64.414  1.00  0.00     0.000 HD 
BRANCH  29  32
HETATM   32  C   UNL     5      -8.019  17.186  66.142  1.00  0.00    -0.262 C  
HETATM   33  C   UNL     5      -9.374  17.700  66.670  1.00  0.00    -0.278 C  
HETATM   34  O   UNL     5      -7.647  15.939  66.830  1.00  0.00    -0.220 OA 
HETATM   35  O   UNL     5      -9.647  18.921  66.468  1.00  0.00    -0.322 OA 
HETATM   36  O   UNL     5     -10.036  16.817  67.324  1.00  0.00    -0.267 OA 
HETATM   37  H   UNL     5      -8.365  15.319  66.806  1.00  0.00     0.000 HD 
ENDBRANCH  29  32
ENDBRANCH  26  29
ENDBRANCH  23  26
ENDBRANCH   7  23
TORSDOF 8
ENDMDL
MODEL       92
REMARK 921   NORMALIZED FREE ENERGY PREDICTED BY IDOCK:   -6.10 KCAL/MOL
REMARK 922        TOTAL FREE ENERGY PREDICTED BY IDOCK:  -11.19 KCAL/MOL
REMARK 923 INTER-LIGAND FREE ENERGY PREDICTED BY IDOCK:   -8.82 KCAL/MOL
REMARK 924 INTRA-LIGAND FREE ENERGY PREDICTED BY IDOCK:   -2.37 KCAL/MOL
REMARK 927      BINDING AFFINITY PREDICTED BY RF-SCORE:    0.00 PKD
ROOT
HETATM    1 MG   UNL     3     -10.761  10.659  65.511  1.00  0.00    -0.256 Mg 
HETATM    2  O   UNL     4     -10.329   4.928  67.853  1.00  0.00    -0.091 OA 
HETATM    3  C   UNL     4     -10.988   6.179  67.850  1.00  0.00    -0.304 C  
HETATM    4  H   UNL     4     -10.825   4.247  67.414  1.00  0.00     0.000 HD 
HETATM    5  O   UNL     5      -8.921  17.641  68.169  1.00  0.00    -0.254 OA 
HETATM    6  H   UNL     5      -8.024  17.872  67.957  1.00  0.00     0.000 HD 
HETATM    7  C   UNL     5      -9.010  16.341  68.750  1.00  0.00    -0.243 C  
ENDROOT
BRANCH   3   8
HETATM    8  C   UNL     4     -10.186   7.280  68.560  1.00  0.00    -0.181 C  
HETATM    9  O   UNL     4     -10.662   8.573  68.142  1.00  0.00    -0.404 OA 
HETATM   10  H   UNL     4     -10.165   9.253  68.581  1.00  0.00     0.000 HD 
BRANCH   8  11
HETATM   11  C   UNL     4     -10.158   7.302  70.117  1.00  0.00    -0.189 C  
HETATM   12  O   UNL     4      -8.977   6.727  70.667  1.00  0.00    -0.150 OA 
HETATM   13  H   UNL     4      -8.961   6.741  71.616  1.00  0.00     0.000 HD 
BRANCH  11  14
HETATM   14  C   UNL     4     -10.529   8.629  70.833  1.00  0.00    -0.214 C  
HETATM   15  H   UNL     4      -9.804   9.614  72.356  1.00  0.00     0.000 HD 
HETATM   16  O   UNL     4      -9.577   8.802  71.918  1.00  0.00    -0.277 OA 
BRANCH  14  17
HETATM   17  C   UNL     4     -11.982   8.863  71.337  1.00  0.00    -0.311 C  
HETATM   18  C   UNL     4     -12.552  10.281  70.918  1.00  0.00    -0.371 C  
HETATM   19  H   UNL     4     -13.015   8.690  73.039  1.00  0.00     0.000 HD 
HETATM   20  O   UNL     4     -12.128   8.547  72.731  1.00  0.00    -0.337 OA 
HETATM   21  O   UNL     4     -12.190  10.660  69.726  1.00  0.00    -0.305 OA 
HETATM   22  O   UNL     4     -13.207  10.950  71.764  1.00  0.00    -0.444 OA 
ENDBRANCH  14  17
ENDBRANCH  11  14
ENDBRANCH   8  11
ENDBRANCH   3   8
BRANCH   7  23
HETATM   23  C   UNL     5     -10.466  15.967  69.094  1.00  0.00    -0.251 C  
HETATM   24  O   UNL     5     -11.068  17.077  69.763  1.00  0.00    -0.354 OA 
HETATM   25  H   UNL     5     -11.965  16.847  69.974  1.00  0.00     0.000 HD 
BRANCH  23  26
HETATM   26  C   UNL     5     -11.268  15.576  67.833  1.00  0.00    -0.325 C  
HETATM   27  O   UNL     5     -10.423  15.706  66.668  1.00  0.00    -0.290 OA 
HETATM   28  H   UNL     5     -10.916  15.465  65.892  1.00  0.00     0.000 HD 
BRANCH  26  29
HETATM   29  C   UNL     5     -11.986  14.197  67.826  1.00  0.00    -0.354 C  
HETATM   30  O   UNL     5     -11.933  13.537  69.090  1.00  0.00    -0.322 OA 
HETATM   31  H   UNL     5     -12.371  12.694  69.086  1.00  0.00     0.000 HD 
BRANCH  29  32
HETATM   32  C   UNL     5     -11.671  13.229  66.675  1.00  0.00    -0.377 C  
HETATM   33  C   UNL     5     -12.509  13.409  65.392  1.00  0.00    -0.494 C  
HETATM   34  O   UNL     5     -11.749  11.834  67.140  1.00  0.00    -0.547 OA 
HETATM   35  O   UNL     5     -12.851  14.590  65.086  1.00  0.00    -0.519 OA 
HETATM   36  O   UNL     5     -12.817  12.301  64.823  1.00  0.00    -0.661 OA 
HETATM   37  H   UNL     5     -11.555  11.236  66.429  1.00  0.00     0.000 HD 
ENDBRANCH  29  32
ENDBRANCH  26  29
ENDBRANCH  23  26
ENDBRANCH   7  23
TORSDOF 8
ENDMDL
MODEL       93
REMARK 921   NORMALIZED FREE ENERGY PREDICTED BY IDOCK:   -6.09 KCAL/MOL
REMARK 922        TOTAL FREE ENERGY PREDICTED BY IDOCK:  -11.19 KCAL/MOL
REMARK 923 INTER-LIGAND FREE ENERGY PREDICTED BY IDOCK:   -8.40 KCAL/MOL
REMARK 924 INTRA-LIGAND FREE ENERGY PREDICTED BY IDOCK:   -2.79 KCAL/MOL
REMARK 927      BINDING AFFINITY PREDICTED BY RF-SCORE:    0.00 PKD
ROOT
HETATM    1 MG   UNL     3     -13.824  15.315  70.296  1.00  0.00    -0.589 Mg 
HETATM    2  O   UNL     4     -13.343   9.177  71.074  1.00  0.00    -0.547 OA 
HETATM    3  C   UNL     4     -12.824  10.467  71.335  1.00  0.00    -0.452 C  
HETATM    4  H   UNL     4     -13.798   8.803  71.820  1.00  0.00     0.000 HD 
HETATM    5  O   UNL     5      -9.976  20.454  66.054  1.00  0.00    -0.603 OA 
HETATM    6  H   UNL     5     -10.354  20.547  65.188  1.00  0.00     0.000 HD 
HETATM    7  C   UNL     5      -9.769  19.084  66.398  1.00  0.00    -0.367 C  
ENDROOT
BRANCH   3   8
HETATM    8  C   UNL     4     -12.090  11.071  70.130  1.00  0.00    -0.356 C  
HETATM    9  O   UNL     4     -11.889  12.481  70.342  1.00  0.00    -0.516 OA 
HETATM   10  H   UNL     4     -11.434  12.855  69.596  1.00  0.00     0.000 HD 
BRANCH   8  11
HETATM   11  C   UNL     4     -10.706  10.485  69.723  1.00  0.00    -0.264 C  
HETATM   12  O   UNL     4     -10.698   9.064  69.645  1.00  0.00    -0.229 OA 
HETATM   13  H   UNL     4      -9.854   8.706  69.397  1.00  0.00     0.000 HD 
BRANCH  11  14
HETATM   14  C   UNL     4      -9.971  11.123  68.514  1.00  0.00    -0.199 C  
HETATM   15  H   UNL     4      -9.075  12.831  68.199  1.00  0.00     0.000 HD 
HETATM   16  O   UNL     4      -9.524  12.440  68.939  1.00  0.00     0.037 OA 
BRANCH  14  17
HETATM   17  C   UNL     4     -10.674  11.206  67.129  1.00  0.00    -0.259 C  
HETATM   18  C   UNL     4      -9.649  11.382  65.933  1.00  0.00    -0.227 C  
HETATM   19  H   UNL     4     -12.191  12.195  66.283  1.00  0.00     0.000 HD 
HETATM   20  O   UNL     4     -11.761  12.145  67.128  1.00  0.00    -0.465 OA 
HETATM   21  O   UNL     4      -8.548  10.703  66.084  1.00  0.00    -0.148 OA 
HETATM   22  O   UNL     4      -9.921  12.199  65.011  1.00  0.00    -0.260 OA 
ENDBRANCH  14  17
ENDBRANCH  11  14
ENDBRANCH   8  11
ENDBRANCH   3   8
BRANCH   7  23
HETATM   23  C   UNL     5      -9.155  18.934  67.804  1.00  0.00    -0.290 C  
HETATM   24  O   UNL     5     -10.219  18.915  68.758  1.00  0.00    -0.428 OA 
HETATM   25  H   UNL     5      -9.840  18.822  69.624  1.00  0.00     0.000 HD 
BRANCH  23  26
HETATM   26  C   UNL     5      -8.286  17.662  67.914  1.00  0.00    -0.235 C  
HETATM   27  O   UNL     5      -7.062  17.977  68.616  1.00  0.00    -0.248 OA 
HETATM   28  H   UNL     5      -6.527  17.195  68.684  1.00  0.00     0.000 HD 
BRANCH  26  29
HETATM   29  C   UNL     5      -8.938  16.386  68.517  1.00  0.00    -0.224 C  
HETATM   30  O   UNL     5      -8.013  15.310  68.672  1.00  0.00    -0.133 OA 
HETATM   31  H   UNL     5      -8.411  14.530  69.040  1.00  0.00     0.000 HD 
BRANCH  29  32
HETATM   32  C   UNL     5     -10.264  15.900  67.909  1.00  0.00    -0.251 C  
HETATM   33  C   UNL     5     -11.413  15.648  68.907  1.00  0.00    -0.361 C  
HETATM   34  O   UNL     5     -10.042  14.706  67.078  1.00  0.00    -0.245 OA 
HETATM   35  O   UNL     5     -11.477  16.407  69.919  1.00  0.00    -0.252 OA 
HETATM   36  O   UNL     5     -12.133  14.629  68.609  1.00  0.00    -0.285 OA 
HETATM   37  H   UNL     5     -10.861  14.406  66.702  1.00  0.00     0.000 HD 
ENDBRANCH  29  32
ENDBRANCH  26  29
ENDBRANCH  23  26
ENDBRANCH   7  23
TORSDOF 8
ENDMDL
MODEL       94
REMARK 921   NORMALIZED FREE ENERGY PREDICTED BY IDOCK:   -6.09 KCAL/MOL
REMARK 922        TOTAL FREE ENERGY PREDICTED BY IDOCK:  -11.18 KCAL/MOL
REMARK 923 INTER-LIGAND FREE ENERGY PREDICTED BY IDOCK:   -8.87 KCAL/MOL
REMARK 924 INTRA-LIGAND FREE ENERGY PREDICTED BY IDOCK:   -2.31 KCAL/MOL
REMARK 927      BINDING AFFINITY PREDICTED BY RF-SCORE:    0.00 PKD
ROOT
HETATM    1 MG   UNL     3     -12.493  10.270  68.209  1.00  0.00    -0.446 Mg 
HETATM    2  O   UNL     4     -12.315  13.408  62.857  1.00  0.00    -0.869 OA 
HETATM    3  C   UNL     4     -12.563  12.188  63.529  1.00  0.00    -0.506 C  
HETATM    4  H   UNL     4     -13.111  13.856  62.597  1.00  0.00     0.000 HD 
HETATM    5  O   UNL     5      -7.953   4.940  71.401  1.00  0.00    -0.099 OA 
HETATM    6  H   UNL     5      -7.263   5.334  71.922  1.00  0.00     0.000 HD 
HETATM    7  C   UNL     5      -8.043   5.533  70.106  1.00  0.00    -0.098 C  
ENDROOT
BRANCH   3   8
HETATM    8  C   UNL     4     -11.276  11.464  63.950  1.00  0.00    -0.280 C  
HETATM    9  O   UNL     4     -10.614  10.937  62.785  1.00  0.00    -0.780 OA 
HETATM   10  H   UNL     4      -9.817  10.489  63.046  1.00  0.00     0.000 HD 
BRANCH   8  11
HETATM   11  C   UNL     4     -10.199  12.253  64.750  1.00  0.00    -0.282 C  
HETATM   12  O   UNL     4      -9.814  13.473  64.124  1.00  0.00    -0.727 OA 
HETATM   13  H   UNL     4      -9.157  13.954  64.613  1.00  0.00     0.000 HD 
BRANCH  11  14
HETATM   14  C   UNL     4     -10.419  12.444  66.275  1.00  0.00    -0.245 C  
HETATM   15  H   UNL     4     -11.251  11.377  67.685  1.00  0.00     0.000 HD 
HETATM   16  O   UNL     4     -11.116  11.261  66.752  1.00  0.00    -0.285 OA 
BRANCH  14  17
HETATM   17  C   UNL     4     -11.104  13.735  66.809  1.00  0.00    -0.308 C  
HETATM   18  C   UNL     4     -10.716  14.054  68.312  1.00  0.00    -0.254 C  
HETATM   19  H   UNL     4     -12.933  14.538  66.865  1.00  0.00     0.000 HD 
HETATM   20  O   UNL     4     -12.515  13.750  66.539  1.00  0.00    -0.404 OA 
HETATM   21  O   UNL     4      -9.473  13.790  68.600  1.00  0.00    -0.189 OA 
HETATM   22  O   UNL     4     -11.618  14.436  69.107  1.00  0.00    -0.269 OA 
ENDBRANCH  14  17
ENDBRANCH  11  14
ENDBRANCH   8  11
ENDBRANCH   3   8
BRANCH   7  23
HETATM   23  C   UNL     5      -9.163   4.894  69.261  1.00  0.00    -0.110 C  
HETATM   24  O   UNL     5      -8.997   3.475  69.296  1.00  0.00    -0.094 OA 
HETATM   25  H   UNL     5      -9.687   3.081  68.775  1.00  0.00     0.000 HD 
BRANCH  23  26
HETATM   26  C   UNL     5     -10.564   5.302  69.766  1.00  0.00    -0.213 C  
HETATM   27  O   UNL     5     -10.519   5.497  71.198  1.00  0.00    -0.223 OA 
HETATM   28  H   UNL     5     -11.381   5.748  71.510  1.00  0.00     0.000 HD 
BRANCH  26  29
HETATM   29  C   UNL     5     -11.261   6.511  69.081  1.00  0.00    -0.303 C  
HETATM   30  O   UNL     5     -11.444   6.324  67.678  1.00  0.00    -0.609 OA 
HETATM   31  H   UNL     5     -11.870   7.063  67.259  1.00  0.00     0.000 HD 
BRANCH  29  32
HETATM   32  C   UNL     5     -10.730   7.919  69.394  1.00  0.00    -0.168 C  
HETATM   33  C   UNL     5     -11.453   8.678  70.527  1.00  0.00    -0.188 C  
HETATM   34  O   UNL     5     -10.698   8.740  68.173  1.00  0.00    -0.399 OA 
HETATM   35  O   UNL     5     -11.891   7.990  71.496  1.00  0.00    -0.275 OA 
HETATM   36  O   UNL     5     -11.579   9.934  70.300  1.00  0.00    -0.254 OA 
HETATM   37  H   UNL     5     -10.371   9.610  68.366  1.00  0.00     0.000 HD 
ENDBRANCH  29  32
ENDBRANCH  26  29
ENDBRANCH  23  26
ENDBRANCH   7  23
TORSDOF 8
ENDMDL
MODEL       95
REMARK 921   NORMALIZED FREE ENERGY PREDICTED BY IDOCK:   -6.08 KCAL/MOL
REMARK 922        TOTAL FREE ENERGY PREDICTED BY IDOCK:  -11.17 KCAL/MOL
REMARK 923 INTER-LIGAND FREE ENERGY PREDICTED BY IDOCK:   -8.56 KCAL/MOL
REMARK 924 INTRA-LIGAND FREE ENERGY PREDICTED BY IDOCK:   -2.62 KCAL/MOL
REMARK 927      BINDING AFFINITY PREDICTED BY RF-SCORE:    0.00 PKD
ROOT
HETATM    1 MG   UNL     3     -10.938  10.567  65.741  1.00  0.00    -0.230 Mg 
HETATM    2  O   UNL     4     -11.574  16.408  63.742  1.00  0.00    -1.605 OA 
HETATM    3  C   UNL     4     -10.973  15.506  64.652  1.00  0.00    -0.322 C  
HETATM    4  H   UNL     4     -10.980  16.693  63.057  1.00  0.00     0.000 HD 
HETATM    5  O   UNL     5     -13.495   6.753  71.916  1.00  0.00    -0.473 OA 
HETATM    6  H   UNL     5     -14.346   6.362  71.759  1.00  0.00     0.000 HD 
HETATM    7  C   UNL     5     -13.463   8.127  71.530  1.00  0.00    -0.286 C  
ENDROOT
BRANCH   3   8
HETATM    8  C   UNL     4     -11.932  15.046  65.759  1.00  0.00     0.051 C  
HETATM    9  O   UNL     4     -12.875  14.100  65.220  1.00  0.00    -0.670 OA 
HETATM   10  H   UNL     4     -13.468  13.815  65.905  1.00  0.00     0.000 HD 
BRANCH   8  11
HETATM   11  C   UNL     4     -11.339  14.395  67.042  1.00  0.00    -0.346 C  
HETATM   12  O   UNL     4     -12.306  13.693  67.816  1.00  0.00    -0.364 OA 
HETATM   13  H   UNL     4     -11.944  13.296  68.599  1.00  0.00     0.000 HD 
BRANCH  11  14
HETATM   14  C   UNL     4     -10.024  13.580  66.905  1.00  0.00    -0.256 C  
HETATM   15  H   UNL     4      -9.348  12.274  65.619  1.00  0.00     0.000 HD 
HETATM   16  O   UNL     4     -10.152  12.772  65.703  1.00  0.00    -0.274 OA 
BRANCH  14  17
HETATM   17  C   UNL     4      -9.514  12.716  68.094  1.00  0.00    -0.218 C  
HETATM   18  C   UNL     4      -7.933  12.659  68.173  1.00  0.00    -0.158 C  
HETATM   19  H   UNL     4      -9.851  10.906  68.874  1.00  0.00     0.000 HD 
HETATM   20  O   UNL     4     -10.162  11.435  68.148  1.00  0.00    -0.176 OA 
HETATM   21  O   UNL     4      -7.353  13.785  67.870  1.00  0.00    -0.117 OA 
HETATM   22  O   UNL     4      -7.373  11.556  68.423  1.00  0.00    -0.084 OA 
ENDBRANCH  14  17
ENDBRANCH  11  14
ENDBRANCH   8  11
ENDBRANCH   3   8
BRANCH   7  23
HETATM   23  C   UNL     5     -12.081   8.761  71.785  1.00  0.00    -0.350 C  
HETATM   24  O   UNL     5     -11.264   7.800  72.456  1.00  0.00    -0.307 OA 
HETATM   25  H   UNL     5     -10.413   8.190  72.613  1.00  0.00     0.000 HD 
BRANCH  23  26
HETATM   26  C   UNL     5     -11.420   9.236  70.473  1.00  0.00    -0.248 C  
HETATM   27  O   UNL     5     -11.126  10.649  70.569  1.00  0.00    -0.422 OA 
HETATM   28  H   UNL     5     -10.719  10.941  69.762  1.00  0.00     0.000 HD 
BRANCH  26  29
HETATM   29  C   UNL     5     -10.172   8.460  69.965  1.00  0.00    -0.202 C  
HETATM   30  O   UNL     5      -9.164   9.318  69.431  1.00  0.00    -0.149 OA 
HETATM   31  H   UNL     5      -8.402   8.843  69.120  1.00  0.00     0.000 HD 
BRANCH  29  32
HETATM   32  C   UNL     5     -10.405   7.239  69.061  1.00  0.00    -0.205 C  
HETATM   33  C   UNL     5     -10.634   7.538  67.565  1.00  0.00    -0.261 C  
HETATM   34  O   UNL     5     -11.503   6.411  69.587  1.00  0.00    -0.475 OA 
HETATM   35  O   UNL     5     -10.007   8.521  67.070  1.00  0.00    -0.200 OA 
HETATM   36  O   UNL     5     -11.507   6.773  67.019  1.00  0.00    -0.209 OA 
HETATM   37  H   UNL     5     -11.647   5.657  69.029  1.00  0.00     0.000 HD 
ENDBRANCH  29  32
ENDBRANCH  26  29
ENDBRANCH  23  26
ENDBRANCH   7  23
TORSDOF 8
ENDMDL
MODEL       96
REMARK 921   NORMALIZED FREE ENERGY PREDICTED BY IDOCK:   -6.07 KCAL/MOL
REMARK 922        TOTAL FREE ENERGY PREDICTED BY IDOCK:  -11.15 KCAL/MOL
REMARK 923 INTER-LIGAND FREE ENERGY PREDICTED BY IDOCK:   -8.13 KCAL/MOL
REMARK 924 INTRA-LIGAND FREE ENERGY PREDICTED BY IDOCK:   -3.02 KCAL/MOL
REMARK 927      BINDING AFFINITY PREDICTED BY RF-SCORE:    0.00 PKD
ROOT
HETATM    1 MG   UNL     3     -10.996  14.598  69.152  1.00  0.00    -0.206 Mg 
HETATM    2  O   UNL     4     -13.354  12.168  63.950  1.00  0.00    -0.711 OA 
HETATM    3  C   UNL     4     -12.234  12.342  64.796  1.00  0.00    -0.423 C  
HETATM    4  H   UNL     4     -13.738  11.301  64.018  1.00  0.00     0.000 HD 
HETATM    5  O   UNL     5      -6.300  20.518  70.601  1.00  0.00    -0.510 OA 
HETATM    6  H   UNL     5      -6.782  21.328  70.716  1.00  0.00     0.000 HD 
HETATM    7  C   UNL     5      -6.702  19.825  69.420  1.00  0.00    -0.347 C  
ENDROOT
BRANCH   3   8
HETATM    8  C   UNL     4     -11.613  13.743  64.687  1.00  0.00    -0.378 C  
HETATM    9  O   UNL     4     -12.648  14.739  64.784  1.00  0.00    -0.452 OA 
HETATM   10  H   UNL     4     -12.264  15.606  64.716  1.00  0.00     0.000 HD 
BRANCH   8  11
HETATM   11  C   UNL     4     -10.507  14.155  65.701  1.00  0.00    -0.321 C  
HETATM   12  O   UNL     4     -10.884  15.248  66.532  1.00  0.00    -0.310 OA 
HETATM   13  H   UNL     4     -10.208  15.498  67.151  1.00  0.00     0.000 HD 
BRANCH  11  14
HETATM   14  C   UNL     4      -9.816  13.032  66.521  1.00  0.00    -0.263 C  
HETATM   15  H   UNL     4     -10.196  12.140  68.217  1.00  0.00     0.000 HD 
HETATM   16  O   UNL     4     -10.619  12.827  67.715  1.00  0.00    -0.215 OA 
BRANCH  14  17
HETATM   17  C   UNL     4      -8.309  13.149  66.889  1.00  0.00    -0.008 C  
HETATM   18  C   UNL     4      -7.755  11.854  67.615  1.00  0.00    -0.141 C  
HETATM   19  H   UNL     4      -7.090  14.457  67.783  1.00  0.00     0.000 HD 
HETATM   20  O   UNL     4      -8.010  14.384  67.559  1.00  0.00    -0.164 OA 
HETATM   21  O   UNL     4      -8.243  10.742  67.146  1.00  0.00    -0.120 OA 
HETATM   22  O   UNL     4      -6.990  11.991  68.609  1.00  0.00    -0.083 OA 
ENDBRANCH  14  17
ENDBRANCH  11  14
ENDBRANCH   8  11
ENDBRANCH   3   8
BRANCH   7  23
HETATM   23  C   UNL     5      -5.918  18.510  69.233  1.00  0.00    -0.239 C  
HETATM   24  O   UNL     5      -5.630  17.974  70.526  1.00  0.00    -0.246 OA 
HETATM   25  H   UNL     5      -5.147  17.164  70.411  1.00  0.00     0.000 HD 
BRANCH  23  26
HETATM   26  C   UNL     5      -6.702  17.496  68.372  1.00  0.00    -0.193 C  
HETATM   27  O   UNL     5      -6.491  16.163  68.891  1.00  0.00    -0.121 OA 
HETATM   28  H   UNL     5      -6.973  15.539  68.361  1.00  0.00     0.000 HD 
BRANCH  26  29
HETATM   29  C   UNL     5      -8.218  17.752  68.145  1.00  0.00    -0.260 C  
HETATM   30  O   UNL     5      -9.047  16.794  68.801  1.00  0.00    -0.251 OA 
HETATM   31  H   UNL     5      -9.974  16.950  68.662  1.00  0.00     0.000 HD 
BRANCH  29  32
HETATM   32  C   UNL     5      -8.695  18.015  66.707  1.00  0.00    -0.255 C  
HETATM   33  C   UNL     5     -10.153  18.496  66.556  1.00  0.00    -0.400 C  
HETATM   34  O   UNL     5      -8.461  16.832  65.863  1.00  0.00    -0.484 OA 
HETATM   35  O   UNL     5     -10.613  19.242  67.471  1.00  0.00    -0.434 OA 
HETATM   36  O   UNL     5     -10.748  18.008  65.530  1.00  0.00    -0.597 OA 
HETATM   37  H   UNL     5      -8.755  16.994  64.975  1.00  0.00     0.000 HD 
ENDBRANCH  29  32
ENDBRANCH  26  29
ENDBRANCH  23  26
ENDBRANCH   7  23
TORSDOF 8
ENDMDL
MODEL       97
REMARK 921   NORMALIZED FREE ENERGY PREDICTED BY IDOCK:   -6.07 KCAL/MOL
REMARK 922        TOTAL FREE ENERGY PREDICTED BY IDOCK:  -11.15 KCAL/MOL
REMARK 923 INTER-LIGAND FREE ENERGY PREDICTED BY IDOCK:   -9.31 KCAL/MOL
REMARK 924 INTRA-LIGAND FREE ENERGY PREDICTED BY IDOCK:   -1.84 KCAL/MOL
REMARK 927      BINDING AFFINITY PREDICTED BY RF-SCORE:    0.00 PKD
ROOT
HETATM    1 MG   UNL     3     -11.399  10.370  65.772  1.00  0.00    -0.034 Mg 
HETATM    2  O   UNL     4     -11.669  16.256  63.822  1.00  0.00    -1.511 OA 
HETATM    3  C   UNL     4     -11.136  15.313  64.733  1.00  0.00    -0.394 C  
HETATM    4  H   UNL     4     -11.048  16.513  63.151  1.00  0.00     0.000 HD 
HETATM    5  O   UNL     5     -14.279   6.649  71.861  1.00  0.00    -0.395 OA 
HETATM    6  H   UNL     5     -15.148   6.308  71.684  1.00  0.00     0.000 HD 
HETATM    7  C   UNL     5     -14.164   8.022  71.489  1.00  0.00    -0.413 C  
ENDROOT
BRANCH   3   8
HETATM    8  C   UNL     4     -12.140  14.897  65.818  1.00  0.00     0.004 C  
HETATM    9  O   UNL     4     -13.004  13.864  65.308  1.00  0.00    -0.747 OA 
HETATM   10  H   UNL     4     -13.625  13.607  65.980  1.00  0.00     0.000 HD 
BRANCH   8  11
HETATM   11  C   UNL     4     -11.598  14.384  67.184  1.00  0.00    -0.386 C  
HETATM   12  O   UNL     4     -12.520  14.554  68.256  1.00  0.00    -0.592 OA 
HETATM   13  H   UNL     4     -12.189  14.240  69.089  1.00  0.00     0.000 HD 
BRANCH  11  14
HETATM   14  C   UNL     4     -10.936  12.980  67.224  1.00  0.00    -0.264 C  
HETATM   15  H   UNL     4     -11.608  11.149  67.340  1.00  0.00     0.000 HD 
HETATM   16  O   UNL     4     -12.014  12.008  67.316  1.00  0.00    -0.591 OA 
BRANCH  14  17
HETATM   17  C   UNL     4      -9.829  12.669  68.272  1.00  0.00    -0.227 C  
HETATM   18  C   UNL     4      -8.394  13.155  67.806  1.00  0.00    -0.171 C  
HETATM   19  H   UNL     4      -9.205  11.118  69.367  1.00  0.00     0.000 HD 
HETATM   20  O   UNL     4      -9.881  11.308  68.727  1.00  0.00    -0.205 OA 
HETATM   21  O   UNL     4      -8.408  14.289  67.165  1.00  0.00    -0.201 OA 
HETATM   22  O   UNL     4      -7.401  12.401  67.999  1.00  0.00    -0.088 OA 
ENDBRANCH  14  17
ENDBRANCH  11  14
ENDBRANCH   8  11
ENDBRANCH   3   8
BRANCH   7  23
HETATM   23  C   UNL     5     -12.753   8.575  71.776  1.00  0.00    -0.349 C  
HETATM   24  O   UNL     5     -12.307   8.040  73.024  1.00  0.00    -0.657 OA 
HETATM   25  H   UNL     5     -11.439   8.381  73.200  1.00  0.00     0.000 HD 
BRANCH  23  26
HETATM   26  C   UNL     5     -11.765   8.235  70.639  1.00  0.00    -0.147 C  
HETATM   27  O   UNL     5     -11.631   9.377  69.763  1.00  0.00    -0.444 OA 
HETATM   28  H   UNL     5     -11.022   9.167  69.064  1.00  0.00     0.000 HD 
BRANCH  26  29
HETATM   29  C   UNL     5     -10.363   7.691  71.033  1.00  0.00    -0.202 C  
HETATM   30  O   UNL     5     -10.415   6.385  71.607  1.00  0.00    -0.210 OA 
HETATM   31  H   UNL     5      -9.558   6.053  71.848  1.00  0.00     0.000 HD 
BRANCH  29  32
HETATM   32  C   UNL     5      -9.431   8.617  71.831  1.00  0.00    -0.299 C  
HETATM   33  C   UNL     5      -8.032   8.855  71.224  1.00  0.00    -0.129 C  
HETATM   34  O   UNL     5      -9.308   8.149  73.221  1.00  0.00    -0.271 OA 
HETATM   35  O   UNL     5      -7.949   8.889  69.961  1.00  0.00    -0.094 OA 
HETATM   36  O   UNL     5      -7.099   8.920  72.102  1.00  0.00    -0.290 OA 
HETATM   37  H   UNL     5      -8.732   8.721  73.714  1.00  0.00     0.000 HD 
ENDBRANCH  29  32
ENDBRANCH  26  29
ENDBRANCH  23  26
ENDBRANCH   7  23
TORSDOF 8
ENDMDL
MODEL       98
REMARK 921   NORMALIZED FREE ENERGY PREDICTED BY IDOCK:   -6.06 KCAL/MOL
REMARK 922        TOTAL FREE ENERGY PREDICTED BY IDOCK:  -11.14 KCAL/MOL
REMARK 923 INTER-LIGAND FREE ENERGY PREDICTED BY IDOCK:   -9.86 KCAL/MOL
REMARK 924 INTRA-LIGAND FREE ENERGY PREDICTED BY IDOCK:   -1.28 KCAL/MOL
REMARK 927      BINDING AFFINITY PREDICTED BY RF-SCORE:    0.00 PKD
ROOT
HETATM    1 MG   UNL     3      -6.974  11.815  70.377  1.00  0.00    -0.327 Mg 
HETATM    2  O   UNL     4      -9.384  15.900  66.375  1.00  0.00    -0.246 OA 
HETATM    3  C   UNL     4      -9.399  15.334  67.671  1.00  0.00    -0.199 C  
HETATM    4  H   UNL     4      -8.987  16.763  66.352  1.00  0.00     0.000 HD 
HETATM    5  O   UNL     5      -9.397   5.083  73.210  1.00  0.00    -0.130 OA 
HETATM    6  H   UNL     5      -9.128   4.355  72.662  1.00  0.00     0.000 HD 
HETATM    7  C   UNL     5     -10.005   6.125  72.446  1.00  0.00    -0.169 C  
ENDROOT
BRANCH   3   8
HETATM    8  C   UNL     4     -10.041  13.939  67.707  1.00  0.00    -0.241 C  
HETATM    9  O   UNL     4      -9.684  13.274  68.934  1.00  0.00    -0.418 OA 
HETATM   10  H   UNL     4     -10.081  12.410  68.956  1.00  0.00     0.000 HD 
BRANCH   8  11
HETATM   11  C   UNL     4     -11.588  13.821  67.575  1.00  0.00    -0.354 C  
HETATM   12  O   UNL     4     -12.243  15.083  67.495  1.00  0.00    -0.429 OA 
HETATM   13  H   UNL     4     -13.187  15.010  67.414  1.00  0.00     0.000 HD 
BRANCH  11  14
HETATM   14  C   UNL     4     -12.156  12.820  66.534  1.00  0.00    -0.268 C  
HETATM   15  H   UNL     4     -12.376  10.879  66.476  1.00  0.00     0.000 HD 
HETATM   16  O   UNL     4     -12.029  11.492  67.113  1.00  0.00    -0.581 OA 
BRANCH  14  17
HETATM   17  C   UNL     4     -11.627  12.831  65.071  1.00  0.00    -0.337 C  
HETATM   18  C   UNL     4     -12.136  14.087  64.248  1.00  0.00    -0.445 C  
HETATM   19  H   UNL     4     -11.497  11.575  63.522  1.00  0.00     0.000 HD 
HETATM   20  O   UNL     4     -11.820  11.568  64.415  1.00  0.00    -0.153 OA 
HETATM   21  O   UNL     4     -12.190  15.184  64.948  1.00  0.00    -0.201 OA 
HETATM   22  O   UNL     4     -12.520  13.922  63.058  1.00  0.00    -0.689 OA 
ENDBRANCH  14  17
ENDBRANCH  11  14
ENDBRANCH   8  11
ENDBRANCH   3   8
BRANCH   7  23
HETATM   23  C   UNL     5     -10.441   7.306  73.336  1.00  0.00    -0.377 C  
HETATM   24  O   UNL     5      -9.309   7.739  74.093  1.00  0.00    -0.406 OA 
HETATM   25  H   UNL     5      -9.578   8.466  74.641  1.00  0.00     0.000 HD 
BRANCH  23  26
HETATM   26  C   UNL     5     -11.027   8.465  72.500  1.00  0.00    -0.318 C  
HETATM   27  O   UNL     5     -10.018   8.956  71.588  1.00  0.00    -0.282 OA 
HETATM   28  H   UNL     5     -10.379   9.669  71.074  1.00  0.00     0.000 HD 
BRANCH  26  29
HETATM   29  C   UNL     5     -12.360   8.213  71.742  1.00  0.00    -0.321 C  
HETATM   30  O   UNL     5     -12.162   7.816  70.385  1.00  0.00    -0.484 OA 
HETATM   31  H   UNL     5     -12.977   7.662  69.922  1.00  0.00     0.000 HD 
BRANCH  29  32
HETATM   32  C   UNL     5     -13.465   9.275  71.859  1.00  0.00    -0.430 C  
HETATM   33  C   UNL     5     -13.070  10.710  71.450  1.00  0.00    -0.400 C  
HETATM   34  O   UNL     5     -14.039   9.274  73.214  1.00  0.00    -1.018 OA 
HETATM   35  O   UNL     5     -12.239  10.832  70.502  1.00  0.00    -0.304 OA 
HETATM   36  O   UNL     5     -13.598  11.615  72.190  1.00  0.00    -0.332 OA 
HETATM   37  H   UNL     5     -14.721   9.930  73.287  1.00  0.00     0.000 HD 
ENDBRANCH  29  32
ENDBRANCH  26  29
ENDBRANCH  23  26
ENDBRANCH   7  23
TORSDOF 8
ENDMDL
MODEL       99
REMARK 921   NORMALIZED FREE ENERGY PREDICTED BY IDOCK:   -6.06 KCAL/MOL
REMARK 922        TOTAL FREE ENERGY PREDICTED BY IDOCK:  -11.14 KCAL/MOL
REMARK 923 INTER-LIGAND FREE ENERGY PREDICTED BY IDOCK:   -9.73 KCAL/MOL
REMARK 924 INTRA-LIGAND FREE ENERGY PREDICTED BY IDOCK:   -1.41 KCAL/MOL
REMARK 927      BINDING AFFINITY PREDICTED BY RF-SCORE:    0.00 PKD
ROOT
HETATM    1 MG   UNL     3      -6.248  13.826  69.113  1.00  0.00    -0.075 Mg 
HETATM    2  O   UNL     4      -7.713   7.972  70.563  1.00  0.00    -0.081 OA 
HETATM    3  C   UNL     4      -7.561   8.962  69.564  1.00  0.00    -0.080 C  
HETATM    4  H   UNL     4      -7.002   7.341  70.571  1.00  0.00     0.000 HD 
HETATM    5  O   UNL     5     -10.376  19.988  67.066  1.00  0.00    -0.428 OA 
HETATM    6  H   UNL     5     -10.656  20.490  67.822  1.00  0.00     0.000 HD 
HETATM    7  C   UNL     5     -10.660  18.598  67.217  1.00  0.00    -0.430 C  
ENDROOT
BRANCH   3   8
HETATM    8  C   UNL     4      -8.711   9.980  69.551  1.00  0.00    -0.192 C  
HETATM    9  O   UNL     4      -8.621  10.796  68.368  1.00  0.00    -0.128 OA 
HETATM   10  H   UNL     4      -9.332  11.427  68.360  1.00  0.00     0.000 HD 
BRANCH   8  11
HETATM   11  C   UNL     4     -10.176   9.458  69.616  1.00  0.00    -0.212 C  
HETATM   12  O   UNL     4     -10.358   8.210  68.956  1.00  0.00    -0.214 OA 
HETATM   13  H   UNL     4     -11.253   7.892  68.996  1.00  0.00     0.000 HD 
BRANCH  11  14
HETATM   14  C   UNL     4     -10.898   9.484  70.990  1.00  0.00    -0.353 C  
HETATM   15  H   UNL     4     -10.431   8.900  72.795  1.00  0.00     0.000 HD 
HETATM   16  O   UNL     4      -9.989   8.884  71.954  1.00  0.00    -0.322 OA 
BRANCH  14  17
HETATM   17  C   UNL     4     -12.324   8.879  71.134  1.00  0.00    -0.235 C  
HETATM   18  C   UNL     4     -13.261   9.743  72.075  1.00  0.00    -0.460 C  
HETATM   19  H   UNL     4     -13.159   7.108  71.536  1.00  0.00     0.000 HD 
HETATM   20  O   UNL     4     -12.288   7.478  71.448  1.00  0.00    -0.320 OA 
HETATM   21  O   UNL     4     -13.090  11.028  71.947  1.00  0.00    -0.486 OA 
HETATM   22  O   UNL     4     -14.004   9.152  72.906  1.00  0.00    -0.427 OA 
ENDBRANCH  14  17
ENDBRANCH  11  14
ENDBRANCH   8  11
ENDBRANCH   3   8
BRANCH   7  23
HETATM   23  C   UNL     5     -10.206  17.784  65.988  1.00  0.00    -0.293 C  
HETATM   24  O   UNL     5      -8.835  18.094  65.728  1.00  0.00    -0.462 OA 
HETATM   25  H   UNL     5      -8.555  17.593  64.972  1.00  0.00     0.000 HD 
BRANCH  23  26
HETATM   26  C   UNL     5     -10.403  16.268  66.203  1.00  0.00    -0.341 C  
HETATM   27  O   UNL     5     -11.146  16.049  67.424  1.00  0.00    -0.278 OA 
HETATM   28  H   UNL     5     -11.267  15.116  67.556  1.00  0.00     0.000 HD 
BRANCH  26  29
HETATM   29  C   UNL     5     -11.023  15.443  65.041  1.00  0.00    -0.436 C  
HETATM   30  O   UNL     5     -11.640  16.261  64.047  1.00  0.00    -1.366 OA 
HETATM   31  H   UNL     5     -12.019  15.757  63.336  1.00  0.00     0.000 HD 
BRANCH  29  32
HETATM   32  C   UNL     5     -11.908  14.240  65.405  1.00  0.00    -0.363 C  
HETATM   33  C   UNL     5     -12.001  13.123  64.345  1.00  0.00    -0.397 C  
HETATM   34  O   UNL     5     -13.256  14.691  65.787  1.00  0.00    -0.291 OA 
HETATM   35  O   UNL     5     -10.965  12.898  63.650  1.00  0.00    -0.401 OA 
HETATM   36  O   UNL     5     -13.168  12.599  64.255  1.00  0.00    -0.657 OA 
HETATM   37  H   UNL     5     -13.803  13.948  66.012  1.00  0.00     0.000 HD 
ENDBRANCH  29  32
ENDBRANCH  26  29
ENDBRANCH  23  26
ENDBRANCH   7  23
TORSDOF 8
ENDMDL
MODEL      100
REMARK 921   NORMALIZED FREE ENERGY PREDICTED BY IDOCK:   -6.06 KCAL/MOL
REMARK 922        TOTAL FREE ENERGY PREDICTED BY IDOCK:  -11.13 KCAL/MOL
REMARK 923 INTER-LIGAND FREE ENERGY PREDICTED BY IDOCK:   -8.67 KCAL/MOL
REMARK 924 INTRA-LIGAND FREE ENERGY PREDICTED BY IDOCK:   -2.47 KCAL/MOL
REMARK 927      BINDING AFFINITY PREDICTED BY RF-SCORE:    0.00 PKD
ROOT
HETATM    1 MG   UNL     3      -7.735  12.522  66.540  1.00  0.00    -0.268 Mg 
HETATM    2  O   UNL     4     -12.521  14.547  63.147  1.00  0.00    -0.885 OA 
HETATM    3  C   UNL     4     -11.930  14.396  64.423  1.00  0.00    -0.452 C  
HETATM    4  H   UNL     4     -12.466  15.436  62.816  1.00  0.00     0.000 HD 
HETATM    5  O   UNL     5      -6.720   6.523  71.251  1.00  0.00    -0.055 OA 
HETATM    6  H   UNL     5      -6.413   5.756  70.781  1.00  0.00     0.000 HD 
HETATM    7  C   UNL     5      -7.852   7.115  70.614  1.00  0.00    -0.096 C  
ENDROOT
BRANCH   3   8
HETATM    8  C   UNL     4     -12.019  12.959  64.958  1.00  0.00    -0.405 C  
HETATM    9  O   UNL     4     -12.564  12.098  63.941  1.00  0.00    -0.550 OA 
HETATM   10  H   UNL     4     -12.620  11.208  64.271  1.00  0.00     0.000 HD 
BRANCH   8  11
HETATM   11  C   UNL     4     -10.723  12.268  65.473  1.00  0.00    -0.279 C  
HETATM   12  O   UNL     4      -9.538  12.773  64.868  1.00  0.00    -0.489 OA 
HETATM   13  H   UNL     4      -8.747  12.352  65.183  1.00  0.00     0.000 HD 
BRANCH  11  14
HETATM   14  C   UNL     4     -10.549  12.098  67.006  1.00  0.00    -0.228 C  
HETATM   15  H   UNL     4      -9.508  10.897  68.143  1.00  0.00     0.000 HD 
HETATM   16  O   UNL     4      -9.614  11.002  67.205  1.00  0.00    -0.167 OA 
BRANCH  14  17
HETATM   17  C   UNL     4     -11.797  11.925  67.919  1.00  0.00    -0.238 C  
HETATM   18  C   UNL     4     -11.706  12.787  69.246  1.00  0.00    -0.319 C  
HETATM   19  H   UNL     4     -12.892  10.437  68.682  1.00  0.00     0.000 HD 
HETATM   20  O   UNL     4     -12.129  10.543  68.125  1.00  0.00    -0.279 OA 
HETATM   21  O   UNL     4     -11.161  13.957  69.074  1.00  0.00    -0.253 OA 
HETATM   22  O   UNL     4     -12.066  12.266  70.338  1.00  0.00    -0.355 OA 
ENDBRANCH  14  17
ENDBRANCH  11  14
ENDBRANCH   8  11
ENDBRANCH   3   8
BRANCH   7  23
HETATM   23  C   UNL     5      -8.350   8.359  71.377  1.00  0.00    -0.145 C  
HETATM   24  O   UNL     5      -7.255   9.267  71.519  1.00  0.00    -0.308 OA 
HETATM   25  H   UNL     5      -7.562  10.033  71.989  1.00  0.00     0.000 HD 
BRANCH  23  26
HETATM   26  C   UNL     5      -9.540   9.031  70.659  1.00  0.00    -0.237 C  
HETATM   27  O   UNL     5      -9.093   9.575  69.396  1.00  0.00    -0.148 OA 
HETATM   28  H   UNL     5      -9.825   9.988  68.954  1.00  0.00     0.000 HD 
BRANCH  26  29
HETATM   29  C   UNL     5     -10.834   8.194  70.456  1.00  0.00    -0.240 C  
HETATM   30  O   UNL     5     -11.151   7.984  69.080  1.00  0.00    -0.428 OA 
HETATM   31  H   UNL     5     -11.942   7.472  68.956  1.00  0.00     0.000 HD 
BRANCH  29  32
HETATM   32  C   UNL     5     -12.081   8.591  71.263  1.00  0.00    -0.286 C  
HETATM   33  C   UNL     5     -12.937   7.426  71.803  1.00  0.00    -0.325 C  
HETATM   34  O   UNL     5     -12.920   9.521  70.489  1.00  0.00    -0.523 OA 
HETATM   35  O   UNL     5     -12.325   6.373  72.152  1.00  0.00    -0.307 OA 
HETATM   36  O   UNL     5     -14.198   7.657  71.761  1.00  0.00    -0.401 OA 
HETATM   37  H   UNL     5     -13.690   9.767  70.988  1.00  0.00     0.000 HD 
ENDBRANCH  29  32
ENDBRANCH  26  29
ENDBRANCH  23  26
ENDBRANCH   7  23
TORSDOF 8
ENDMDL
MODEL      101
REMARK 921   NORMALIZED FREE ENERGY PREDICTED BY IDOCK:   -6.05 KCAL/MOL
REMARK 922        TOTAL FREE ENERGY PREDICTED BY IDOCK:  -11.13 KCAL/MOL
REMARK 923 INTER-LIGAND FREE ENERGY PREDICTED BY IDOCK:   -8.53 KCAL/MOL
REMARK 924 INTRA-LIGAND FREE ENERGY PREDICTED BY IDOCK:   -2.60 KCAL/MOL
REMARK 927      BINDING AFFINITY PREDICTED BY RF-SCORE:    0.00 PKD
ROOT
HETATM    1 MG   UNL     3      -9.304   4.291  69.115  1.00  0.00    -0.092 Mg 
HETATM    2  O   UNL     4      -9.248   2.617  63.139  1.00  0.00    -0.091 OA 
HETATM    3  C   UNL     4      -8.997   3.613  64.112  1.00  0.00    -0.116 C  
HETATM    4  H   UNL     4      -8.455   2.205  62.817  1.00  0.00     0.000 HD 
HETATM    5  O   UNL     5     -13.831   8.889  73.306  1.00  0.00    -1.163 OA 
HETATM    6  H   UNL     5     -14.570   8.416  73.671  1.00  0.00     0.000 HD 
HETATM    7  C   UNL     5     -13.679   8.637  71.910  1.00  0.00    -0.421 C  
ENDROOT
BRANCH   3   8
HETATM    8  C   UNL     4     -10.280   4.277  64.632  1.00  0.00    -0.116 C  
HETATM    9  O   UNL     4     -11.407   3.418  64.380  1.00  0.00    -0.564 OA 
HETATM   10  H   UNL     4     -12.201   3.829  64.702  1.00  0.00     0.000 HD 
BRANCH   8  11
HETATM   11  C   UNL     4     -10.360   4.680  66.134  1.00  0.00    -0.275 C  
HETATM   12  O   UNL     4     -10.035   3.615  67.021  1.00  0.00    -0.331 OA 
HETATM   13  H   UNL     4     -10.084   3.861  67.937  1.00  0.00     0.000 HD 
BRANCH  11  14
HETATM   14  C   UNL     4      -9.680   6.007  66.569  1.00  0.00    -0.149 C  
HETATM   15  H   UNL     4      -7.890   6.494  67.181  1.00  0.00     0.000 HD 
HETATM   16  O   UNL     4      -8.306   5.683  66.914  1.00  0.00    -0.108 OA 
BRANCH  14  17
HETATM   17  C   UNL     4     -10.328   6.889  67.675  1.00  0.00    -0.205 C  
HETATM   18  C   UNL     4      -9.976   8.425  67.514  1.00  0.00    -0.200 C  
HETATM   19  H   UNL     4     -10.500   6.896  69.666  1.00  0.00     0.000 HD 
HETATM   20  O   UNL     4     -10.104   6.358  68.991  1.00  0.00    -0.152 OA 
HETATM   21  O   UNL     4      -9.938   8.827  66.276  1.00  0.00    -0.283 OA 
HETATM   22  O   UNL     4      -9.680   9.095  68.542  1.00  0.00    -0.150 OA 
ENDBRANCH  14  17
ENDBRANCH  11  14
ENDBRANCH   8  11
ENDBRANCH   3   8
BRANCH   7  23
HETATM   23  C   UNL     5     -12.480   9.405  71.318  1.00  0.00    -0.335 C  
HETATM   24  O   UNL     5     -11.948   8.641  70.235  1.00  0.00    -0.471 OA 
HETATM   25  H   UNL     5     -11.210   9.114  69.870  1.00  0.00     0.000 HD 
BRANCH  23  26
HETATM   26  C   UNL     5     -12.882  10.822  70.854  1.00  0.00    -0.351 C  
HETATM   27  O   UNL     5     -13.041  11.678  72.009  1.00  0.00    -0.478 OA 
HETATM   28  H   UNL     5     -13.289  12.549  71.724  1.00  0.00     0.000 HD 
BRANCH  26  29
HETATM   29  C   UNL     5     -11.992  11.519  69.788  1.00  0.00    -0.346 C  
HETATM   30  O   UNL     5     -10.611  11.179  69.909  1.00  0.00    -0.449 OA 
HETATM   31  H   UNL     5     -10.067  11.605  69.256  1.00  0.00     0.000 HD 
BRANCH  29  32
HETATM   32  C   UNL     5     -12.180  13.029  69.569  1.00  0.00    -0.140 C  
HETATM   33  C   UNL     5     -11.911  13.544  68.140  1.00  0.00    -0.365 C  
HETATM   34  O   UNL     5     -11.383  13.793  70.543  1.00  0.00    -0.498 OA 
HETATM   35  O   UNL     5     -12.211  12.772  67.181  1.00  0.00    -0.404 OA 
HETATM   36  O   UNL     5     -11.338  14.691  68.110  1.00  0.00    -0.275 OA 
HETATM   37  H   UNL     5     -11.499  14.726  70.408  1.00  0.00     0.000 HD 
ENDBRANCH  29  32
ENDBRANCH  26  29
ENDBRANCH  23  26
ENDBRANCH   7  23
TORSDOF 8
ENDMDL
MODEL      102
REMARK 921   NORMALIZED FREE ENERGY PREDICTED BY IDOCK:   -6.05 KCAL/MOL
REMARK 922        TOTAL FREE ENERGY PREDICTED BY IDOCK:  -11.13 KCAL/MOL
REMARK 923 INTER-LIGAND FREE ENERGY PREDICTED BY IDOCK:   -8.49 KCAL/MOL
REMARK 924 INTRA-LIGAND FREE ENERGY PREDICTED BY IDOCK:   -2.64 KCAL/MOL
REMARK 927      BINDING AFFINITY PREDICTED BY RF-SCORE:    0.00 PKD
ROOT
HETATM    1 MG   UNL     3     -13.086  10.461  69.389  1.00  0.00    -0.563 Mg 
HETATM    2  O   UNL     4     -13.558  15.957  72.233  1.00  0.00    -0.440 OA 
HETATM    3  C   UNL     4     -13.392  15.237  71.026  1.00  0.00    -0.474 C  
HETATM    4  H   UNL     4     -14.433  16.313  72.334  1.00  0.00     0.000 HD 
HETATM    5  O   UNL     5      -7.218   6.565  66.289  1.00  0.00    -0.069 OA 
HETATM    6  H   UNL     5      -6.788   6.011  66.930  1.00  0.00     0.000 HD 
HETATM    7  C   UNL     5      -7.391   7.897  66.773  1.00  0.00    -0.089 C  
ENDROOT
BRANCH   3   8
HETATM    8  C   UNL     4     -11.977  14.662  70.863  1.00  0.00    -0.326 C  
HETATM    9  O   UNL     4     -12.060  13.287  70.442  1.00  0.00    -0.355 OA 
HETATM   10  H   UNL     4     -11.184  12.931  70.341  1.00  0.00     0.000 HD 
BRANCH   8  11
HETATM   11  C   UNL     4     -10.989  15.364  69.887  1.00  0.00    -0.294 C  
HETATM   12  O   UNL     4      -9.672  14.827  69.936  1.00  0.00    -0.429 OA 
HETATM   13  H   UNL     4      -9.069  15.256  69.340  1.00  0.00     0.000 HD 
BRANCH  11  14
HETATM   14  C   UNL     4     -11.453  15.595  68.423  1.00  0.00    -0.369 C  
HETATM   15  H   UNL     4     -12.562  14.597  67.162  1.00  0.00     0.000 HD 
HETATM   16  O   UNL     4     -12.279  14.456  68.058  1.00  0.00    -0.281 OA 
BRANCH  14  17
HETATM   17  C   UNL     4     -10.406  15.891  67.311  1.00  0.00    -0.293 C  
HETATM   18  C   UNL     4     -10.509  17.371  66.754  1.00  0.00    -0.257 C  
HETATM   19  H   UNL     4      -9.749  15.051  65.620  1.00  0.00     0.000 HD 
HETATM   20  O   UNL     4     -10.388  14.871  66.299  1.00  0.00    -0.275 OA 
HETATM   21  O   UNL     4     -10.779  18.257  67.670  1.00  0.00    -0.419 OA 
HETATM   22  O   UNL     4     -10.417  17.563  65.511  1.00  0.00    -0.628 OA 
ENDBRANCH  14  17
ENDBRANCH  11  14
ENDBRANCH   8  11
ENDBRANCH   3   8
BRANCH   7  23
HETATM   23  C   UNL     5      -8.089   8.797  65.733  1.00  0.00    -0.109 C  
HETATM   24  O   UNL     5      -9.337   8.195  65.385  1.00  0.00    -0.407 OA 
HETATM   25  H   UNL     5      -9.767   8.749  64.744  1.00  0.00     0.000 HD 
BRANCH  23  26
HETATM   26  C   UNL     5      -8.293  10.232  66.265  1.00  0.00    -0.134 C  
HETATM   27  O   UNL     5      -7.214  11.074  65.797  1.00  0.00    -0.339 OA 
HETATM   28  H   UNL     5      -7.340  11.957  66.124  1.00  0.00     0.000 HD 
BRANCH  26  29
HETATM   29  C   UNL     5      -9.663  10.918  66.002  1.00  0.00    -0.224 C  
HETATM   30  O   UNL     5      -9.533  12.216  65.424  1.00  0.00    -0.409 OA 
HETATM   31  H   UNL     5     -10.371  12.635  65.263  1.00  0.00     0.000 HD 
BRANCH  29  32
HETATM   32  C   UNL     5     -10.699  10.912  67.138  1.00  0.00    -0.270 C  
HETATM   33  C   UNL     5     -10.259  11.577  68.459  1.00  0.00    -0.213 C  
HETATM   34  O   UNL     5     -11.173   9.542  67.394  1.00  0.00    -0.370 OA 
HETATM   35  O   UNL     5      -9.492  12.583  68.372  1.00  0.00    -0.214 OA 
HETATM   36  O   UNL     5     -10.683  10.968  69.504  1.00  0.00    -0.237 OA 
HETATM   37  H   UNL     5     -11.813   9.538  68.096  1.00  0.00     0.000 HD 
ENDBRANCH  29  32
ENDBRANCH  26  29
ENDBRANCH  23  26
ENDBRANCH   7  23
TORSDOF 8
ENDMDL
MODEL      103
REMARK 921   NORMALIZED FREE ENERGY PREDICTED BY IDOCK:   -6.05 KCAL/MOL
REMARK 922        TOTAL FREE ENERGY PREDICTED BY IDOCK:  -11.12 KCAL/MOL
REMARK 923 INTER-LIGAND FREE ENERGY PREDICTED BY IDOCK:   -9.37 KCAL/MOL
REMARK 924 INTRA-LIGAND FREE ENERGY PREDICTED BY IDOCK:   -1.75 KCAL/MOL
REMARK 927      BINDING AFFINITY PREDICTED BY RF-SCORE:    0.00 PKD
ROOT
HETATM    1 MG   UNL     3     -13.530  16.565  68.309  1.00  0.00     0.443 Mg 
HETATM    2  O   UNL     4     -13.113  16.193  74.490  1.00  0.00    -0.901 OA 
HETATM    3  C   UNL     4     -12.451  16.255  73.241  1.00  0.00    -0.489 C  
HETATM    4  H   UNL     4     -13.082  17.014  74.967  1.00  0.00     0.000 HD 
HETATM    5  O   UNL     5     -12.472  11.520  62.596  1.00  0.00    -0.678 OA 
HETATM    6  H   UNL     5     -13.272  11.050  62.390  1.00  0.00     0.000 HD 
HETATM    7  C   UNL     5     -12.201  11.517  63.997  1.00  0.00     0.067 C  
ENDROOT
BRANCH   3   8
HETATM    8  C   UNL     4     -12.503  14.928  72.470  1.00  0.00    -0.346 C  
HETATM    9  O   UNL     4     -13.602  14.131  72.950  1.00  0.00    -0.651 OA 
HETATM   10  H   UNL     4     -13.634  13.310  72.473  1.00  0.00     0.000 HD 
BRANCH   8  11
HETATM   11  C   UNL     4     -12.630  14.966  70.919  1.00  0.00    -0.341 C  
HETATM   12  O   UNL     4     -11.914  16.043  70.322  1.00  0.00    -0.358 OA 
HETATM   13  H   UNL     4     -11.992  16.065  69.376  1.00  0.00     0.000 HD 
BRANCH  11  14
HETATM   14  C   UNL     4     -12.417  13.642  70.138  1.00  0.00    -0.239 C  
HETATM   15  H   UNL     4     -11.916  11.820  70.637  1.00  0.00     0.000 HD 
HETATM   16  O   UNL     4     -12.047  12.631  71.115  1.00  0.00    -0.130 OA 
BRANCH  14  17
HETATM   17  C   UNL     4     -11.452  13.602  68.918  1.00  0.00    -0.303 C  
HETATM   18  C   UNL     4     -11.257  12.139  68.342  1.00  0.00    -0.265 C  
HETATM   19  H   UNL     4      -9.641  14.289  68.426  1.00  0.00     0.000 HD 
HETATM   20  O   UNL     4     -10.230  14.313  69.171  1.00  0.00    -0.193 OA 
HETATM   21  O   UNL     4     -12.344  11.420  68.358  1.00  0.00    -0.505 OA 
HETATM   22  O   UNL     4     -10.099  11.762  68.011  1.00  0.00    -0.181 OA 
ENDBRANCH  14  17
ENDBRANCH  11  14
ENDBRANCH   8  11
ENDBRANCH   3   8
BRANCH   7  23
HETATM   23  C   UNL     5     -10.903  12.279  64.330  1.00  0.00    -0.329 C  
HETATM   24  O   UNL     5     -10.028  12.188  63.204  1.00  0.00    -0.421 OA 
HETATM   25  H   UNL     5      -9.228  12.657  63.409  1.00  0.00     0.000 HD 
BRANCH  23  26
HETATM   26  C   UNL     5     -11.184  13.752  64.699  1.00  0.00    -0.378 C  
HETATM   27  O   UNL     5     -12.327  13.815  65.582  1.00  0.00    -0.421 OA 
HETATM   28  H   UNL     5     -12.500  14.721  65.809  1.00  0.00     0.000 HD 
BRANCH  26  29
HETATM   29  C   UNL     5     -10.011  14.594  65.275  1.00  0.00    -0.294 C  
HETATM   30  O   UNL     5      -9.189  13.856  66.178  1.00  0.00    -0.479 OA 
HETATM   31  H   UNL     5      -8.472  14.371  66.530  1.00  0.00     0.000 HD 
BRANCH  29  32
HETATM   32  C   UNL     5     -10.334  15.992  65.826  1.00  0.00    -0.378 C  
HETATM   33  C   UNL     5     -11.169  16.906  64.905  1.00  0.00     0.135 C  
HETATM   34  O   UNL     5      -9.099  16.680  66.238  1.00  0.00    -0.270 OA 
HETATM   35  O   UNL     5     -12.044  16.349  64.177  1.00  0.00    -0.802 OA 
HETATM   36  O   UNL     5     -10.813  18.138  64.948  1.00  0.00    -0.666 OA 
HETATM   37  H   UNL     5      -9.298  17.544  66.578  1.00  0.00     0.000 HD 
ENDBRANCH  29  32
ENDBRANCH  26  29
ENDBRANCH  23  26
ENDBRANCH   7  23
TORSDOF 8
ENDMDL
MODEL      104
REMARK 921   NORMALIZED FREE ENERGY PREDICTED BY IDOCK:   -6.05 KCAL/MOL
REMARK 922        TOTAL FREE ENERGY PREDICTED BY IDOCK:  -11.12 KCAL/MOL
REMARK 923 INTER-LIGAND FREE ENERGY PREDICTED BY IDOCK:   -8.24 KCAL/MOL
REMARK 924 INTRA-LIGAND FREE ENERGY PREDICTED BY IDOCK:   -2.87 KCAL/MOL
REMARK 927      BINDING AFFINITY PREDICTED BY RF-SCORE:    0.00 PKD
ROOT
HETATM    1 MG   UNL     3     -11.337  13.046  69.512  1.00  0.00    -0.220 Mg 
HETATM    2  O   UNL     4     -12.301  13.797  63.427  1.00  0.00    -1.001 OA 
HETATM    3  C   UNL     4     -12.506  13.019  64.590  1.00  0.00    -0.400 C  
HETATM    4  H   UNL     4     -13.070  14.294  63.173  1.00  0.00     0.000 HD 
HETATM    5  O   UNL     5      -6.835   8.371  73.645  1.00  0.00    -0.124 OA 
HETATM    6  H   UNL     5      -5.976   8.750  73.790  1.00  0.00     0.000 HD 
HETATM    7  C   UNL     5      -7.217   8.436  72.271  1.00  0.00    -0.092 C  
ENDROOT
BRANCH   3   8
HETATM    8  C   UNL     4     -11.263  12.216  65.000  1.00  0.00    -0.322 C  
HETATM    9  O   UNL     4     -10.079  12.877  64.518  1.00  0.00    -0.514 OA 
HETATM   10  H   UNL     4      -9.310  12.379  64.771  1.00  0.00     0.000 HD 
BRANCH   8  11
HETATM   11  C   UNL     4     -11.022  11.925  66.511  1.00  0.00    -0.292 C  
HETATM   12  O   UNL     4     -12.113  12.313  67.339  1.00  0.00    -0.533 OA 
HETATM   13  H   UNL     4     -11.966  12.135  68.261  1.00  0.00     0.000 HD 
BRANCH  11  14
HETATM   14  C   UNL     4     -10.480  10.525  66.906  1.00  0.00    -0.246 C  
HETATM   15  H   UNL     4      -9.456   9.827  68.416  1.00  0.00     0.000 HD 
HETATM   16  O   UNL     4      -9.788  10.684  68.174  1.00  0.00    -0.150 OA 
BRANCH  14  17
HETATM   17  C   UNL     4      -9.607   9.716  65.904  1.00  0.00    -0.257 C  
HETATM   18  C   UNL     4      -9.435   8.199  66.332  1.00  0.00    -0.218 C  
HETATM   19  H   UNL     4      -7.847   9.897  64.975  1.00  0.00     0.000 HD 
HETATM   20  O   UNL     4      -8.380  10.391  65.587  1.00  0.00    -0.152 OA 
HETATM   21  O   UNL     4     -10.507   7.678  66.857  1.00  0.00    -0.315 OA 
HETATM   22  O   UNL     4      -8.299   7.660  66.225  1.00  0.00    -0.119 OA 
ENDBRANCH  14  17
ENDBRANCH  11  14
ENDBRANCH   8  11
ENDBRANCH   3   8
BRANCH   7  23
HETATM   23  C   UNL     5      -8.611   7.821  72.035  1.00  0.00    -0.116 C  
HETATM   24  O   UNL     5      -8.851   6.851  73.056  1.00  0.00    -0.125 OA 
HETATM   25  H   UNL     5      -9.709   6.472  72.911  1.00  0.00     0.000 HD 
BRANCH  23  26
HETATM   26  C   UNL     5      -9.716   8.900  72.022  1.00  0.00    -0.234 C  
HETATM   27  O   UNL     5      -9.485   9.809  70.922  1.00  0.00    -0.290 OA 
HETATM   28  H   UNL     5     -10.165  10.472  70.914  1.00  0.00     0.000 HD 
BRANCH  26  29
HETATM   29  C   UNL     5     -11.196   8.425  72.026  1.00  0.00    -0.334 C  
HETATM   30  O   UNL     5     -11.571   7.788  73.247  1.00  0.00    -0.644 OA 
HETATM   31  H   UNL     5     -12.476   7.498  73.250  1.00  0.00     0.000 HD 
BRANCH  29  32
HETATM   32  C   UNL     5     -11.702   7.639  70.806  1.00  0.00    -0.239 C  
HETATM   33  C   UNL     5     -11.276   6.158  70.730  1.00  0.00    -0.306 C  
HETATM   34  O   UNL     5     -11.341   8.335  69.560  1.00  0.00    -0.441 OA 
HETATM   35  O   UNL     5     -11.169   5.531  71.826  1.00  0.00    -0.206 OA 
HETATM   36  O   UNL     5     -11.012   5.763  69.539  1.00  0.00    -0.353 OA 
HETATM   37  H   UNL     5     -11.654   7.850  68.806  1.00  0.00     0.000 HD 
ENDBRANCH  29  32
ENDBRANCH  26  29
ENDBRANCH  23  26
ENDBRANCH   7  23
TORSDOF 8
ENDMDL
MODEL      105
REMARK 921   NORMALIZED FREE ENERGY PREDICTED BY IDOCK:   -6.05 KCAL/MOL
REMARK 922        TOTAL FREE ENERGY PREDICTED BY IDOCK:  -11.12 KCAL/MOL
REMARK 923 INTER-LIGAND FREE ENERGY PREDICTED BY IDOCK:   -9.29 KCAL/MOL
REMARK 924 INTRA-LIGAND FREE ENERGY PREDICTED BY IDOCK:   -1.83 KCAL/MOL
REMARK 927      BINDING AFFINITY PREDICTED BY RF-SCORE:    0.00 PKD
ROOT
HETATM    1 MG   UNL     3      -9.237  12.807  68.381  1.00  0.00    -0.167 Mg 
HETATM    2  O   UNL     4     -12.439  14.816  63.459  1.00  0.00    -1.053 OA 
HETATM    3  C   UNL     4     -12.442  14.427  64.819  1.00  0.00    -0.357 C  
HETATM    4  H   UNL     4     -12.500  15.757  63.343  1.00  0.00     0.000 HD 
HETATM    5  O   UNL     5      -8.708   6.021  71.971  1.00  0.00    -0.136 OA 
HETATM    6  H   UNL     5      -8.025   5.479  71.595  1.00  0.00     0.000 HD 
HETATM    7  C   UNL     5      -9.569   6.559  70.968  1.00  0.00    -0.175 C  
ENDROOT
BRANCH   3   8
HETATM    8  C   UNL     4     -12.343  12.906  65.007  1.00  0.00    -0.485 C  
HETATM    9  O   UNL     4     -13.432  12.262  64.318  1.00  0.00    -0.653 OA 
HETATM   10  H   UNL     4     -13.371  11.321  64.435  1.00  0.00     0.000 HD 
BRANCH   8  11
HETATM   11  C   UNL     4     -11.044  12.178  64.556  1.00  0.00    -0.325 C  
HETATM   12  O   UNL     4     -10.103  13.042  63.928  1.00  0.00    -0.676 OA 
HETATM   13  H   UNL     4      -9.310  12.597  63.654  1.00  0.00     0.000 HD 
BRANCH  11  14
HETATM   14  C   UNL     4     -10.352  11.228  65.571  1.00  0.00    -0.266 C  
HETATM   15  H   UNL     4      -8.856  11.405  66.814  1.00  0.00     0.000 HD 
HETATM   16  O   UNL     4      -9.279  11.986  66.194  1.00  0.00    -0.224 OA 
BRANCH  14  17
HETATM   17  C   UNL     4      -9.839   9.833  65.109  1.00  0.00    -0.224 C  
HETATM   18  C   UNL     4      -9.691   8.810  66.310  1.00  0.00    -0.272 C  
HETATM   19  H   UNL     4      -8.370   9.083  63.981  1.00  0.00     0.000 HD 
HETATM   20  O   UNL     4      -8.683   9.934  64.263  1.00  0.00    -0.175 OA 
HETATM   21  O   UNL     4     -10.631   8.913  67.205  1.00  0.00    -0.283 OA 
HETATM   22  O   UNL     4      -8.671   8.068  66.358  1.00  0.00    -0.135 OA 
ENDBRANCH  14  17
ENDBRANCH  11  14
ENDBRANCH   8  11
ENDBRANCH   3   8
BRANCH   7  23
HETATM   23  C   UNL     5     -10.678   7.440  71.578  1.00  0.00    -0.222 C  
HETATM   24  O   UNL     5     -10.058   8.466  72.354  1.00  0.00    -0.287 OA 
HETATM   25  H   UNL     5     -10.741   9.009  72.730  1.00  0.00     0.000 HD 
BRANCH  23  26
HETATM   26  C   UNL     5     -11.593   8.041  70.489  1.00  0.00    -0.134 C  
HETATM   27  O   UNL     5     -12.924   7.493  70.626  1.00  0.00    -0.540 OA 
HETATM   28  H   UNL     5     -13.487   7.864  69.956  1.00  0.00     0.000 HD 
BRANCH  26  29
HETATM   29  C   UNL     5     -11.658   9.589  70.367  1.00  0.00    -0.212 C  
HETATM   30  O   UNL     5     -10.421  10.224  70.688  1.00  0.00    -0.401 OA 
HETATM   31  H   UNL     5     -10.461  11.171  70.614  1.00  0.00     0.000 HD 
BRANCH  29  32
HETATM   32  C   UNL     5     -12.846  10.313  71.023  1.00  0.00    -0.397 C  
HETATM   33  C   UNL     5     -12.763  11.853  71.060  1.00  0.00    -0.258 C  
HETATM   34  O   UNL     5     -13.085   9.785  72.377  1.00  0.00    -0.466 OA 
HETATM   35  O   UNL     5     -12.199  12.425  70.080  1.00  0.00    -0.272 OA 
HETATM   36  O   UNL     5     -13.228  12.364  72.140  1.00  0.00    -0.491 OA 
HETATM   37  H   UNL     5     -13.819  10.232  72.782  1.00  0.00     0.000 HD 
ENDBRANCH  29  32
ENDBRANCH  26  29
ENDBRANCH  23  26
ENDBRANCH   7  23
TORSDOF 8
ENDMDL
MODEL      106
REMARK 921   NORMALIZED FREE ENERGY PREDICTED BY IDOCK:   -6.03 KCAL/MOL
REMARK 922        TOTAL FREE ENERGY PREDICTED BY IDOCK:  -11.10 KCAL/MOL
REMARK 923 INTER-LIGAND FREE ENERGY PREDICTED BY IDOCK:   -8.55 KCAL/MOL
REMARK 924 INTRA-LIGAND FREE ENERGY PREDICTED BY IDOCK:   -2.55 KCAL/MOL
REMARK 927      BINDING AFFINITY PREDICTED BY RF-SCORE:    0.00 PKD
ROOT
HETATM    1 MG   UNL     3      -6.130  12.432  66.796  1.00  0.00    -0.133 Mg 
HETATM    2  O   UNL     4      -7.465   6.540  68.216  1.00  0.00    -0.091 OA 
HETATM    3  C   UNL     4      -7.711   7.664  67.393  1.00  0.00    -0.117 C  
HETATM    4  H   UNL     4      -6.953   5.868  67.781  1.00  0.00     0.000 HD 
HETATM    5  O   UNL     5      -9.774  19.121  67.889  1.00  0.00    -0.307 OA 
HETATM    6  H   UNL     5      -9.545  19.512  68.724  1.00  0.00     0.000 HD 
HETATM    7  C   UNL     5     -10.138  17.748  68.030  1.00  0.00    -0.355 C  
ENDROOT
BRANCH   3   8
HETATM    8  C   UNL     4      -8.538   8.750  68.097  1.00  0.00    -0.134 C  
HETATM    9  O   UNL     4      -8.016  10.050  67.762  1.00  0.00    -0.104 OA 
HETATM   10  H   UNL     4      -8.528  10.722  68.197  1.00  0.00     0.000 HD 
BRANCH   8  11
HETATM   11  C   UNL     4     -10.072   8.811  67.837  1.00  0.00    -0.207 C  
HETATM   12  O   UNL     4     -10.829   8.022  68.749  1.00  0.00    -0.406 OA 
HETATM   13  H   UNL     4     -11.765   8.060  68.590  1.00  0.00     0.000 HD 
BRANCH  11  14
HETATM   14  C   UNL     4     -10.720  10.205  67.620  1.00  0.00    -0.285 C  
HETATM   15  H   UNL     4     -10.730  11.500  66.158  1.00  0.00     0.000 HD 
HETATM   16  O   UNL     4     -10.334  10.647  66.290  1.00  0.00    -0.242 OA 
BRANCH  14  17
HETATM   17  C   UNL     4     -10.494  11.340  68.660  1.00  0.00    -0.203 C  
HETATM   18  C   UNL     4     -11.849  11.878  69.280  1.00  0.00    -0.318 C  
HETATM   19  H   UNL     4      -9.478  13.056  68.798  1.00  0.00     0.000 HD 
HETATM   20  O   UNL     4      -9.616  12.363  68.163  1.00  0.00    -0.208 OA 
HETATM   21  O   UNL     4     -12.735  10.947  69.490  1.00  0.00    -0.267 OA 
HETATM   22  O   UNL     4     -12.000  13.121  69.433  1.00  0.00    -0.307 OA 
ENDBRANCH  14  17
ENDBRANCH  11  14
ENDBRANCH   8  11
ENDBRANCH   3   8
BRANCH   7  23
HETATM   23  C   UNL     5     -10.510  17.113  66.675  1.00  0.00    -0.259 C  
HETATM   24  O   UNL     5      -9.874  17.863  65.639  1.00  0.00    -0.512 OA 
HETATM   25  H   UNL     5     -10.103  17.472  64.804  1.00  0.00     0.000 HD 
BRANCH  23  26
HETATM   26  C   UNL     5     -10.105  15.624  66.612  1.00  0.00    -0.273 C  
HETATM   27  O   UNL     5     -10.457  14.979  67.858  1.00  0.00    -0.243 OA 
HETATM   28  H   UNL     5     -10.208  14.062  67.819  1.00  0.00     0.000 HD 
BRANCH  26  29
HETATM   29  C   UNL     5     -10.612  14.782  65.408  1.00  0.00    -0.378 C  
HETATM   30  O   UNL     5     -11.087  15.586  64.329  1.00  0.00    -0.710 OA 
HETATM   31  H   UNL     5     -11.397  15.072  63.593  1.00  0.00     0.000 HD 
BRANCH  29  32
HETATM   32  C   UNL     5     -11.569  13.615  65.699  1.00  0.00    -0.328 C  
HETATM   33  C   UNL     5     -12.078  12.834  64.469  1.00  0.00    -0.414 C  
HETATM   34  O   UNL     5     -12.706  14.072  66.515  1.00  0.00    -0.498 OA 
HETATM   35  O   UNL     5     -11.278  12.706  63.495  1.00  0.00    -0.453 OA 
HETATM   36  O   UNL     5     -13.302  12.465  64.569  1.00  0.00    -0.800 OA 
HETATM   37  H   UNL     5     -13.297  13.351  66.695  1.00  0.00     0.000 HD 
ENDBRANCH  29  32
ENDBRANCH  26  29
ENDBRANCH  23  26
ENDBRANCH   7  23
TORSDOF 8
ENDMDL
MODEL      107
REMARK 921   NORMALIZED FREE ENERGY PREDICTED BY IDOCK:   -6.02 KCAL/MOL
REMARK 922        TOTAL FREE ENERGY PREDICTED BY IDOCK:  -11.08 KCAL/MOL
REMARK 923 INTER-LIGAND FREE ENERGY PREDICTED BY IDOCK:   -9.87 KCAL/MOL
REMARK 924 INTRA-LIGAND FREE ENERGY PREDICTED BY IDOCK:   -1.21 KCAL/MOL
REMARK 927      BINDING AFFINITY PREDICTED BY RF-SCORE:    0.00 PKD
ROOT
HETATM    1 MG   UNL     3     -10.353  14.798  71.535  1.00  0.00    -0.526 Mg 
HETATM    2  O   UNL     4     -12.430   8.997  70.795  1.00  0.00    -0.492 OA 
HETATM    3  C   UNL     4     -11.422   9.955  70.538  1.00  0.00    -0.318 C  
HETATM    4  H   UNL     4     -12.179   8.364  71.458  1.00  0.00     0.000 HD 
HETATM    5  O   UNL     5      -9.895  20.914  66.888  1.00  0.00    -0.620 OA 
HETATM    6  H   UNL     5     -10.685  21.439  66.921  1.00  0.00     0.000 HD 
HETATM    7  C   UNL     5     -10.186  19.530  66.696  1.00  0.00    -0.449 C  
ENDROOT
BRANCH   3   8
HETATM    8  C   UNL     4     -11.828  10.978  69.467  1.00  0.00    -0.333 C  
HETATM    9  O   UNL     4     -12.235  12.206  70.099  1.00  0.00    -0.292 OA 
HETATM   10  H   UNL     4     -12.487  12.838  69.436  1.00  0.00     0.000 HD 
BRANCH   8  11
HETATM   11  C   UNL     4     -10.793  11.367  68.371  1.00  0.00    -0.207 C  
HETATM   12  O   UNL     4      -9.463  11.477  68.867  1.00  0.00    -0.368 OA 
HETATM   13  H   UNL     4      -8.832  11.714  68.198  1.00  0.00     0.000 HD 
BRANCH  11  14
HETATM   14  C   UNL     4     -10.834  10.598  67.023  1.00  0.00    -0.238 C  
HETATM   15  H   UNL     4     -10.244   8.831  66.435  1.00  0.00     0.000 HD 
HETATM   16  O   UNL     4     -10.219   9.302  67.260  1.00  0.00    -0.216 OA 
BRANCH  14  17
HETATM   17  C   UNL     4     -10.256  11.250  65.735  1.00  0.00    -0.251 C  
HETATM   18  C   UNL     4     -11.385  11.663  64.702  1.00  0.00    -0.215 C  
HETATM   19  H   UNL     4      -8.830  10.878  64.385  1.00  0.00     0.000 HD 
HETATM   20  O   UNL     4      -9.183  10.479  65.172  1.00  0.00    -0.180 OA 
HETATM   21  O   UNL     4     -12.462  12.132  65.262  1.00  0.00    -0.520 OA 
HETATM   22  O   UNL     4     -11.203  11.432  63.474  1.00  0.00    -0.391 OA 
ENDBRANCH  14  17
ENDBRANCH  11  14
ENDBRANCH   8  11
ENDBRANCH   3   8
BRANCH   7  23
HETATM   23  C   UNL     5      -8.902  18.678  66.642  1.00  0.00    -0.302 C  
HETATM   24  O   UNL     5      -7.931  19.275  67.504  1.00  0.00    -0.253 OA 
HETATM   25  H   UNL     5      -7.140  18.750  67.471  1.00  0.00     0.000 HD 
BRANCH  23  26
HETATM   26  C   UNL     5      -9.173  17.211  67.041  1.00  0.00    -0.241 C  
HETATM   27  O   UNL     5      -8.684  16.981  68.382  1.00  0.00    -0.230 OA 
HETATM   28  H   UNL     5      -8.851  16.079  68.628  1.00  0.00     0.000 HD 
BRANCH  26  29
HETATM   29  C   UNL     5     -10.624  16.674  66.898  1.00  0.00    -0.229 C  
HETATM   30  O   UNL     5     -11.276  16.492  68.155  1.00  0.00    -0.341 OA 
HETATM   31  H   UNL     5     -12.163  16.164  68.068  1.00  0.00     0.000 HD 
BRANCH  29  32
HETATM   32  C   UNL     5     -10.859  15.474  65.967  1.00  0.00    -0.300 C  
HETATM   33  C   UNL     5     -11.554  15.785  64.625  1.00  0.00    -0.218 C  
HETATM   34  O   UNL     5     -11.581  14.405  66.677  1.00  0.00    -0.357 OA 
HETATM   35  O   UNL     5     -11.297  16.902  64.086  1.00  0.00    -1.208 OA 
HETATM   36  O   UNL     5     -12.379  14.875  64.254  1.00  0.00    -0.579 OA 
HETATM   37  H   UNL     5     -11.726  13.664  66.102  1.00  0.00     0.000 HD 
ENDBRANCH  29  32
ENDBRANCH  26  29
ENDBRANCH  23  26
ENDBRANCH   7  23
TORSDOF 8
ENDMDL
MODEL      108
REMARK 921   NORMALIZED FREE ENERGY PREDICTED BY IDOCK:   -6.00 KCAL/MOL
REMARK 922        TOTAL FREE ENERGY PREDICTED BY IDOCK:  -11.06 KCAL/MOL
REMARK 923 INTER-LIGAND FREE ENERGY PREDICTED BY IDOCK:   -8.80 KCAL/MOL
REMARK 924 INTRA-LIGAND FREE ENERGY PREDICTED BY IDOCK:   -2.25 KCAL/MOL
REMARK 927      BINDING AFFINITY PREDICTED BY RF-SCORE:    0.00 PKD
ROOT
HETATM    1 MG   UNL     3     -11.159  10.153  65.799  1.00  0.00    -0.106 Mg 
HETATM    2  O   UNL     4     -11.876  16.030  63.938  1.00  0.00    -1.275 OA 
HETATM    3  C   UNL     4     -11.236  15.112  64.803  1.00  0.00    -0.388 C  
HETATM    4  H   UNL     4     -11.315  16.327  63.232  1.00  0.00     0.000 HD 
HETATM    5  O   UNL     5     -13.438   6.229  72.014  1.00  0.00    -0.232 OA 
HETATM    6  H   UNL     5     -14.296   5.841  71.888  1.00  0.00     0.000 HD 
HETATM    7  C   UNL     5     -13.422   7.609  71.652  1.00  0.00    -0.358 C  
ENDROOT
BRANCH   3   8
HETATM    8  C   UNL     4     -12.145  14.631  65.944  1.00  0.00    -0.205 C  
HETATM    9  O   UNL     4     -12.302  13.202  65.869  1.00  0.00    -0.434 OA 
HETATM   10  H   UNL     4     -12.865  12.905  66.575  1.00  0.00     0.000 HD 
BRANCH   8  11
HETATM   11  C   UNL     4     -11.739  14.953  67.412  1.00  0.00    -0.293 C  
HETATM   12  O   UNL     4     -12.188  13.978  68.347  1.00  0.00    -0.516 OA 
HETATM   13  H   UNL     4     -11.940  14.175  69.243  1.00  0.00     0.000 HD 
BRANCH  11  14
HETATM   14  C   UNL     4     -10.268  15.367  67.687  1.00  0.00    -0.246 C  
HETATM   15  H   UNL     4      -9.001  15.043  69.138  1.00  0.00     0.000 HD 
HETATM   16  O   UNL     4      -9.901  14.789  68.970  1.00  0.00    -0.224 OA 
BRANCH  14  17
HETATM   17  C   UNL     4      -9.854  16.866  67.624  1.00  0.00    -0.259 C  
HETATM   18  C   UNL     4      -8.289  17.061  67.471  1.00  0.00    -0.188 C  
HETATM   19  H   UNL     4     -10.201  18.552  68.639  1.00  0.00     0.000 HD 
HETATM   20  O   UNL     4     -10.453  17.637  68.678  1.00  0.00    -0.356 OA 
HETATM   21  O   UNL     4      -7.725  16.179  66.696  1.00  0.00    -0.241 OA 
HETATM   22  O   UNL     4      -7.716  17.956  68.150  1.00  0.00    -0.238 OA 
ENDBRANCH  14  17
ENDBRANCH  11  14
ENDBRANCH   8  11
ENDBRANCH   3   8
BRANCH   7  23
HETATM   23  C   UNL     5     -12.029   8.238  71.856  1.00  0.00    -0.330 C  
HETATM   24  O   UNL     5     -11.524   7.807  73.121  1.00  0.00    -0.588 OA 
HETATM   25  H   UNL     5     -10.666   8.195  73.247  1.00  0.00     0.000 HD 
BRANCH  23  26
HETATM   26  C   UNL     5     -11.060   7.862  70.713  1.00  0.00    -0.256 C  
HETATM   27  O   UNL     5     -11.792   7.180  69.669  1.00  0.00    -0.517 OA 
HETATM   28  H   UNL     5     -11.196   6.949  68.966  1.00  0.00     0.000 HD 
BRANCH  26  29
HETATM   29  C   UNL     5     -10.179   8.989  70.105  1.00  0.00    -0.197 C  
HETATM   30  O   UNL     5      -9.861  10.014  71.047  1.00  0.00    -0.194 OA 
HETATM   31  H   UNL     5      -9.322  10.703  70.675  1.00  0.00     0.000 HD 
BRANCH  29  32
HETATM   32  C   UNL     5     -10.605   9.584  68.753  1.00  0.00    -0.214 C  
HETATM   33  C   UNL     5      -9.676  10.667  68.168  1.00  0.00    -0.156 C  
HETATM   34  O   UNL     5     -11.987  10.086  68.824  1.00  0.00    -0.480 OA 
HETATM   35  O   UNL     5      -8.434  10.543  68.387  1.00  0.00    -0.117 OA 
HETATM   36  O   UNL     5     -10.305  11.616  67.577  1.00  0.00    -0.192 OA 
HETATM   37  H   UNL     5     -12.250  10.453  67.989  1.00  0.00     0.000 HD 
ENDBRANCH  29  32
ENDBRANCH  26  29
ENDBRANCH  23  26
ENDBRANCH   7  23
TORSDOF 8
ENDMDL
MODEL      109
REMARK 921   NORMALIZED FREE ENERGY PREDICTED BY IDOCK:   -5.99 KCAL/MOL
REMARK 922        TOTAL FREE ENERGY PREDICTED BY IDOCK:  -11.04 KCAL/MOL
REMARK 923 INTER-LIGAND FREE ENERGY PREDICTED BY IDOCK:   -8.90 KCAL/MOL
REMARK 924 INTRA-LIGAND FREE ENERGY PREDICTED BY IDOCK:   -2.14 KCAL/MOL
REMARK 927      BINDING AFFINITY PREDICTED BY RF-SCORE:    0.00 PKD
ROOT
HETATM    1 MG   UNL     3      -9.519  10.712  65.935  1.00  0.00    -0.163 Mg 
HETATM    2  O   UNL     4     -11.740  16.103  63.808  1.00  0.00    -1.404 OA 
HETATM    3  C   UNL     4     -10.998  15.413  64.795  1.00  0.00    -0.393 C  
HETATM    4  H   UNL     4     -11.190  16.582  63.199  1.00  0.00     0.000 HD 
HETATM    5  O   UNL     5     -11.453   6.103  71.785  1.00  0.00    -0.285 OA 
HETATM    6  H   UNL     5     -12.109   5.466  71.528  1.00  0.00     0.000 HD 
HETATM    7  C   UNL     5     -11.816   7.426  71.391  1.00  0.00    -0.300 C  
ENDROOT
BRANCH   3   8
HETATM    8  C   UNL     4     -11.887  14.638  65.780  1.00  0.00    -0.274 C  
HETATM    9  O   UNL     4     -12.909  13.931  65.054  1.00  0.00    -0.693 OA 
HETATM   10  H   UNL     4     -13.459  13.452  65.663  1.00  0.00     0.000 HD 
BRANCH   8  11
HETATM   11  C   UNL     4     -11.224  13.601  66.732  1.00  0.00    -0.314 C  
HETATM   12  O   UNL     4     -10.881  12.381  66.085  1.00  0.00    -0.259 OA 
HETATM   13  H   UNL     4     -10.476  11.748  66.667  1.00  0.00     0.000 HD 
BRANCH  11  14
HETATM   14  C   UNL     4     -10.079  14.092  67.660  1.00  0.00    -0.241 C  
HETATM   15  H   UNL     4      -9.715  15.747  68.631  1.00  0.00     0.000 HD 
HETATM   16  O   UNL     4     -10.415  15.447  68.064  1.00  0.00    -0.248 OA 
BRANCH  14  17
HETATM   17  C   UNL     4      -8.601  14.015  67.182  1.00  0.00    -0.205 C  
HETATM   18  C   UNL     4      -7.803  12.822  67.855  1.00  0.00    -0.156 C  
HETATM   19  H   UNL     4      -7.039  15.243  66.958  1.00  0.00     0.000 HD 
HETATM   20  O   UNL     4      -7.942  15.289  67.251  1.00  0.00    -0.169 OA 
HETATM   21  O   UNL     4      -8.511  11.741  68.012  1.00  0.00    -0.142 OA 
HETATM   22  O   UNL     4      -6.624  13.026  68.256  1.00  0.00    -0.076 OA 
ENDBRANCH  14  17
ENDBRANCH  11  14
ENDBRANCH   8  11
ENDBRANCH   3   8
BRANCH   7  23
HETATM   23  C   UNL     5     -10.751   8.459  71.810  1.00  0.00    -0.285 C  
HETATM   24  O   UNL     5      -9.460   7.905  71.546  1.00  0.00    -0.142 OA 
HETATM   25  H   UNL     5      -8.805   8.542  71.804  1.00  0.00     0.000 HD 
BRANCH  23  26
HETATM   26  C   UNL     5     -10.940   9.804  71.074  1.00  0.00    -0.332 C  
HETATM   27  O   UNL     5      -9.931   9.934  70.047  1.00  0.00    -0.242 OA 
HETATM   28  H   UNL     5     -10.047  10.761  69.594  1.00  0.00     0.000 HD 
BRANCH  26  29
HETATM   29  C   UNL     5     -12.345  10.123  70.492  1.00  0.00    -0.245 C  
HETATM   30  O   UNL     5     -12.299  10.542  69.128  1.00  0.00    -0.724 OA 
HETATM   31  H   UNL     5     -13.159  10.737  68.772  1.00  0.00     0.000 HD 
BRANCH  29  32
HETATM   32  C   UNL     5     -13.280  11.018  71.321  1.00  0.00    -0.158 C  
HETATM   33  C   UNL     5     -12.838  12.487  71.488  1.00  0.00    -0.265 C  
HETATM   34  O   UNL     5     -13.537  10.413  72.638  1.00  0.00    -0.505 OA 
HETATM   35  O   UNL     5     -12.229  13.022  70.514  1.00  0.00    -0.357 OA 
HETATM   36  O   UNL     5     -13.092  12.968  72.650  1.00  0.00    -0.327 OA 
HETATM   37  H   UNL     5     -14.115  10.966  73.151  1.00  0.00     0.000 HD 
ENDBRANCH  29  32
ENDBRANCH  26  29
ENDBRANCH  23  26
ENDBRANCH   7  23
TORSDOF 8
ENDMDL
MODEL      110
REMARK 921   NORMALIZED FREE ENERGY PREDICTED BY IDOCK:   -5.99 KCAL/MOL
REMARK 922        TOTAL FREE ENERGY PREDICTED BY IDOCK:  -11.04 KCAL/MOL
REMARK 923 INTER-LIGAND FREE ENERGY PREDICTED BY IDOCK:   -9.44 KCAL/MOL
REMARK 924 INTRA-LIGAND FREE ENERGY PREDICTED BY IDOCK:   -1.60 KCAL/MOL
REMARK 927      BINDING AFFINITY PREDICTED BY RF-SCORE:    0.00 PKD
ROOT
HETATM    1 MG   UNL     3     -11.262  15.621  64.652  1.00  0.00    -0.323 Mg 
HETATM    2  O   UNL     4     -12.047  10.620  68.242  1.00  0.00    -0.817 OA 
HETATM    3  C   UNL     4     -11.874  12.021  68.152  1.00  0.00    -0.286 C  
HETATM    4  H   UNL     4     -12.943  10.369  68.437  1.00  0.00     0.000 HD 
HETATM    5  O   UNL     5      -5.238  20.143  63.078  1.00  0.00    -0.186 OA 
HETATM    6  H   UNL     5      -4.741  19.818  62.337  1.00  0.00     0.000 HD 
HETATM    7  C   UNL     5      -5.495  19.115  64.034  1.00  0.00    -0.286 C  
ENDROOT
BRANCH   3   8
HETATM    8  C   UNL     4     -10.427  12.426  67.837  1.00  0.00    -0.215 C  
HETATM    9  O   UNL     4      -9.517  11.557  68.538  1.00  0.00    -0.185 OA 
HETATM   10  H   UNL     4      -8.622  11.808  68.342  1.00  0.00     0.000 HD 
BRANCH   8  11
HETATM   11  C   UNL     4      -9.961  12.447  66.352  1.00  0.00    -0.242 C  
HETATM   12  O   UNL     4      -8.545  12.458  66.206  1.00  0.00    -0.411 OA 
HETATM   13  H   UNL     4      -8.261  12.471  65.300  1.00  0.00     0.000 HD 
BRANCH  11  14
HETATM   14  C   UNL     4     -10.624  11.448  65.366  1.00  0.00    -0.275 C  
HETATM   15  H   UNL     4     -10.158   9.675  64.690  1.00  0.00     0.000 HD 
HETATM   16  O   UNL     4      -9.752  10.286  65.293  1.00  0.00    -0.246 OA 
BRANCH  14  17
HETATM   17  C   UNL     4     -11.032  11.915  63.939  1.00  0.00    -0.406 C  
HETATM   18  C   UNL     4     -12.596  12.122  63.789  1.00  0.00    -0.475 C  
HETATM   19  H   UNL     4     -10.684  11.391  62.042  1.00  0.00     0.000 HD 
HETATM   20  O   UNL     4     -10.435  11.106  62.913  1.00  0.00    -0.182 OA 
HETATM   21  O   UNL     4     -13.160  12.633  64.846  1.00  0.00    -0.850 OA 
HETATM   22  O   UNL     4     -13.169  11.712  62.743  1.00  0.00    -0.130 OA 
ENDBRANCH  14  17
ENDBRANCH  11  14
ENDBRANCH   8  11
ENDBRANCH   3   8
BRANCH   7  23
HETATM   23  C   UNL     5      -6.303  19.642  65.237  1.00  0.00    -0.263 C  
HETATM   24  O   UNL     5      -7.083  20.756  64.799  1.00  0.00    -0.499 OA 
HETATM   25  H   UNL     5      -7.581  21.081  65.541  1.00  0.00     0.000 HD 
BRANCH  23  26
HETATM   26  C   UNL     5      -7.197  18.543  65.851  1.00  0.00    -0.230 C  
HETATM   27  O   UNL     5      -6.365  17.466  66.340  1.00  0.00    -0.200 OA 
HETATM   28  H   UNL     5      -6.916  16.790  66.718  1.00  0.00     0.000 HD 
BRANCH  26  29
HETATM   29  C   UNL     5      -8.227  18.964  66.936  1.00  0.00    -0.268 C  
HETATM   30  O   UNL     5      -8.089  18.225  68.149  1.00  0.00    -0.268 OA 
HETATM   31  H   UNL     5      -8.718  18.482  68.813  1.00  0.00     0.000 HD 
BRANCH  29  32
HETATM   32  C   UNL     5      -9.701  19.086  66.520  1.00  0.00    -0.357 C  
HETATM   33  C   UNL     5     -10.337  17.823  65.902  1.00  0.00    -0.254 C  
HETATM   34  O   UNL     5      -9.888  20.238  65.622  1.00  0.00    -0.574 OA 
HETATM   35  O   UNL     5      -9.946  16.703  66.348  1.00  0.00    -0.271 OA 
HETATM   36  O   UNL     5     -11.151  18.077  64.944  1.00  0.00    -0.738 OA 
HETATM   37  H   UNL     5     -10.799  20.314  65.365  1.00  0.00     0.000 HD 
ENDBRANCH  29  32
ENDBRANCH  26  29
ENDBRANCH  23  26
ENDBRANCH   7  23
TORSDOF 8
ENDMDL
MODEL      111
REMARK 921   NORMALIZED FREE ENERGY PREDICTED BY IDOCK:   -5.98 KCAL/MOL
REMARK 922        TOTAL FREE ENERGY PREDICTED BY IDOCK:  -11.02 KCAL/MOL
REMARK 923 INTER-LIGAND FREE ENERGY PREDICTED BY IDOCK:   -7.90 KCAL/MOL
REMARK 924 INTRA-LIGAND FREE ENERGY PREDICTED BY IDOCK:   -3.12 KCAL/MOL
REMARK 927      BINDING AFFINITY PREDICTED BY RF-SCORE:    0.00 PKD
ROOT
HETATM    1 MG   UNL     3     -12.625  11.106  68.678  1.00  0.00    -0.316 Mg 
HETATM    2  O   UNL     4     -12.299  14.062  63.231  1.00  0.00    -1.133 OA 
HETATM    3  C   UNL     4     -12.245  12.840  63.941  1.00  0.00    -0.463 C  
HETATM    4  H   UNL     4     -13.115  14.179  62.757  1.00  0.00     0.000 HD 
HETATM    5  O   UNL     5      -7.387   7.870  73.293  1.00  0.00    -0.098 OA 
HETATM    6  H   UNL     5      -7.035   8.495  73.915  1.00  0.00     0.000 HD 
HETATM    7  C   UNL     5      -7.368   8.381  71.960  1.00  0.00    -0.097 C  
ENDROOT
BRANCH   3   8
HETATM    8  C   UNL     4     -10.926  12.651  64.706  1.00  0.00    -0.302 C  
HETATM    9  O   UNL     4     -10.260  13.920  64.842  1.00  0.00    -0.480 OA 
HETATM   10  H   UNL     4      -9.444  13.803  65.315  1.00  0.00     0.000 HD 
BRANCH   8  11
HETATM   11  C   UNL     4     -10.968  12.020  66.129  1.00  0.00    -0.302 C  
HETATM   12  O   UNL     4     -12.265  12.042  66.716  1.00  0.00    -0.545 OA 
HETATM   13  H   UNL     4     -12.290  11.657  67.584  1.00  0.00     0.000 HD 
BRANCH  11  14
HETATM   14  C   UNL     4     -10.275  10.647  66.337  1.00  0.00    -0.234 C  
HETATM   15  H   UNL     4     -10.597   9.111  67.501  1.00  0.00     0.000 HD 
HETATM   16  O   UNL     4     -11.021   9.951  67.373  1.00  0.00    -0.269 OA 
BRANCH  14  17
HETATM   17  C   UNL     4      -8.748  10.580  66.625  1.00  0.00    -0.133 C  
HETATM   18  C   UNL     4      -8.078   9.258  66.062  1.00  0.00    -0.110 C  
HETATM   19  H   UNL     4      -7.510  10.826  68.175  1.00  0.00     0.000 HD 
HETATM   20  O   UNL     4      -8.443  10.867  67.999  1.00  0.00    -0.123 OA 
HETATM   21  O   UNL     4      -8.559   8.876  64.914  1.00  0.00    -0.175 OA 
HETATM   22  O   UNL     4      -7.234   8.650  66.776  1.00  0.00    -0.077 OA 
ENDBRANCH  14  17
ENDBRANCH  11  14
ENDBRANCH   8  11
ENDBRANCH   3   8
BRANCH   7  23
HETATM   23  C   UNL     5      -7.940   7.366  70.950  1.00  0.00    -0.097 C  
HETATM   24  O   UNL     5      -8.463   6.255  71.679  1.00  0.00    -0.128 OA 
HETATM   25  H   UNL     5      -8.815   5.630  71.057  1.00  0.00     0.000 HD 
BRANCH  23  26
HETATM   26  C   UNL     5      -9.023   8.003  70.052  1.00  0.00    -0.144 C  
HETATM   27  O   UNL     5      -9.115   7.262  68.814  1.00  0.00    -0.130 OA 
HETATM   28  H   UNL     5      -9.782   7.654  68.262  1.00  0.00     0.000 HD 
BRANCH  26  29
HETATM   29  C   UNL     5     -10.438   8.215  70.659  1.00  0.00    -0.210 C  
HETATM   30  O   UNL     5     -11.465   7.557  69.918  1.00  0.00    -0.470 OA 
HETATM   31  H   UNL     5     -12.330   7.686  70.289  1.00  0.00     0.000 HD 
BRANCH  29  32
HETATM   32  C   UNL     5     -10.851   9.647  71.037  1.00  0.00    -0.342 C  
HETATM   33  C   UNL     5     -12.329   9.843  71.434  1.00  0.00    -0.404 C  
HETATM   34  O   UNL     5     -10.485  10.588  69.965  1.00  0.00    -0.410 OA 
HETATM   35  O   UNL     5     -12.892   8.890  72.051  1.00  0.00    -0.343 OA 
HETATM   36  O   UNL     5     -12.828  10.948  71.017  1.00  0.00    -0.368 OA 
HETATM   37  H   UNL     5     -10.740  11.472  70.198  1.00  0.00     0.000 HD 
ENDBRANCH  29  32
ENDBRANCH  26  29
ENDBRANCH  23  26
ENDBRANCH   7  23
TORSDOF 8
ENDMDL
MODEL      112
REMARK 921   NORMALIZED FREE ENERGY PREDICTED BY IDOCK:   -5.97 KCAL/MOL
REMARK 922        TOTAL FREE ENERGY PREDICTED BY IDOCK:  -11.01 KCAL/MOL
REMARK 923 INTER-LIGAND FREE ENERGY PREDICTED BY IDOCK:   -9.26 KCAL/MOL
REMARK 924 INTRA-LIGAND FREE ENERGY PREDICTED BY IDOCK:   -1.75 KCAL/MOL
REMARK 927      BINDING AFFINITY PREDICTED BY RF-SCORE:    0.00 PKD
ROOT
HETATM    1 MG   UNL     3      -8.572  10.586  70.472  1.00  0.00    -0.324 Mg 
HETATM    2  O   UNL     4     -12.274   6.059  72.549  1.00  0.00    -0.533 OA 
HETATM    3  C   UNL     4     -11.870   6.884  71.473  1.00  0.00    -0.324 C  
HETATM    4  H   UNL     4     -11.945   5.170  72.477  1.00  0.00     0.000 HD 
HETATM    5  O   UNL     5      -9.694  18.002  68.751  1.00  0.00    -0.336 OA 
HETATM    6  H   UNL     5      -9.566  18.561  69.509  1.00  0.00     0.000 HD 
HETATM    7  C   UNL     5     -10.554  16.901  69.044  1.00  0.00    -0.338 C  
ENDROOT
BRANCH   3   8
HETATM    8  C   UNL     4     -12.401   8.320  71.589  1.00  0.00    -0.315 C  
HETATM    9  O   UNL     4     -13.225   8.438  72.765  1.00  0.00    -0.626 OA 
HETATM   10  H   UNL     4     -13.554   9.327  72.836  1.00  0.00     0.000 HD 
BRANCH   8  11
HETATM   11  C   UNL     4     -11.381   9.495  71.646  1.00  0.00    -0.341 C  
HETATM   12  O   UNL     4     -10.057   9.076  71.955  1.00  0.00    -0.339 OA 
HETATM   13  H   UNL     4      -9.435   9.793  71.989  1.00  0.00     0.000 HD 
BRANCH  11  14
HETATM   14  C   UNL     4     -11.393  10.526  70.485  1.00  0.00    -0.314 C  
HETATM   15  H   UNL     4     -12.347  12.197  70.145  1.00  0.00     0.000 HD 
HETATM   16  O   UNL     4     -12.340  11.566  70.855  1.00  0.00    -0.377 OA 
BRANCH  14  17
HETATM   17  C   UNL     4     -11.644  10.054  69.024  1.00  0.00     0.069 C  
HETATM   18  C   UNL     4     -10.347   9.439  68.351  1.00  0.00    -0.205 C  
HETATM   19  H   UNL     4     -12.462  10.766  67.346  1.00  0.00     0.000 HD 
HETATM   20  O   UNL     4     -12.309  11.055  68.238  1.00  0.00    -0.479 OA 
HETATM   21  O   UNL     4      -9.619   8.731  69.167  1.00  0.00    -0.159 OA 
HETATM   22  O   UNL     4     -10.078   9.741  67.156  1.00  0.00    -0.186 OA 
ENDBRANCH  14  17
ENDBRANCH  11  14
ENDBRANCH   8  11
ENDBRANCH   3   8
BRANCH   7  23
HETATM   23  C   UNL     5     -10.760  15.994  67.814  1.00  0.00    -0.323 C  
HETATM   24  O   UNL     5      -9.576  16.045  67.016  1.00  0.00    -0.215 OA 
HETATM   25  H   UNL     5      -9.704  15.486  66.258  1.00  0.00     0.000 HD 
BRANCH  23  26
HETATM   26  C   UNL     5     -11.094  14.543  68.224  1.00  0.00    -0.261 C  
HETATM   27  O   UNL     5     -12.428  14.496  68.778  1.00  0.00    -0.579 OA 
HETATM   28  H   UNL     5     -12.634  13.603  69.030  1.00  0.00     0.000 HD 
BRANCH  26  29
HETATM   29  C   UNL     5     -10.914  13.427  67.158  1.00  0.00    -0.280 C  
HETATM   30  O   UNL     5      -9.757  12.623  67.385  1.00  0.00    -0.194 OA 
HETATM   31  H   UNL     5      -9.647  11.940  66.733  1.00  0.00     0.000 HD 
BRANCH  29  32
HETATM   32  C   UNL     5     -11.041  13.819  65.677  1.00  0.00    -0.295 C  
HETATM   33  C   UNL     5     -12.438  13.638  65.046  1.00  0.00    -0.414 C  
HETATM   34  O   UNL     5     -10.026  13.122  64.871  1.00  0.00    -0.512 OA 
HETATM   35  O   UNL     5     -13.440  13.842  65.794  1.00  0.00    -0.464 OA 
HETATM   36  O   UNL     5     -12.401  13.225  63.833  1.00  0.00    -0.595 OA 
HETATM   37  H   UNL     5     -10.105  13.364  63.956  1.00  0.00     0.000 HD 
ENDBRANCH  29  32
ENDBRANCH  26  29
ENDBRANCH  23  26
ENDBRANCH   7  23
TORSDOF 8
ENDMDL
MODEL      113
REMARK 921   NORMALIZED FREE ENERGY PREDICTED BY IDOCK:   -5.97 KCAL/MOL
REMARK 922        TOTAL FREE ENERGY PREDICTED BY IDOCK:  -11.01 KCAL/MOL
REMARK 923 INTER-LIGAND FREE ENERGY PREDICTED BY IDOCK:   -9.67 KCAL/MOL
REMARK 924 INTRA-LIGAND FREE ENERGY PREDICTED BY IDOCK:   -1.34 KCAL/MOL
REMARK 927      BINDING AFFINITY PREDICTED BY RF-SCORE:    0.00 PKD
ROOT
HETATM    1 MG   UNL     3     -11.042  10.455  64.045  1.00  0.00    -0.443 Mg 
HETATM    2  O   UNL     4     -10.435   4.952  66.851  1.00  0.00    -0.221 OA 
HETATM    3  C   UNL     4     -11.026   6.237  66.838  1.00  0.00    -0.329 C  
HETATM    4  H   UNL     4     -11.035   4.266  66.582  1.00  0.00     0.000 HD 
HETATM    5  O   UNL     5      -8.425  17.525  65.584  1.00  0.00    -0.451 OA 
HETATM    6  H   UNL     5      -7.574  17.677  65.190  1.00  0.00     0.000 HD 
HETATM    7  C   UNL     5      -8.462  16.293  66.304  1.00  0.00    -0.334 C  
ENDROOT
BRANCH   3   8
HETATM    8  C   UNL     4     -10.057   7.346  67.272  1.00  0.00    -0.228 C  
HETATM    9  O   UNL     4     -10.216   8.492  66.414  1.00  0.00    -0.371 OA 
HETATM   10  H   UNL     4      -9.615   9.178  66.682  1.00  0.00     0.000 HD 
BRANCH   8  11
HETATM   11  C   UNL     4     -10.130   7.877  68.734  1.00  0.00    -0.193 C  
HETATM   12  O   UNL     4      -9.304   7.151  69.638  1.00  0.00    -0.150 OA 
HETATM   13  H   UNL     4      -9.349   7.476  70.530  1.00  0.00     0.000 HD 
BRANCH  11  14
HETATM   14  C   UNL     4     -10.009   9.408  68.960  1.00  0.00    -0.177 C  
HETATM   15  H   UNL     4      -8.869  10.545  70.068  1.00  0.00     0.000 HD 
HETATM   16  O   UNL     4      -8.943   9.608  69.929  1.00  0.00    -0.189 OA 
BRANCH  14  17
HETATM   17  C   UNL     4     -11.264  10.242  69.347  1.00  0.00    -0.239 C  
HETATM   18  C   UNL     4     -11.466  11.508  68.417  1.00  0.00    -0.298 C  
HETATM   19  H   UNL     4     -12.082  11.028  70.993  1.00  0.00     0.000 HD 
HETATM   20  O   UNL     4     -11.315  10.520  70.756  1.00  0.00    -0.327 OA 
HETATM   21  O   UNL     4     -11.167  11.294  67.168  1.00  0.00    -0.293 OA 
HETATM   22  O   UNL     4     -11.799  12.606  68.943  1.00  0.00    -0.302 OA 
ENDBRANCH  14  17
ENDBRANCH  11  14
ENDBRANCH   8  11
ENDBRANCH   3   8
BRANCH   7  23
HETATM   23  C   UNL     5      -9.843  16.046  66.943  1.00  0.00    -0.245 C  
HETATM   24  O   UNL     5      -9.933  16.832  68.133  1.00  0.00    -0.252 OA 
HETATM   25  H   UNL     5     -10.783  16.680  68.528  1.00  0.00     0.000 HD 
BRANCH  23  26
HETATM   26  C   UNL     5     -10.993  16.381  65.968  1.00  0.00     0.029 C  
HETATM   27  O   UNL     5     -10.774  17.693  65.402  1.00  0.00    -0.618 OA 
HETATM   28  H   UNL     5     -11.482  17.899  64.802  1.00  0.00     0.000 HD 
BRANCH  26  29
HETATM   29  C   UNL     5     -11.314  15.356  64.844  1.00  0.00    -0.363 C  
HETATM   30  O   UNL     5     -11.989  15.945  63.733  1.00  0.00    -1.238 OA 
HETATM   31  H   UNL     5     -12.186  15.319  63.045  1.00  0.00     0.000 HD 
BRANCH  29  32
HETATM   32  C   UNL     5     -11.962  14.023  65.250  1.00  0.00    -0.379 C  
HETATM   33  C   UNL     5     -11.967  12.917  64.174  1.00  0.00    -0.423 C  
HETATM   34  O   UNL     5     -13.327  14.246  65.754  1.00  0.00    -0.632 OA 
HETATM   35  O   UNL     5     -10.972  12.870  63.390  1.00  0.00    -0.310 OA 
HETATM   36  O   UNL     5     -13.039  12.214  64.168  1.00  0.00    -0.694 OA 
HETATM   37  H   UNL     5     -13.727  13.423  66.005  1.00  0.00     0.000 HD 
ENDBRANCH  29  32
ENDBRANCH  26  29
ENDBRANCH  23  26
ENDBRANCH   7  23
TORSDOF 8
ENDMDL
MODEL      114
REMARK 921   NORMALIZED FREE ENERGY PREDICTED BY IDOCK:   -5.97 KCAL/MOL
REMARK 922        TOTAL FREE ENERGY PREDICTED BY IDOCK:  -11.00 KCAL/MOL
REMARK 923 INTER-LIGAND FREE ENERGY PREDICTED BY IDOCK:   -9.34 KCAL/MOL
REMARK 924 INTRA-LIGAND FREE ENERGY PREDICTED BY IDOCK:   -1.66 KCAL/MOL
REMARK 927      BINDING AFFINITY PREDICTED BY RF-SCORE:    0.00 PKD
ROOT
HETATM    1 MG   UNL     3     -10.919  10.397  65.829  1.00  0.00    -0.210 Mg 
HETATM    2  O   UNL     4     -11.636  16.228  63.829  1.00  0.00    -1.539 OA 
HETATM    3  C   UNL     4     -10.993  15.330  64.712  1.00  0.00    -0.386 C  
HETATM    4  H   UNL     4     -11.077  16.507  63.112  1.00  0.00     0.000 HD 
HETATM    5  O   UNL     5     -13.171   6.630  72.150  1.00  0.00    -0.544 OA 
HETATM    6  H   UNL     5     -14.030   6.241  72.038  1.00  0.00     0.000 HD 
HETATM    7  C   UNL     5     -13.155   8.001  71.754  1.00  0.00    -0.336 C  
ENDROOT
BRANCH   3   8
HETATM    8  C   UNL     4     -11.896  14.879  65.870  1.00  0.00    -0.113 C  
HETATM    9  O   UNL     4     -12.384  13.549  65.613  1.00  0.00    -0.425 OA 
HETATM   10  H   UNL     4     -12.943  13.270  66.329  1.00  0.00     0.000 HD 
BRANCH   8  11
HETATM   11  C   UNL     4     -11.314  14.865  67.313  1.00  0.00    -0.349 C  
HETATM   12  O   UNL     4     -12.031  15.700  68.217  1.00  0.00    -0.450 OA 
HETATM   13  H   UNL     4     -11.676  15.691  69.098  1.00  0.00     0.000 HD 
BRANCH  11  14
HETATM   14  C   UNL     4     -10.985  13.489  67.953  1.00  0.00    -0.256 C  
HETATM   15  H   UNL     4     -10.073  11.874  67.338  1.00  0.00     0.000 HD 
HETATM   16  O   UNL     4     -10.274  12.716  66.947  1.00  0.00    -0.231 OA 
BRANCH  14  17
HETATM   17  C   UNL     4     -12.117  12.638  68.597  1.00  0.00    -0.102 C  
HETATM   18  C   UNL     4     -12.155  12.769  70.176  1.00  0.00    -0.298 C  
HETATM   19  H   UNL     4     -12.814  10.767  68.502  1.00  0.00     0.000 HD 
HETATM   20  O   UNL     4     -12.123  11.287  68.109  1.00  0.00    -0.635 OA 
HETATM   21  O   UNL     4     -11.894  13.970  70.608  1.00  0.00    -0.298 OA 
HETATM   22  O   UNL     4     -12.336  11.732  70.871  1.00  0.00    -0.375 OA 
ENDBRANCH  14  17
ENDBRANCH  11  14
ENDBRANCH   8  11
ENDBRANCH   3   8
BRANCH   7  23
HETATM   23  C   UNL     5     -11.759   8.632  71.935  1.00  0.00    -0.352 C  
HETATM   24  O   UNL     5     -10.979   7.764  72.759  1.00  0.00    -0.328 OA 
HETATM   25  H   UNL     5     -10.119   8.153  72.870  1.00  0.00     0.000 HD 
BRANCH  23  26
HETATM   26  C   UNL     5     -11.066   8.884  70.578  1.00  0.00    -0.251 C  
HETATM   27  O   UNL     5      -9.993   9.836  70.758  1.00  0.00    -0.316 OA 
HETATM   28  H   UNL     5      -9.567   9.991  69.923  1.00  0.00     0.000 HD 
BRANCH  26  29
HETATM   29  C   UNL     5     -10.563   7.651  69.778  1.00  0.00    -0.244 C  
HETATM   30  O   UNL     5     -11.616   6.762  69.407  1.00  0.00    -0.593 OA 
HETATM   31  H   UNL     5     -11.308   6.007  68.917  1.00  0.00     0.000 HD 
BRANCH  29  32
HETATM   32  C   UNL     5      -9.350   6.883  70.329  1.00  0.00    -0.162 C  
HETATM   33  C   UNL     5      -9.664   5.743  71.321  1.00  0.00    -0.171 C  
HETATM   34  O   UNL     5      -8.376   7.815  70.920  1.00  0.00    -0.108 OA 
HETATM   35  O   UNL     5     -10.732   5.090  71.130  1.00  0.00    -0.138 OA 
HETATM   36  O   UNL     5      -8.813   5.648  72.276  1.00  0.00    -0.132 OA 
HETATM   37  H   UNL     5      -7.627   7.341  71.260  1.00  0.00     0.000 HD 
ENDBRANCH  29  32
ENDBRANCH  26  29
ENDBRANCH  23  26
ENDBRANCH   7  23
TORSDOF 8
ENDMDL
MODEL      115
REMARK 921   NORMALIZED FREE ENERGY PREDICTED BY IDOCK:   -5.97 KCAL/MOL
REMARK 922        TOTAL FREE ENERGY PREDICTED BY IDOCK:  -11.00 KCAL/MOL
REMARK 923 INTER-LIGAND FREE ENERGY PREDICTED BY IDOCK:   -8.79 KCAL/MOL
REMARK 924 INTRA-LIGAND FREE ENERGY PREDICTED BY IDOCK:   -2.22 KCAL/MOL
REMARK 927      BINDING AFFINITY PREDICTED BY RF-SCORE:    0.00 PKD
ROOT
HETATM    1 MG   UNL     3      -8.477  11.359  64.172  1.00  0.00    -0.345 Mg 
HETATM    2  O   UNL     4     -11.722  16.636  63.796  1.00  0.00    -1.431 OA 
HETATM    3  C   UNL     4     -11.094  15.666  64.611  1.00  0.00    -0.373 C  
HETATM    4  H   UNL     4     -11.223  17.442  63.728  1.00  0.00     0.000 HD 
HETATM    5  O   UNL     5     -10.265   4.151  66.189  1.00  0.00    -0.394 OA 
HETATM    6  H   UNL     5     -10.565   3.643  65.445  1.00  0.00     0.000 HD 
HETATM    7  C   UNL     5     -10.933   5.410  66.275  1.00  0.00     0.021 C  
ENDROOT
BRANCH   3   8
HETATM    8  C   UNL     4     -11.901  14.363  64.720  1.00  0.00    -0.433 C  
HETATM    9  O   UNL     4     -12.468  14.037  63.438  1.00  0.00    -1.108 OA 
HETATM   10  H   UNL     4     -12.967  13.231  63.505  1.00  0.00     0.000 HD 
BRANCH   8  11
HETATM   11  C   UNL     4     -11.185  13.077  65.227  1.00  0.00    -0.289 C  
HETATM   12  O   UNL     4      -9.930  12.846  64.595  1.00  0.00    -0.523 OA 
HETATM   13  H   UNL     4      -9.493  12.061  64.904  1.00  0.00     0.000 HD 
BRANCH  11  14
HETATM   14  C   UNL     4     -11.098  12.847  66.760  1.00  0.00    -0.281 C  
HETATM   15  H   UNL     4     -11.915  11.582  68.004  1.00  0.00     0.000 HD 
HETATM   16  O   UNL     4     -11.968  11.722  67.066  1.00  0.00    -0.610 OA 
BRANCH  14  17
HETATM   17  C   UNL     4     -11.361  14.025  67.741  1.00  0.00    -0.303 C  
HETATM   18  C   UNL     4     -10.024  14.713  68.240  1.00  0.00    -0.222 C  
HETATM   19  H   UNL     4     -12.435  14.382  69.389  1.00  0.00     0.000 HD 
HETATM   20  O   UNL     4     -12.274  13.663  68.789  1.00  0.00    -0.339 OA 
HETATM   21  O   UNL     4      -9.106  14.803  67.320  1.00  0.00    -0.187 OA 
HETATM   22  O   UNL     4      -9.915  15.027  69.457  1.00  0.00    -0.205 OA 
ENDBRANCH  14  17
ENDBRANCH  11  14
ENDBRANCH   8  11
ENDBRANCH   3   8
BRANCH   7  23
HETATM   23  C   UNL     5     -10.446   6.234  67.484  1.00  0.00    -0.236 C  
HETATM   24  O   UNL     5      -9.856   5.339  68.429  1.00  0.00    -0.137 OA 
HETATM   25  H   UNL     5      -9.556   5.847  69.173  1.00  0.00     0.000 HD 
BRANCH  23  26
HETATM   26  C   UNL     5      -9.447   7.333  67.060  1.00  0.00    -0.156 C  
HETATM   27  O   UNL     5      -9.066   7.129  65.680  1.00  0.00    -0.371 OA 
HETATM   28  H   UNL     5      -8.452   7.805  65.420  1.00  0.00     0.000 HD 
BRANCH  26  29
HETATM   29  C   UNL     5      -9.854   8.815  67.293  1.00  0.00    -0.201 C  
HETATM   30  O   UNL     5     -10.468   9.408  66.149  1.00  0.00    -0.162 OA 
HETATM   31  H   UNL     5     -10.717  10.314  66.291  1.00  0.00     0.000 HD 
BRANCH  29  32
HETATM   32  C   UNL     5      -8.813   9.756  67.920  1.00  0.00    -0.122 C  
HETATM   33  C   UNL     5      -7.503   9.942  67.126  1.00  0.00    -0.091 C  
HETATM   34  O   UNL     5      -8.515   9.345  69.302  1.00  0.00    -0.127 OA 
HETATM   35  O   UNL     5      -7.586   9.922  65.862  1.00  0.00    -0.100 OA 
HETATM   36  O   UNL     5      -6.462  10.027  67.871  1.00  0.00    -0.058 OA 
HETATM   37  H   UNL     5      -7.872   9.926  69.690  1.00  0.00     0.000 HD 
ENDBRANCH  29  32
ENDBRANCH  26  29
ENDBRANCH  23  26
ENDBRANCH   7  23
TORSDOF 8
ENDMDL
MODEL      116
REMARK 921   NORMALIZED FREE ENERGY PREDICTED BY IDOCK:   -5.97 KCAL/MOL
REMARK 922        TOTAL FREE ENERGY PREDICTED BY IDOCK:  -11.00 KCAL/MOL
REMARK 923 INTER-LIGAND FREE ENERGY PREDICTED BY IDOCK:   -8.99 KCAL/MOL
REMARK 924 INTRA-LIGAND FREE ENERGY PREDICTED BY IDOCK:   -2.01 KCAL/MOL
REMARK 927      BINDING AFFINITY PREDICTED BY RF-SCORE:    0.00 PKD
ROOT
HETATM    1 MG   UNL     3      -7.217  10.192  64.661  1.00  0.00    -0.107 Mg 
HETATM    2  O   UNL     4      -5.822   6.683  69.587  1.00  0.00    -0.014 OA 
HETATM    3  C   UNL     4      -6.783   7.085  68.630  1.00  0.00    -0.063 C  
HETATM    4  H   UNL     4      -5.461   5.822  69.411  1.00  0.00     0.000 HD 
HETATM    5  O   UNL     5     -11.412  16.570  63.693  1.00  0.00    -1.421 OA 
HETATM    6  H   UNL     5     -10.890  17.354  63.814  1.00  0.00     0.000 HD 
HETATM    7  C   UNL     5     -11.231  15.643  64.764  1.00  0.00    -0.382 C  
ENDROOT
BRANCH   3   8
HETATM    8  C   UNL     4      -7.365   8.477  68.914  1.00  0.00    -0.086 C  
HETATM    9  O   UNL     4      -8.144   8.916  67.786  1.00  0.00    -0.105 OA 
HETATM   10  H   UNL     4      -8.504   9.778  67.962  1.00  0.00     0.000 HD 
BRANCH   8  11
HETATM   11  C   UNL     4      -8.261   8.673  70.172  1.00  0.00    -0.123 C  
HETATM   12  O   UNL     4      -8.363  10.032  70.584  1.00  0.00    -0.385 OA 
HETATM   13  H   UNL     4      -8.910  10.151  71.352  1.00  0.00     0.000 HD 
BRANCH  11  14
HETATM   14  C   UNL     4      -9.644   7.968  70.198  1.00  0.00    -0.175 C  
HETATM   15  H   UNL     4     -11.154   7.864  68.963  1.00  0.00     0.000 HD 
HETATM   16  O   UNL     4     -10.308   8.295  68.947  1.00  0.00    -0.214 OA 
BRANCH  14  17
HETATM   17  C   UNL     4     -10.607   8.184  71.401  1.00  0.00    -0.220 C  
HETATM   18  C   UNL     4     -11.683   7.028  71.535  1.00  0.00    -0.300 C  
HETATM   19  H   UNL     4     -11.738   9.645  72.162  1.00  0.00     0.000 HD 
HETATM   20  O   UNL     4     -11.150   9.513  71.428  1.00  0.00    -0.351 OA 
HETATM   21  O   UNL     4     -11.218   5.844  71.256  1.00  0.00    -0.273 OA 
HETATM   22  O   UNL     4     -12.878   7.335  71.800  1.00  0.00    -0.339 OA 
ENDBRANCH  14  17
ENDBRANCH  11  14
ENDBRANCH   8  11
ENDBRANCH   3   8
BRANCH   7  23
HETATM   23  C   UNL     5     -12.078  14.370  64.568  1.00  0.00    -0.481 C  
HETATM   24  O   UNL     5     -12.659  14.415  63.263  1.00  0.00    -1.043 OA 
HETATM   25  H   UNL     5     -13.181  13.631  63.142  1.00  0.00     0.000 HD 
BRANCH  23  26
HETATM   26  C   UNL     5     -11.238  13.089  64.758  1.00  0.00    -0.317 C  
HETATM   27  O   UNL     5     -10.054  13.165  63.932  1.00  0.00    -0.733 OA 
HETATM   28  H   UNL     5      -9.536  12.377  64.050  1.00  0.00     0.000 HD 
BRANCH  26  29
HETATM   29  C   UNL     5     -10.856  12.678  66.208  1.00  0.00    -0.273 C  
HETATM   30  O   UNL     5     -11.673  13.305  67.196  1.00  0.00    -0.335 OA 
HETATM   31  H   UNL     5     -11.441  13.054  68.083  1.00  0.00     0.000 HD 
BRANCH  29  32
HETATM   32  C   UNL     5      -9.371  12.722  66.601  1.00  0.00    -0.242 C  
HETATM   33  C   UNL     5      -9.047  12.362  68.066  1.00  0.00    -0.195 C  
HETATM   34  O   UNL     5      -8.786  14.029  66.258  1.00  0.00    -0.469 OA 
HETATM   35  O   UNL     5      -9.773  11.482  68.618  1.00  0.00    -0.197 OA 
HETATM   36  O   UNL     5      -8.103  13.069  68.569  1.00  0.00    -0.143 OA 
HETATM   37  H   UNL     5      -7.868  14.055  66.500  1.00  0.00     0.000 HD 
ENDBRANCH  29  32
ENDBRANCH  26  29
ENDBRANCH  23  26
ENDBRANCH   7  23
TORSDOF 8
ENDMDL
MODEL      117
REMARK 921   NORMALIZED FREE ENERGY PREDICTED BY IDOCK:   -5.94 KCAL/MOL
REMARK 922        TOTAL FREE ENERGY PREDICTED BY IDOCK:  -10.96 KCAL/MOL
REMARK 923 INTER-LIGAND FREE ENERGY PREDICTED BY IDOCK:   -9.16 KCAL/MOL
REMARK 924 INTRA-LIGAND FREE ENERGY PREDICTED BY IDOCK:   -1.80 KCAL/MOL
REMARK 927      BINDING AFFINITY PREDICTED BY RF-SCORE:    0.00 PKD
ROOT
HETATM    1 MG   UNL     3     -12.124   6.370  67.824  1.00  0.00    -0.580 Mg 
HETATM    2  O   UNL     4     -11.142   4.237  73.568  1.00  0.00    -0.260 OA 
HETATM    3  C   UNL     4     -11.808   5.155  72.724  1.00  0.00    -0.033 C  
HETATM    4  H   UNL     4     -11.704   3.531  73.865  1.00  0.00     0.000 HD 
HETATM    5  O   UNL     5      -9.906  12.700  64.051  1.00  0.00    -0.606 OA 
HETATM    6  H   UNL     5      -9.073  12.573  63.613  1.00  0.00     0.000 HD 
HETATM    7  C   UNL     5      -9.858  12.278  65.414  1.00  0.00    -0.192 C  
ENDROOT
BRANCH   3   8
HETATM    8  C   UNL     4     -10.899   6.296  72.244  1.00  0.00    -0.240 C  
HETATM    9  O   UNL     4      -9.595   5.775  71.928  1.00  0.00    -0.151 OA 
HETATM   10  H   UNL     4      -9.032   6.481  71.632  1.00  0.00     0.000 HD 
BRANCH   8  11
HETATM   11  C   UNL     4     -11.345   7.145  71.018  1.00  0.00    -0.279 C  
HETATM   12  O   UNL     4     -12.525   6.654  70.392  1.00  0.00    -0.500 OA 
HETATM   13  H   UNL     4     -12.796   7.172  69.643  1.00  0.00     0.000 HD 
BRANCH  11  14
HETATM   14  C   UNL     4     -11.389   8.689  71.178  1.00  0.00    -0.275 C  
HETATM   15  H   UNL     4     -10.250  10.010  72.059  1.00  0.00     0.000 HD 
HETATM   16  O   UNL     4     -10.223   9.065  71.961  1.00  0.00    -0.339 OA 
BRANCH  14  17
HETATM   17  C   UNL     4     -12.667   9.378  71.736  1.00  0.00    -0.390 C  
HETATM   18  C   UNL     4     -12.779  10.899  71.303  1.00  0.00    -0.437 C  
HETATM   19  H   UNL     4     -13.619   9.564  73.484  1.00  0.00     0.000 HD 
HETATM   20  O   UNL     4     -12.839   9.144  73.143  1.00  0.00    -0.040 OA 
HETATM   21  O   UNL     4     -12.374  11.127  70.086  1.00  0.00    -0.304 OA 
HETATM   22  O   UNL     4     -13.148  11.752  72.156  1.00  0.00    -0.452 OA 
ENDBRANCH  14  17
ENDBRANCH  11  14
ENDBRANCH   8  11
ENDBRANCH   3   8
BRANCH   7  23
HETATM   23  C   UNL     5     -11.210  12.484  66.125  1.00  0.00    -0.321 C  
HETATM   24  O   UNL     5     -11.424  11.383  67.010  1.00  0.00    -0.452 OA 
HETATM   25  H   UNL     5     -12.257  11.510  67.448  1.00  0.00     0.000 HD 
BRANCH  23  26
HETATM   26  C   UNL     5     -11.256  13.827  66.887  1.00  0.00    -0.313 C  
HETATM   27  O   UNL     5     -12.594  14.372  66.817  1.00  0.00    -0.540 OA 
HETATM   28  H   UNL     5     -12.622  15.198  67.286  1.00  0.00     0.000 HD 
BRANCH  26  29
HETATM   29  C   UNL     5     -10.741  13.849  68.353  1.00  0.00    -0.257 C  
HETATM   30  O   UNL     5     -10.368  12.557  68.831  1.00  0.00    -0.390 OA 
HETATM   31  H   UNL     5     -10.053  12.571  69.727  1.00  0.00     0.000 HD 
BRANCH  29  32
HETATM   32  C   UNL     5     -11.573  14.614  69.395  1.00  0.00    -0.305 C  
HETATM   33  C   UNL     5     -11.301  16.129  69.500  1.00  0.00    -0.321 C  
HETATM   34  O   UNL     5     -11.444  13.983  70.719  1.00  0.00    -0.516 OA 
HETATM   35  O   UNL     5     -11.003  16.737  68.429  1.00  0.00    -0.355 OA 
HETATM   36  O   UNL     5     -11.345  16.574  70.702  1.00  0.00    -0.312 OA 
HETATM   37  H   UNL     5     -11.958  14.454  71.363  1.00  0.00     0.000 HD 
ENDBRANCH  29  32
ENDBRANCH  26  29
ENDBRANCH  23  26
ENDBRANCH   7  23
TORSDOF 8
ENDMDL
MODEL      118
REMARK 921   NORMALIZED FREE ENERGY PREDICTED BY IDOCK:   -5.94 KCAL/MOL
REMARK 922        TOTAL FREE ENERGY PREDICTED BY IDOCK:  -10.96 KCAL/MOL
REMARK 923 INTER-LIGAND FREE ENERGY PREDICTED BY IDOCK:   -8.61 KCAL/MOL
REMARK 924 INTRA-LIGAND FREE ENERGY PREDICTED BY IDOCK:   -2.35 KCAL/MOL
REMARK 927      BINDING AFFINITY PREDICTED BY RF-SCORE:    0.00 PKD
ROOT
HETATM    1 MG   UNL     3     -14.343  10.033  69.699  1.00  0.00    -0.533 Mg 
HETATM    2  O   UNL     4     -11.334   5.893  73.209  1.00  0.00    -0.467 OA 
HETATM    3  C   UNL     4     -11.492   7.239  72.806  1.00  0.00    -0.230 C  
HETATM    4  H   UNL     4     -11.695   5.718  74.070  1.00  0.00     0.000 HD 
HETATM    5  O   UNL     5     -12.511  13.926  63.319  1.00  0.00    -1.113 OA 
HETATM    6  H   UNL     5     -12.739  13.440  62.535  1.00  0.00     0.000 HD 
HETATM    7  C   UNL     5     -11.781  13.122  64.246  1.00  0.00    -0.395 C  
ENDROOT
BRANCH   3   8
HETATM    8  C   UNL     4     -10.909   7.521  71.414  1.00  0.00    -0.229 C  
HETATM    9  O   UNL     4     -11.951   7.428  70.425  1.00  0.00    -0.505 OA 
HETATM   10  H   UNL     4     -11.590   7.602  69.563  1.00  0.00     0.000 HD 
BRANCH   8  11
HETATM   11  C   UNL     4     -10.183   8.875  71.164  1.00  0.00    -0.266 C  
HETATM   12  O   UNL     4      -8.886   8.934  71.749  1.00  0.00    -0.308 OA 
HETATM   13  H   UNL     4      -8.443   9.760  71.596  1.00  0.00     0.000 HD 
BRANCH  11  14
HETATM   14  C   UNL     4     -10.180   9.444  69.720  1.00  0.00    -0.220 C  
HETATM   15  H   UNL     4     -11.501  10.346  68.599  1.00  0.00     0.000 HD 
HETATM   16  O   UNL     4     -11.503   9.998  69.483  1.00  0.00    -0.208 OA 
BRANCH  14  17
HETATM   17  C   UNL     4      -9.741   8.546  68.528  1.00  0.00    -0.163 C  
HETATM   18  C   UNL     4      -8.474   9.117  67.767  1.00  0.00    -0.117 C  
HETATM   19  H   UNL     4     -10.578   7.651  66.949  1.00  0.00     0.000 HD 
HETATM   20  O   UNL     4     -10.845   8.200  67.676  1.00  0.00    -0.167 OA 
HETATM   21  O   UNL     4      -7.590   9.660  68.555  1.00  0.00    -0.079 OA 
HETATM   22  O   UNL     4      -8.456   9.090  66.505  1.00  0.00    -0.116 OA 
ENDBRANCH  14  17
ENDBRANCH  11  14
ENDBRANCH   8  11
ENDBRANCH   3   8
BRANCH   7  23
HETATM   23  C   UNL     5     -11.411  13.910  65.519  1.00  0.00    -0.316 C  
HETATM   24  O   UNL     5     -11.769  15.279  65.318  1.00  0.00    -0.209 OA 
HETATM   25  H   UNL     5     -11.542  15.764  66.102  1.00  0.00     0.000 HD 
BRANCH  23  26
HETATM   26  C   UNL     5     -12.106  13.331  66.771  1.00  0.00    -0.345 C  
HETATM   27  O   UNL     5     -11.835  11.914  66.856  1.00  0.00    -0.590 OA 
HETATM   28  H   UNL     5     -12.263  11.557  67.626  1.00  0.00     0.000 HD 
BRANCH  26  29
HETATM   29  C   UNL     5     -11.828  14.015  68.138  1.00  0.00    -0.367 C  
HETATM   30  O   UNL     5     -12.381  15.328  68.225  1.00  0.00    -0.507 OA 
HETATM   31  H   UNL     5     -12.212  15.747  69.062  1.00  0.00     0.000 HD 
BRANCH  29  32
HETATM   32  C   UNL     5     -10.391  13.976  68.683  1.00  0.00    -0.238 C  
HETATM   33  C   UNL     5      -9.379  14.913  67.991  1.00  0.00    -0.193 C  
HETATM   34  O   UNL     5      -9.881  12.595  68.690  1.00  0.00    -0.362 OA 
HETATM   35  O   UNL     5      -9.816  16.026  67.573  1.00  0.00    -0.231 OA 
HETATM   36  O   UNL     5      -8.211  14.399  67.865  1.00  0.00    -0.136 OA 
HETATM   37  H   UNL     5      -8.994  12.570  69.026  1.00  0.00     0.000 HD 
ENDBRANCH  29  32
ENDBRANCH  26  29
ENDBRANCH  23  26
ENDBRANCH   7  23
TORSDOF 8
ENDMDL
MODEL      119
REMARK 921   NORMALIZED FREE ENERGY PREDICTED BY IDOCK:   -5.93 KCAL/MOL
REMARK 922        TOTAL FREE ENERGY PREDICTED BY IDOCK:  -10.95 KCAL/MOL
REMARK 923 INTER-LIGAND FREE ENERGY PREDICTED BY IDOCK:   -9.04 KCAL/MOL
REMARK 924 INTRA-LIGAND FREE ENERGY PREDICTED BY IDOCK:   -1.92 KCAL/MOL
REMARK 927      BINDING AFFINITY PREDICTED BY RF-SCORE:    0.00 PKD
ROOT
HETATM    1 MG   UNL     3      -8.760   8.837  69.897  1.00  0.00    -0.109 Mg 
HETATM    2  O   UNL     4     -10.252   4.818  74.385  1.00  0.00    -0.211 OA 
HETATM    3  C   UNL     4     -10.676   5.627  73.305  1.00  0.00    -0.269 C  
HETATM    4  H   UNL     4     -10.213   3.895  74.164  1.00  0.00     0.000 HD 
HETATM    5  O   UNL     5      -9.751  16.415  69.001  1.00  0.00    -0.244 OA 
HETATM    6  H   UNL     5      -9.026  16.909  69.366  1.00  0.00     0.000 HD 
HETATM    7  C   UNL     5     -10.246  15.442  69.922  1.00  0.00    -0.266 C  
ENDROOT
BRANCH   3   8
HETATM    8  C   UNL     4     -10.738   7.119  73.664  1.00  0.00    -0.260 C  
HETATM    9  O   UNL     4      -9.496   7.523  74.271  1.00  0.00    -0.411 OA 
HETATM   10  H   UNL     4      -9.535   8.446  74.493  1.00  0.00     0.000 HD 
BRANCH   8  11
HETATM   11  C   UNL     4     -11.033   8.150  72.535  1.00  0.00    -0.369 C  
HETATM   12  O   UNL     4      -9.891   8.461  71.744  1.00  0.00    -0.195 OA 
HETATM   13  H   UNL     4     -10.072   9.090  71.055  1.00  0.00     0.000 HD 
BRANCH  11  14
HETATM   14  C   UNL     4     -12.290   7.924  71.652  1.00  0.00    -0.315 C  
HETATM   15  H   UNL     4     -12.585   7.356  69.806  1.00  0.00     0.000 HD 
HETATM   16  O   UNL     4     -11.816   7.494  70.346  1.00  0.00    -0.176 OA 
BRANCH  14  17
HETATM   17  C   UNL     4     -13.353   9.050  71.504  1.00  0.00    -0.339 C  
HETATM   18  C   UNL     4     -12.702  10.487  71.354  1.00  0.00    -0.442 C  
HETATM   19  H   UNL     4     -15.029   9.648  72.415  1.00  0.00     0.000 HD 
HETATM   20  O   UNL     4     -14.379   8.960  72.505  1.00  0.00    -0.579 OA 
HETATM   21  O   UNL     4     -11.614  10.497  70.638  1.00  0.00    -0.319 OA 
HETATM   22  O   UNL     4     -13.208  11.456  71.985  1.00  0.00    -0.503 OA 
ENDBRANCH  14  17
ENDBRANCH  11  14
ENDBRANCH   8  11
ENDBRANCH   3   8
BRANCH   7  23
HETATM   23  C   UNL     5     -11.422  14.641  69.329  1.00  0.00    -0.291 C  
HETATM   24  O   UNL     5     -12.309  15.558  68.685  1.00  0.00    -0.552 OA 
HETATM   25  H   UNL     5     -13.034  15.064  68.320  1.00  0.00     0.000 HD 
BRANCH  23  26
HETATM   26  C   UNL     5     -10.936  13.554  68.346  1.00  0.00    -0.266 C  
HETATM   27  O   UNL     5     -10.058  12.639  69.040  1.00  0.00    -0.423 OA 
HETATM   28  H   UNL     5      -9.758  11.970  68.435  1.00  0.00     0.000 HD 
BRANCH  26  29
HETATM   29  C   UNL     5     -12.008  12.767  67.543  1.00  0.00    -0.281 C  
HETATM   30  O   UNL     5     -11.904  11.354  67.713  1.00  0.00    -0.595 OA 
HETATM   31  H   UNL     5     -12.559  10.872  67.222  1.00  0.00     0.000 HD 
BRANCH  29  32
HETATM   32  C   UNL     5     -12.217  13.139  66.066  1.00  0.00    -0.414 C  
HETATM   33  C   UNL     5     -11.029  12.853  65.122  1.00  0.00    -0.289 C  
HETATM   34  O   UNL     5     -12.635  14.545  65.943  1.00  0.00    -0.300 OA 
HETATM   35  O   UNL     5     -10.324  11.831  65.374  1.00  0.00    -0.247 OA 
HETATM   36  O   UNL     5     -10.866  13.751  64.221  1.00  0.00    -0.368 OA 
HETATM   37  H   UNL     5     -12.763  14.775  65.031  1.00  0.00     0.000 HD 
ENDBRANCH  29  32
ENDBRANCH  26  29
ENDBRANCH  23  26
ENDBRANCH   7  23
TORSDOF 8
ENDMDL
MODEL      120
REMARK 921   NORMALIZED FREE ENERGY PREDICTED BY IDOCK:   -5.93 KCAL/MOL
REMARK 922        TOTAL FREE ENERGY PREDICTED BY IDOCK:  -10.94 KCAL/MOL
REMARK 923 INTER-LIGAND FREE ENERGY PREDICTED BY IDOCK:   -8.50 KCAL/MOL
REMARK 924 INTRA-LIGAND FREE ENERGY PREDICTED BY IDOCK:   -2.45 KCAL/MOL
REMARK 927      BINDING AFFINITY PREDICTED BY RF-SCORE:    0.00 PKD
ROOT
HETATM    1 MG   UNL     3     -10.840   9.717  67.314  1.00  0.00    -0.210 Mg 
HETATM    2  O   UNL     4     -13.326   7.159  72.392  1.00  0.00    -0.461 OA 
HETATM    3  C   UNL     4     -13.498   7.973  71.248  1.00  0.00    -0.134 C  
HETATM    4  H   UNL     4     -13.709   6.295  72.293  1.00  0.00     0.000 HD 
HETATM    5  O   UNL     5      -8.640  16.862  65.493  1.00  0.00    -0.296 OA 
HETATM    6  H   UNL     5      -7.736  17.023  65.735  1.00  0.00     0.000 HD 
HETATM    7  C   UNL     5      -9.382  16.287  66.567  1.00  0.00    -0.271 C  
ENDROOT
BRANCH   3   8
HETATM    8  C   UNL     4     -12.879   9.369  71.409  1.00  0.00    -0.345 C  
HETATM    9  O   UNL     4     -13.184   9.886  72.718  1.00  0.00    -0.450 OA 
HETATM   10  H   UNL     4     -12.802  10.750  72.817  1.00  0.00     0.000 HD 
BRANCH   8  11
HETATM   11  C   UNL     4     -11.344   9.536  71.215  1.00  0.00    -0.376 C  
HETATM   12  O   UNL     4     -10.653   8.297  71.104  1.00  0.00    -0.207 OA 
HETATM   13  H   UNL     4      -9.716   8.399  70.986  1.00  0.00     0.000 HD 
BRANCH  11  14
HETATM   14  C   UNL     4     -10.850  10.557  70.154  1.00  0.00    -0.227 C  
HETATM   15  H   UNL     4     -11.609  11.312  68.520  1.00  0.00     0.000 HD 
HETATM   16  O   UNL     4     -11.911  10.687  69.169  1.00  0.00    -0.264 OA 
BRANCH  14  17
HETATM   17  C   UNL     4      -9.476  10.352  69.454  1.00  0.00    -0.183 C  
HETATM   18  C   UNL     4      -9.186  11.448  68.347  1.00  0.00    -0.183 C  
HETATM   19  H   UNL     4      -8.449   8.871  68.591  1.00  0.00     0.000 HD 
HETATM   20  O   UNL     4      -9.288   8.996  69.018  1.00  0.00    -0.139 OA 
HETATM   21  O   UNL     4      -9.600  12.640  68.669  1.00  0.00    -0.146 OA 
HETATM   22  O   UNL     4      -8.682  11.087  67.248  1.00  0.00    -0.128 OA 
ENDBRANCH  14  17
ENDBRANCH  11  14
ENDBRANCH   8  11
ENDBRANCH   3   8
BRANCH   7  23
HETATM   23  C   UNL     5     -10.850  16.026  66.174  1.00  0.00    -0.179 C  
HETATM   24  O   UNL     5     -11.047  16.498  64.840  1.00  0.00    -0.539 OA 
HETATM   25  H   UNL     5     -11.951  16.338  64.597  1.00  0.00     0.000 HD 
BRANCH  23  26
HETATM   26  C   UNL     5     -11.217  14.531  66.294  1.00  0.00    -0.342 C  
HETATM   27  O   UNL     5     -12.644  14.372  66.125  1.00  0.00    -0.416 OA 
HETATM   28  H   UNL     5     -12.869  13.452  66.199  1.00  0.00     0.000 HD 
BRANCH  26  29
HETATM   29  C   UNL     5     -10.452  13.519  65.396  1.00  0.00    -0.315 C  
HETATM   30  O   UNL     5      -9.749  14.149  64.325  1.00  0.00    -0.423 OA 
HETATM   31  H   UNL     5      -9.282  13.530  63.775  1.00  0.00     0.000 HD 
BRANCH  29  32
HETATM   32  C   UNL     5     -11.210  12.272  64.912  1.00  0.00    -0.319 C  
HETATM   33  C   UNL     5     -12.397  12.528  63.961  1.00  0.00    -0.469 C  
HETATM   34  O   UNL     5     -11.644  11.458  66.059  1.00  0.00    -0.243 OA 
HETATM   35  O   UNL     5     -12.291  13.498  63.153  1.00  0.00    -0.712 OA 
HETATM   36  O   UNL     5     -13.393  11.746  64.165  1.00  0.00    -0.521 OA 
HETATM   37  H   UNL     5     -12.112  10.687  65.760  1.00  0.00     0.000 HD 
ENDBRANCH  29  32
ENDBRANCH  26  29
ENDBRANCH  23  26
ENDBRANCH   7  23
TORSDOF 8
ENDMDL
MODEL      121
REMARK 921   NORMALIZED FREE ENERGY PREDICTED BY IDOCK:   -5.92 KCAL/MOL
REMARK 922        TOTAL FREE ENERGY PREDICTED BY IDOCK:  -10.94 KCAL/MOL
REMARK 923 INTER-LIGAND FREE ENERGY PREDICTED BY IDOCK:   -8.69 KCAL/MOL
REMARK 924 INTRA-LIGAND FREE ENERGY PREDICTED BY IDOCK:   -2.25 KCAL/MOL
REMARK 927      BINDING AFFINITY PREDICTED BY RF-SCORE:    0.00 PKD
ROOT
HETATM    1 MG   UNL     3      -6.243  12.120  65.841  1.00  0.00    -0.341 Mg 
HETATM    2  O   UNL     4      -7.530  18.174  65.390  1.00  0.00    -0.499 OA 
HETATM    3  C   UNL     4      -7.385  17.033  66.213  1.00  0.00    -0.259 C  
HETATM    4  H   UNL     4      -6.796  18.774  65.456  1.00  0.00     0.000 HD 
HETATM    5  O   UNL     5     -10.536   5.846  67.034  1.00  0.00    -0.241 OA 
HETATM    6  H   UNL     5     -10.857   5.481  66.218  1.00  0.00     0.000 HD 
HETATM    7  C   UNL     5     -10.773   7.251  67.115  1.00  0.00    -0.343 C  
ENDROOT
BRANCH   3   8
HETATM    8  C   UNL     4      -8.571  16.064  66.106  1.00  0.00    -0.280 C  
HETATM    9  O   UNL     4      -8.318  14.898  66.913  1.00  0.00    -0.237 OA 
HETATM   10  H   UNL     4      -9.052  14.298  66.847  1.00  0.00     0.000 HD 
BRANCH   8  11
HETATM   11  C   UNL     4      -9.991  16.570  66.495  1.00  0.00    -0.285 C  
HETATM   12  O   UNL     4     -10.462  17.622  65.660  1.00  0.00    -0.606 OA 
HETATM   13  H   UNL     4     -11.328  17.931  65.897  1.00  0.00     0.000 HD 
BRANCH  11  14
HETATM   14  C   UNL     4     -11.098  15.510  66.749  1.00  0.00    -0.206 C  
HETATM   15  H   UNL     4     -11.835  14.653  68.342  1.00  0.00     0.000 HD 
HETATM   16  O   UNL     4     -11.158  15.301  68.187  1.00  0.00    -0.282 OA 
BRANCH  14  17
HETATM   17  C   UNL     4     -11.060  14.148  66.000  1.00  0.00    -0.314 C  
HETATM   18  C   UNL     4     -12.441  13.796  65.306  1.00  0.00    -0.480 C  
HETATM   19  H   UNL     4     -10.491  12.265  66.355  1.00  0.00     0.000 HD 
HETATM   20  O   UNL     4     -10.514  13.098  66.813  1.00  0.00    -0.257 OA 
HETATM   21  O   UNL     4     -13.045  14.827  64.788  1.00  0.00    -0.313 OA 
HETATM   22  O   UNL     4     -12.879  12.614  65.382  1.00  0.00    -0.582 OA 
ENDBRANCH  14  17
ENDBRANCH  11  14
ENDBRANCH   8  11
ENDBRANCH   3   8
BRANCH   7  23
HETATM   23  C   UNL     5     -10.251   7.844  68.440  1.00  0.00    -0.202 C  
HETATM   24  O   UNL     5      -8.989   7.241  68.734  1.00  0.00    -0.130 OA 
HETATM   25  H   UNL     5      -8.668   7.606  69.550  1.00  0.00     0.000 HD 
BRANCH  23  26
HETATM   26  C   UNL     5     -10.130   9.382  68.370  1.00  0.00    -0.185 C  
HETATM   27  O   UNL     5      -9.570   9.760  67.092  1.00  0.00    -0.159 OA 
HETATM   28  H   UNL     5      -9.495  10.707  67.048  1.00  0.00     0.000 HD 
BRANCH  26  29
HETATM   29  C   UNL     5     -11.399  10.226  68.672  1.00  0.00    -0.166 C  
HETATM   30  O   UNL     5     -11.938  10.856  67.510  1.00  0.00    -0.543 OA 
HETATM   31  H   UNL     5     -12.714  11.372  67.695  1.00  0.00     0.000 HD 
BRANCH  29  32
HETATM   32  C   UNL     5     -11.350  11.196  69.863  1.00  0.00    -0.268 C  
HETATM   33  C   UNL     5     -12.583  11.191  70.791  1.00  0.00    -0.352 C  
HETATM   34  O   UNL     5     -11.070  12.565  69.400  1.00  0.00    -0.415 OA 
HETATM   35  O   UNL     5     -13.171  10.082  70.964  1.00  0.00    -0.386 OA 
HETATM   36  O   UNL     5     -12.901  12.355  71.225  1.00  0.00    -0.353 OA 
HETATM   37  H   UNL     5     -11.040  13.165  70.135  1.00  0.00     0.000 HD 
ENDBRANCH  29  32
ENDBRANCH  26  29
ENDBRANCH  23  26
ENDBRANCH   7  23
TORSDOF 8
ENDMDL
MODEL      122
REMARK 921   NORMALIZED FREE ENERGY PREDICTED BY IDOCK:   -5.91 KCAL/MOL
REMARK 922        TOTAL FREE ENERGY PREDICTED BY IDOCK:  -10.92 KCAL/MOL
REMARK 923 INTER-LIGAND FREE ENERGY PREDICTED BY IDOCK:   -9.22 KCAL/MOL
REMARK 924 INTRA-LIGAND FREE ENERGY PREDICTED BY IDOCK:   -1.70 KCAL/MOL
REMARK 927      BINDING AFFINITY PREDICTED BY RF-SCORE:    0.00 PKD
ROOT
HETATM    1 MG   UNL     3      -8.400  10.313  70.736  1.00  0.00    -0.253 Mg 
HETATM    2  O   UNL     4      -8.904   4.459  68.737  1.00  0.00    -0.092 OA 
HETATM    3  C   UNL     4      -9.093   5.837  68.482  1.00  0.00    -0.114 C  
HETATM    4  H   UNL     4      -8.155   4.097  68.278  1.00  0.00     0.000 HD 
HETATM    5  O   UNL     5     -13.471  15.532  73.235  1.00  0.00    -0.543 OA 
HETATM    6  H   UNL     5     -13.607  15.468  74.173  1.00  0.00     0.000 HD 
HETATM    7  C   UNL     5     -13.576  14.261  72.596  1.00  0.00    -0.501 C  
ENDROOT
BRANCH   3   8
HETATM    8  C   UNL     4     -10.304   6.422  69.224  1.00  0.00    -0.207 C  
HETATM    9  O   UNL     4     -11.436   6.478  68.335  1.00  0.00    -0.564 OA 
HETATM   10  H   UNL     4     -12.185   6.840  68.794  1.00  0.00     0.000 HD 
BRANCH   8  11
HETATM   11  C   UNL     4     -10.798   5.721  70.523  1.00  0.00    -0.278 C  
HETATM   12  O   UNL     4      -9.810   4.891  71.125  1.00  0.00    -0.171 OA 
HETATM   13  H   UNL     4     -10.112   4.464  71.918  1.00  0.00     0.000 HD 
BRANCH  11  14
HETATM   14  C   UNL     4     -11.534   6.586  71.583  1.00  0.00    -0.297 C  
HETATM   15  H   UNL     4     -12.453   6.205  73.264  1.00  0.00     0.000 HD 
HETATM   16  O   UNL     4     -12.002   5.677  72.616  1.00  0.00    -0.252 OA 
BRANCH  14  17
HETATM   17  C   UNL     4     -12.672   7.552  71.147  1.00  0.00    -0.241 C  
HETATM   18  C   UNL     4     -12.434   9.038  71.642  1.00  0.00    -0.351 C  
HETATM   19  H   UNL     4     -14.670   7.613  71.178  1.00  0.00     0.000 HD 
HETATM   20  O   UNL     4     -13.974   7.024  71.445  1.00  0.00    -0.319 OA 
HETATM   21  O   UNL     4     -11.187   9.412  71.596  1.00  0.00    -0.370 OA 
HETATM   22  O   UNL     4     -13.408   9.690  72.109  1.00  0.00    -0.427 OA 
ENDBRANCH  14  17
ENDBRANCH  11  14
ENDBRANCH   8  11
ENDBRANCH   3   8
BRANCH   7  23
HETATM   23  C   UNL     5     -13.356  14.366  71.074  1.00  0.00    -0.300 C  
HETATM   24  O   UNL     5     -13.310  15.750  70.722  1.00  0.00    -0.719 OA 
HETATM   25  H   UNL     5     -13.174  15.815  69.784  1.00  0.00     0.000 HD 
BRANCH  23  26
HETATM   26  C   UNL     5     -12.068  13.636  70.631  1.00  0.00    -0.323 C  
HETATM   27  O   UNL     5     -12.172  12.234  70.969  1.00  0.00    -0.366 OA 
HETATM   28  H   UNL     5     -11.380  11.786  70.697  1.00  0.00     0.000 HD 
BRANCH  26  29
HETATM   29  C   UNL     5     -11.608  13.802  69.156  1.00  0.00    -0.317 C  
HETATM   30  O   UNL     5     -12.501  14.603  68.382  1.00  0.00    -0.594 OA 
HETATM   31  H   UNL     5     -12.220  14.705  67.480  1.00  0.00     0.000 HD 
BRANCH  29  32
HETATM   32  C   UNL     5     -11.182  12.540  68.390  1.00  0.00    -0.272 C  
HETATM   33  C   UNL     5     -10.677  12.761  66.949  1.00  0.00    -0.253 C  
HETATM   34  O   UNL     5     -12.263  11.541  68.401  1.00  0.00    -0.540 OA 
HETATM   35  O   UNL     5     -10.036  13.830  66.719  1.00  0.00    -0.256 OA 
HETATM   36  O   UNL     5     -11.042  11.842  66.133  1.00  0.00    -0.300 OA 
HETATM   37  H   UNL     5     -12.000  10.761  67.927  1.00  0.00     0.000 HD 
ENDBRANCH  29  32
ENDBRANCH  26  29
ENDBRANCH  23  26
ENDBRANCH   7  23
TORSDOF 8
ENDMDL
MODEL      123
REMARK 921   NORMALIZED FREE ENERGY PREDICTED BY IDOCK:   -5.91 KCAL/MOL
REMARK 922        TOTAL FREE ENERGY PREDICTED BY IDOCK:  -10.92 KCAL/MOL
REMARK 923 INTER-LIGAND FREE ENERGY PREDICTED BY IDOCK:   -8.94 KCAL/MOL
REMARK 924 INTRA-LIGAND FREE ENERGY PREDICTED BY IDOCK:   -1.97 KCAL/MOL
REMARK 927      BINDING AFFINITY PREDICTED BY RF-SCORE:    0.00 PKD
ROOT
HETATM    1 MG   UNL     3      -9.652   8.923  63.789  1.00  0.00    -0.423 Mg 
HETATM    2  O   UNL     4      -9.380   4.522  68.156  1.00  0.00    -0.125 OA 
HETATM    3  C   UNL     4     -10.175   5.385  67.366  1.00  0.00    -0.201 C  
HETATM    4  H   UNL     4      -9.404   3.620  67.858  1.00  0.00     0.000 HD 
HETATM    5  O   UNL     5     -11.051  16.488  63.945  1.00  0.00    -1.255 OA 
HETATM    6  H   UNL     5     -10.254  16.989  64.073  1.00  0.00     0.000 HD 
HETATM    7  C   UNL     5     -11.169  15.429  64.894  1.00  0.00    -0.403 C  
ENDROOT
BRANCH   3   8
HETATM    8  C   UNL     4     -10.137   6.842  67.849  1.00  0.00    -0.162 C  
HETATM    9  O   UNL     4      -8.949   7.062  68.632  1.00  0.00    -0.131 OA 
HETATM   10  H   UNL     4      -8.925   7.964  68.931  1.00  0.00     0.000 HD 
BRANCH   8  11
HETATM   11  C   UNL     4     -10.187   7.984  66.792  1.00  0.00    -0.297 C  
HETATM   12  O   UNL     4     -11.021   9.072  67.178  1.00  0.00    -0.347 OA 
HETATM   13  H   UNL     4     -11.051   9.768  66.533  1.00  0.00     0.000 HD 
BRANCH  11  14
HETATM   14  C   UNL     4      -8.843   8.484  66.197  1.00  0.00    -0.167 C  
HETATM   15  H   UNL     4      -7.090   7.675  65.898  1.00  0.00     0.000 HD 
HETATM   16  O   UNL     4      -7.912   7.369  66.262  1.00  0.00    -0.102 OA 
BRANCH  14  17
HETATM   17  C   UNL     4      -8.181   9.781  66.745  1.00  0.00    -0.120 C  
HETATM   18  C   UNL     4      -7.153  10.420  65.722  1.00  0.00    -0.139 C  
HETATM   19  H   UNL     4      -7.268  10.400  68.411  1.00  0.00     0.000 HD 
HETATM   20  O   UNL     4      -7.672   9.608  68.076  1.00  0.00    -0.086 OA 
HETATM   21  O   UNL     4      -7.531  10.337  64.479  1.00  0.00    -0.143 OA 
HETATM   22  O   UNL     4      -6.053  10.860  66.157  1.00  0.00    -0.120 OA 
ENDBRANCH  14  17
ENDBRANCH  11  14
ENDBRANCH   8  11
ENDBRANCH   3   8
BRANCH   7  23
HETATM   23  C   UNL     5     -12.462  14.615  64.685  1.00  0.00    -0.286 C  
HETATM   24  O   UNL     5     -12.544  14.250  63.307  1.00  0.00    -1.069 OA 
HETATM   25  H   UNL     5     -13.341  13.749  63.178  1.00  0.00     0.000 HD 
BRANCH  23  26
HETATM   26  C   UNL     5     -12.506  13.368  65.595  1.00  0.00    -0.464 C  
HETATM   27  O   UNL     5     -13.156  12.285  64.892  1.00  0.00    -0.654 OA 
HETATM   28  H   UNL     5     -13.182  11.517  65.452  1.00  0.00     0.000 HD 
BRANCH  26  29
HETATM   29  C   UNL     5     -11.171  12.879  66.223  1.00  0.00    -0.301 C  
HETATM   30  O   UNL     5     -10.850  11.534  65.867  1.00  0.00    -0.273 OA 
HETATM   31  H   UNL     5     -10.034  11.235  66.251  1.00  0.00     0.000 HD 
BRANCH  29  32
HETATM   32  C   UNL     5     -10.948  13.129  67.723  1.00  0.00    -0.251 C  
HETATM   33  C   UNL     5     -11.877  12.358  68.684  1.00  0.00    -0.302 C  
HETATM   34  O   UNL     5     -10.999  14.571  68.017  1.00  0.00    -0.249 OA 
HETATM   35  O   UNL     5     -12.233  11.194  68.332  1.00  0.00    -0.610 OA 
HETATM   36  O   UNL     5     -12.232  13.041  69.709  1.00  0.00    -0.264 OA 
HETATM   37  H   UNL     5     -10.861  14.726  68.943  1.00  0.00     0.000 HD 
ENDBRANCH  29  32
ENDBRANCH  26  29
ENDBRANCH  23  26
ENDBRANCH   7  23
TORSDOF 8
ENDMDL
MODEL      124
REMARK 921   NORMALIZED FREE ENERGY PREDICTED BY IDOCK:   -5.91 KCAL/MOL
REMARK 922        TOTAL FREE ENERGY PREDICTED BY IDOCK:  -10.92 KCAL/MOL
REMARK 923 INTER-LIGAND FREE ENERGY PREDICTED BY IDOCK:   -7.99 KCAL/MOL
REMARK 924 INTRA-LIGAND FREE ENERGY PREDICTED BY IDOCK:   -2.92 KCAL/MOL
REMARK 927      BINDING AFFINITY PREDICTED BY RF-SCORE:    0.00 PKD
ROOT
HETATM    1 MG   UNL     3      -7.770  12.841  67.240  1.00  0.00    -0.114 Mg 
HETATM    2  O   UNL     4      -7.340   7.315  64.448  1.00  0.00    -0.072 OA 
HETATM    3  C   UNL     4      -8.059   8.520  64.626  1.00  0.00    -0.153 C  
HETATM    4  H   UNL     4      -6.863   7.286  63.627  1.00  0.00     0.000 HD 
HETATM    5  O   UNL     5     -12.189  15.609  72.900  1.00  0.00    -0.374 OA 
HETATM    6  H   UNL     5     -11.795  15.467  73.752  1.00  0.00     0.000 HD 
HETATM    7  C   UNL     5     -12.197  14.417  72.115  1.00  0.00    -0.149 C  
ENDROOT
BRANCH   3   8
HETATM    8  C   UNL     4      -8.830   8.567  65.954  1.00  0.00    -0.182 C  
HETATM    9  O   UNL     4      -7.970   9.067  66.995  1.00  0.00    -0.101 OA 
HETATM   10  H   UNL     4      -8.447   9.095  67.817  1.00  0.00     0.000 HD 
BRANCH   8  11
HETATM   11  C   UNL     4     -10.144   9.398  66.030  1.00  0.00    -0.231 C  
HETATM   12  O   UNL     4     -11.004   8.995  67.090  1.00  0.00    -0.347 OA 
HETATM   13  H   UNL     4     -11.806   9.503  67.136  1.00  0.00     0.000 HD 
BRANCH  11  14
HETATM   14  C   UNL     4     -10.033  10.945  65.946  1.00  0.00    -0.243 C  
HETATM   15  H   UNL     4      -9.395  12.341  67.154  1.00  0.00     0.000 HD 
HETATM   16  O   UNL     4      -9.462  11.395  67.205  1.00  0.00    -0.166 OA 
BRANCH  14  17
HETATM   17  C   UNL     4     -11.281  11.797  65.576  1.00  0.00    -0.258 C  
HETATM   18  C   UNL     4     -11.004  12.796  64.378  1.00  0.00    -0.361 C  
HETATM   19  H   UNL     4     -12.649  12.920  66.505  1.00  0.00     0.000 HD 
HETATM   20  O   UNL     4     -11.886  12.400  66.731  1.00  0.00    -0.493 OA 
HETATM   21  O   UNL     4     -10.234  12.302  63.451  1.00  0.00    -0.421 OA 
HETATM   22  O   UNL     4     -11.451  13.974  64.449  1.00  0.00    -0.376 OA 
ENDBRANCH  14  17
ENDBRANCH  11  14
ENDBRANCH   8  11
ENDBRANCH   3   8
BRANCH   7  23
HETATM   23  C   UNL     5     -12.835  14.647  70.731  1.00  0.00    -0.358 C  
HETATM   24  O   UNL     5     -13.510  15.907  70.753  1.00  0.00    -0.700 OA 
HETATM   25  H   UNL     5     -13.903  16.049  69.900  1.00  0.00     0.000 HD 
BRANCH  23  26
HETATM   26  C   UNL     5     -11.784  14.598  69.601  1.00  0.00    -0.313 C  
HETATM   27  O   UNL     5     -12.446  14.736  68.324  1.00  0.00    -0.584 OA 
HETATM   28  H   UNL     5     -11.798  14.706  67.629  1.00  0.00     0.000 HD 
BRANCH  26  29
HETATM   29  C   UNL     5     -10.576  15.573  69.689  1.00  0.00    -0.282 C  
HETATM   30  O   UNL     5     -10.967  16.945  69.663  1.00  0.00    -0.374 OA 
HETATM   31  H   UNL     5     -10.228  17.541  69.717  1.00  0.00     0.000 HD 
BRANCH  29  32
HETATM   32  C   UNL     5      -9.375  15.315  68.765  1.00  0.00    -0.210 C  
HETATM   33  C   UNL     5      -9.654  15.408  67.251  1.00  0.00    -0.211 C  
HETATM   34  O   UNL     5      -8.747  14.022  69.087  1.00  0.00    -0.369 OA 
HETATM   35  O   UNL     5     -10.510  16.262  66.873  1.00  0.00    -0.306 OA 
HETATM   36  O   UNL     5      -9.016  14.536  66.559  1.00  0.00    -0.246 OA 
HETATM   37  H   UNL     5      -8.005  13.863  68.516  1.00  0.00     0.000 HD 
ENDBRANCH  29  32
ENDBRANCH  26  29
ENDBRANCH  23  26
ENDBRANCH   7  23
TORSDOF 8
ENDMDL
MODEL      125
REMARK 921   NORMALIZED FREE ENERGY PREDICTED BY IDOCK:   -5.90 KCAL/MOL
REMARK 922        TOTAL FREE ENERGY PREDICTED BY IDOCK:  -10.90 KCAL/MOL
REMARK 923 INTER-LIGAND FREE ENERGY PREDICTED BY IDOCK:   -7.95 KCAL/MOL
REMARK 924 INTRA-LIGAND FREE ENERGY PREDICTED BY IDOCK:   -2.95 KCAL/MOL
REMARK 927      BINDING AFFINITY PREDICTED BY RF-SCORE:    0.00 PKD
ROOT
HETATM    1 MG   UNL     3     -10.526  16.102  68.383  1.00  0.00    -0.220 Mg 
HETATM    2  O   UNL     4     -14.031  16.178  73.504  1.00  0.00    -0.825 OA 
HETATM    3  C   UNL     4     -12.758  15.978  72.921  1.00  0.00    -0.467 C  
HETATM    4  H   UNL     4     -14.103  17.007  73.962  1.00  0.00     0.000 HD 
HETATM    5  O   UNL     5      -7.455  10.476  64.125  1.00  0.00    -0.322 OA 
HETATM    6  H   UNL     5      -8.050  10.188  63.443  1.00  0.00     0.000 HD 
HETATM    7  C   UNL     5      -8.096  10.531  65.399  1.00  0.00    -0.141 C  
ENDROOT
BRANCH   3   8
HETATM    8  C   UNL     4     -12.643  14.637  72.180  1.00  0.00    -0.327 C  
HETATM    9  O   UNL     4     -13.949  14.043  72.050  1.00  0.00    -0.440 OA 
HETATM   10  H   UNL     4     -13.877  13.213  71.592  1.00  0.00     0.000 HD 
BRANCH   8  11
HETATM   11  C   UNL     4     -12.005  14.616  70.761  1.00  0.00    -0.317 C  
HETATM   12  O   UNL     4     -10.649  15.048  70.747  1.00  0.00    -0.532 OA 
HETATM   13  H   UNL     4     -10.260  15.035  69.881  1.00  0.00     0.000 HD 
BRANCH  11  14
HETATM   14  C   UNL     4     -12.204  13.346  69.891  1.00  0.00    -0.271 C  
HETATM   15  H   UNL     4     -12.590  11.469  70.274  1.00  0.00     0.000 HD 
HETATM   16  O   UNL     4     -12.468  12.246  70.806  1.00  0.00    -0.346 OA 
BRANCH  14  17
HETATM   17  C   UNL     4     -11.126  12.940  68.845  1.00  0.00    -0.255 C  
HETATM   18  C   UNL     4     -11.513  13.375  67.371  1.00  0.00    -0.333 C  
HETATM   19  H   UNL     4     -10.074  11.317  68.341  1.00  0.00     0.000 HD 
HETATM   20  O   UNL     4     -10.732  11.565  68.980  1.00  0.00    -0.208 OA 
HETATM   21  O   UNL     4     -12.105  14.533  67.305  1.00  0.00    -0.392 OA 
HETATM   22  O   UNL     4     -11.312  12.566  66.424  1.00  0.00    -0.293 OA 
ENDBRANCH  14  17
ENDBRANCH  11  14
ENDBRANCH   8  11
ENDBRANCH   3   8
BRANCH   7  23
HETATM   23  C   UNL     5      -7.130  10.999  66.506  1.00  0.00    -0.136 C  
HETATM   24  O   UNL     5      -5.931  11.467  65.885  1.00  0.00    -0.476 OA 
HETATM   25  H   UNL     5      -5.336  11.755  66.567  1.00  0.00     0.000 HD 
BRANCH  23  26
HETATM   26  C   UNL     5      -7.763  12.094  67.391  1.00  0.00    -0.165 C  
HETATM   27  O   UNL     5      -7.844  11.621  68.755  1.00  0.00    -0.168 OA 
HETATM   28  H   UNL     5      -8.233  12.295  69.300  1.00  0.00     0.000 HD 
BRANCH  26  29
HETATM   29  C   UNL     5      -7.134  13.515  67.351  1.00  0.00    -0.083 C  
HETATM   30  O   UNL     5      -5.763  13.528  67.748  1.00  0.00    -0.155 OA 
HETATM   31  H   UNL     5      -5.379  14.397  67.723  1.00  0.00     0.000 HD 
BRANCH  29  32
HETATM   32  C   UNL     5      -7.917  14.666  68.004  1.00  0.00    -0.136 C  
HETATM   33  C   UNL     5      -7.353  16.084  67.773  1.00  0.00    -0.139 C  
HETATM   34  O   UNL     5      -8.090  14.418  69.445  1.00  0.00    -0.357 OA 
HETATM   35  O   UNL     5      -6.803  16.312  66.655  1.00  0.00    -0.229 OA 
HETATM   36  O   UNL     5      -7.458  16.848  68.798  1.00  0.00    -0.214 OA 
HETATM   37  H   UNL     5      -8.573  15.128  69.849  1.00  0.00     0.000 HD 
ENDBRANCH  29  32
ENDBRANCH  26  29
ENDBRANCH  23  26
ENDBRANCH   7  23
TORSDOF 8
ENDMDL
MODEL      126
REMARK 921   NORMALIZED FREE ENERGY PREDICTED BY IDOCK:   -5.89 KCAL/MOL
REMARK 922        TOTAL FREE ENERGY PREDICTED BY IDOCK:  -10.89 KCAL/MOL
REMARK 923 INTER-LIGAND FREE ENERGY PREDICTED BY IDOCK:   -8.32 KCAL/MOL
REMARK 924 INTRA-LIGAND FREE ENERGY PREDICTED BY IDOCK:   -2.57 KCAL/MOL
REMARK 927      BINDING AFFINITY PREDICTED BY RF-SCORE:    0.00 PKD
ROOT
HETATM    1 MG   UNL     3      -7.419   9.427  71.889  1.00  0.00    -0.080 Mg 
HETATM    2  O   UNL     4      -8.398   3.348  71.111  1.00  0.00    -0.065 OA 
HETATM    3  C   UNL     4      -7.965   4.577  70.560  1.00  0.00    -0.057 C  
HETATM    4  H   UNL     4      -7.679   2.767  71.330  1.00  0.00     0.000 HD 
HETATM    5  O   UNL     5     -11.077  15.753  69.478  1.00  0.00    -0.258 OA 
HETATM    6  H   UNL     5     -11.755  16.019  70.088  1.00  0.00     0.000 HD 
HETATM    7  C   UNL     5     -11.164  14.364  69.162  1.00  0.00    -0.272 C  
ENDROOT
BRANCH   3   8
HETATM    8  C   UNL     4      -9.128   5.516  70.206  1.00  0.00    -0.138 C  
HETATM    9  O   UNL     4     -10.341   4.754  70.068  1.00  0.00    -0.249 OA 
HETATM   10  H   UNL     4     -11.061   5.335  69.849  1.00  0.00     0.000 HD 
BRANCH   8  11
HETATM   11  C   UNL     4      -9.455   6.699  71.164  1.00  0.00    -0.163 C  
HETATM   12  O   UNL     4      -8.296   7.344  71.678  1.00  0.00    -0.103 OA 
HETATM   13  H   UNL     4      -8.496   8.066  72.263  1.00  0.00     0.000 HD 
BRANCH  11  14
HETATM   14  C   UNL     4     -10.524   7.730  70.710  1.00  0.00    -0.210 C  
HETATM   15  H   UNL     4     -11.432   8.110  69.022  1.00  0.00     0.000 HD 
HETATM   16  O   UNL     4     -10.779   7.479  69.300  1.00  0.00    -0.226 OA 
BRANCH  14  17
HETATM   17  C   UNL     4     -10.299   9.248  70.963  1.00  0.00    -0.318 C  
HETATM   18  C   UNL     4     -11.652  10.074  70.958  1.00  0.00    -0.393 C  
HETATM   19  H   UNL     4      -9.127  10.717  70.281  1.00  0.00     0.000 HD 
HETATM   20  O   UNL     4      -9.265   9.789  70.126  1.00  0.00    -0.234 OA 
HETATM   21  O   UNL     4     -12.651   9.446  71.508  1.00  0.00    -0.321 OA 
HETATM   22  O   UNL     4     -11.685  11.189  70.367  1.00  0.00    -0.316 OA 
ENDBRANCH  14  17
ENDBRANCH  11  14
ENDBRANCH   8  11
ENDBRANCH   3   8
BRANCH   7  23
HETATM   23  C   UNL     5     -10.063  13.932  68.173  1.00  0.00    -0.250 C  
HETATM   24  O   UNL     5      -9.568  12.656  68.582  1.00  0.00    -0.379 OA 
HETATM   25  H   UNL     5      -8.890  12.390  67.973  1.00  0.00     0.000 HD 
BRANCH  23  26
HETATM   26  C   UNL     5     -10.586  13.886  66.720  1.00  0.00    -0.277 C  
HETATM   27  O   UNL     5      -9.472  14.003  65.806  1.00  0.00    -0.504 OA 
HETATM   28  H   UNL     5      -9.794  13.974  64.912  1.00  0.00     0.000 HD 
BRANCH  26  29
HETATM   29  C   UNL     5     -11.495  12.693  66.312  1.00  0.00    -0.364 C  
HETATM   30  O   UNL     5     -10.766  11.483  66.110  1.00  0.00    -0.259 OA 
HETATM   31  H   UNL     5     -11.322  10.754  65.860  1.00  0.00     0.000 HD 
BRANCH  29  32
HETATM   32  C   UNL     5     -12.521  12.923  65.191  1.00  0.00    -0.501 C  
HETATM   33  C   UNL     5     -11.941  13.165  63.782  1.00  0.00    -0.508 C  
HETATM   34  O   UNL     5     -13.444  14.011  65.553  1.00  0.00    -0.705 OA 
HETATM   35  O   UNL     5     -10.876  12.548  63.482  1.00  0.00    -0.440 OA 
HETATM   36  O   UNL     5     -12.594  14.035  63.103  1.00  0.00    -0.733 OA 
HETATM   37  H   UNL     5     -14.079  14.153  64.861  1.00  0.00     0.000 HD 
ENDBRANCH  29  32
ENDBRANCH  26  29
ENDBRANCH  23  26
ENDBRANCH   7  23
TORSDOF 8
ENDMDL
MODEL      127
REMARK 921   NORMALIZED FREE ENERGY PREDICTED BY IDOCK:   -5.88 KCAL/MOL
REMARK 922        TOTAL FREE ENERGY PREDICTED BY IDOCK:  -10.88 KCAL/MOL
REMARK 923 INTER-LIGAND FREE ENERGY PREDICTED BY IDOCK:   -9.07 KCAL/MOL
REMARK 924 INTRA-LIGAND FREE ENERGY PREDICTED BY IDOCK:   -1.81 KCAL/MOL
REMARK 927      BINDING AFFINITY PREDICTED BY RF-SCORE:    0.00 PKD
ROOT
HETATM    1 MG   UNL     3     -11.785  15.430  65.289  1.00  0.00    -0.332 Mg 
HETATM    2  O   UNL     4     -11.777  10.164  68.573  1.00  0.00    -0.597 OA 
HETATM    3  C   UNL     4     -11.854  11.576  68.565  1.00  0.00    -0.297 C  
HETATM    4  H   UNL     4     -12.619   9.748  68.718  1.00  0.00     0.000 HD 
HETATM    5  O   UNL     5      -6.619  21.029  64.208  1.00  0.00    -0.495 OA 
HETATM    6  H   UNL     5      -6.048  20.842  63.472  1.00  0.00     0.000 HD 
HETATM    7  C   UNL     5      -6.718  19.917  65.096  1.00  0.00    -0.272 C  
ENDROOT
BRANCH   3   8
HETATM    8  C   UNL     4     -10.493  12.248  68.332  1.00  0.00    -0.233 C  
HETATM    9  O   UNL     4      -9.528  11.723  69.262  1.00  0.00    -0.357 OA 
HETATM   10  H   UNL     4      -8.686  12.139  69.117  1.00  0.00     0.000 HD 
BRANCH   8  11
HETATM   11  C   UNL     4      -9.843  12.155  66.920  1.00  0.00    -0.203 C  
HETATM   12  O   UNL     4      -8.447  11.878  66.962  1.00  0.00    -0.166 OA 
HETATM   13  H   UNL     4      -8.050  11.821  66.100  1.00  0.00     0.000 HD 
BRANCH  11  14
HETATM   14  C   UNL     4     -10.559  11.296  65.843  1.00  0.00    -0.253 C  
HETATM   15  H   UNL     4     -10.289   9.503  65.117  1.00  0.00     0.000 HD 
HETATM   16  O   UNL     4      -9.850  10.028  65.776  1.00  0.00    -0.240 OA 
BRANCH  14  17
HETATM   17  C   UNL     4     -10.791  11.870  64.416  1.00  0.00    -0.332 C  
HETATM   18  C   UNL     4     -12.279  12.369  64.194  1.00  0.00    -0.468 C  
HETATM   19  H   UNL     4     -10.437  11.342  62.521  1.00  0.00     0.000 HD 
HETATM   20  O   UNL     4     -10.296  10.992  63.393  1.00  0.00    -0.355 OA 
HETATM   21  O   UNL     4     -12.798  12.948  65.239  1.00  0.00    -0.668 OA 
HETATM   22  O   UNL     4     -12.857  12.102  63.105  1.00  0.00    -0.662 OA 
ENDBRANCH  14  17
ENDBRANCH  11  14
ENDBRANCH   8  11
ENDBRANCH   3   8
BRANCH   7  23
HETATM   23  C   UNL     5      -7.644  20.221  66.291  1.00  0.00    -0.219 C  
HETATM   24  O   UNL     5      -8.961  20.455  65.789  1.00  0.00    -0.554 OA 
HETATM   25  H   UNL     5      -9.532  20.643  66.525  1.00  0.00     0.000 HD 
BRANCH  23  26
HETATM   26  C   UNL     5      -7.639  19.073  67.325  1.00  0.00    -0.229 C  
HETATM   27  O   UNL     5      -7.415  19.618  68.645  1.00  0.00    -0.329 OA 
HETATM   28  H   UNL     5      -7.412  18.912  69.281  1.00  0.00     0.000 HD 
BRANCH  26  29
HETATM   29  C   UNL     5      -8.853  18.103  67.341  1.00  0.00    -0.256 C  
HETATM   30  O   UNL     5     -10.071  18.744  67.720  1.00  0.00    -0.332 OA 
HETATM   31  H   UNL     5     -10.814  18.151  67.730  1.00  0.00     0.000 HD 
BRANCH  29  32
HETATM   32  C   UNL     5      -8.685  16.753  68.056  1.00  0.00    -0.212 C  
HETATM   33  C   UNL     5      -9.989  16.050  68.489  1.00  0.00    -0.222 C  
HETATM   34  O   UNL     5      -7.777  16.890  69.206  1.00  0.00    -0.195 OA 
HETATM   35  O   UNL     5     -10.999  16.192  67.737  1.00  0.00    -0.328 OA 
HETATM   36  O   UNL     5      -9.896  15.453  69.621  1.00  0.00    -0.264 OA 
HETATM   37  H   UNL     5      -7.673  16.056  69.648  1.00  0.00     0.000 HD 
ENDBRANCH  29  32
ENDBRANCH  26  29
ENDBRANCH  23  26
ENDBRANCH   7  23
TORSDOF 8
ENDMDL
MODEL      128
REMARK 921   NORMALIZED FREE ENERGY PREDICTED BY IDOCK:   -5.88 KCAL/MOL
REMARK 922        TOTAL FREE ENERGY PREDICTED BY IDOCK:  -10.87 KCAL/MOL
REMARK 923 INTER-LIGAND FREE ENERGY PREDICTED BY IDOCK:   -8.72 KCAL/MOL
REMARK 924 INTRA-LIGAND FREE ENERGY PREDICTED BY IDOCK:   -2.15 KCAL/MOL
REMARK 927      BINDING AFFINITY PREDICTED BY RF-SCORE:    0.00 PKD
ROOT
HETATM    1 MG   UNL     3      -7.953   9.291  69.145  1.00  0.00    -0.080 Mg 
HETATM    2  O   UNL     4      -9.943   3.724  71.034  1.00  0.00    -0.167 OA 
HETATM    3  C   UNL     4     -10.083   4.812  70.140  1.00  0.00    -0.240 C  
HETATM    4  H   UNL     4      -9.536   2.965  70.633  1.00  0.00     0.000 HD 
HETATM    5  O   UNL     5     -10.698  16.444  69.865  1.00  0.00    -0.330 OA 
HETATM    6  H   UNL     5     -10.389  16.860  70.661  1.00  0.00     0.000 HD 
HETATM    7  C   UNL     5     -11.222  15.140  70.118  1.00  0.00    -0.273 C  
ENDROOT
BRANCH   3   8
HETATM    8  C   UNL     4     -10.740   6.039  70.789  1.00  0.00    -0.276 C  
HETATM    9  O   UNL     4     -11.089   5.736  72.153  1.00  0.00    -0.255 OA 
HETATM   10  H   UNL     4     -11.497   6.496  72.554  1.00  0.00     0.000 HD 
BRANCH   8  11
HETATM   11  C   UNL     4      -9.954   7.382  70.822  1.00  0.00    -0.182 C  
HETATM   12  O   UNL     4      -9.562   7.837  69.531  1.00  0.00    -0.160 OA 
HETATM   13  H   UNL     4      -9.082   8.656  69.552  1.00  0.00     0.000 HD 
BRANCH  11  14
HETATM   14  C   UNL     4     -10.528   8.541  71.681  1.00  0.00    -0.275 C  
HETATM   15  H   UNL     4     -10.844   8.807  73.591  1.00  0.00     0.000 HD 
HETATM   16  O   UNL     4     -10.493   8.098  73.065  1.00  0.00    -0.325 OA 
BRANCH  14  17
HETATM   17  C   UNL     4     -11.917   9.152  71.338  1.00  0.00    -0.339 C  
HETATM   18  C   UNL     4     -11.803  10.528  70.561  1.00  0.00    -0.347 C  
HETATM   19  H   UNL     4     -13.641   9.551  72.267  1.00  0.00     0.000 HD 
HETATM   20  O   UNL     4     -12.793   9.179  72.476  1.00  0.00    -0.388 OA 
HETATM   21  O   UNL     4     -10.827  10.564  69.700  1.00  0.00    -0.240 OA 
HETATM   22  O   UNL     4     -12.571  11.477  70.882  1.00  0.00    -0.369 OA 
ENDBRANCH  14  17
ENDBRANCH  11  14
ENDBRANCH   8  11
ENDBRANCH   3   8
BRANCH   7  23
HETATM   23  C   UNL     5     -11.725  14.466  68.826  1.00  0.00    -0.337 C  
HETATM   24  O   UNL     5     -12.394  15.451  68.037  1.00  0.00    -0.349 OA 
HETATM   25  H   UNL     5     -12.704  15.036  67.241  1.00  0.00     0.000 HD 
BRANCH  23  26
HETATM   26  C   UNL     5     -10.570  13.811  68.036  1.00  0.00    -0.252 C  
HETATM   27  O   UNL     5      -9.756  13.029  68.939  1.00  0.00    -0.410 OA 
HETATM   28  H   UNL     5      -9.045  12.626  68.454  1.00  0.00     0.000 HD 
BRANCH  26  29
HETATM   29  C   UNL     5     -10.932  12.975  66.777  1.00  0.00    -0.276 C  
HETATM   30  O   UNL     5     -10.215  11.744  66.703  1.00  0.00    -0.204 OA 
HETATM   31  H   UNL     5     -10.436  11.233  65.933  1.00  0.00     0.000 HD 
BRANCH  29  32
HETATM   32  C   UNL     5     -10.952  13.695  65.419  1.00  0.00    -0.298 C  
HETATM   33  C   UNL     5     -12.337  13.845  64.753  1.00  0.00    -0.400 C  
HETATM   34  O   UNL     5     -10.008  13.059  64.486  1.00  0.00    -0.577 OA 
HETATM   35  O   UNL     5     -13.331  14.015  65.520  1.00  0.00    -0.673 OA 
HETATM   36  O   UNL     5     -12.308  13.705  63.479  1.00  0.00    -0.696 OA 
HETATM   37  H   UNL     5     -10.020  13.503  63.646  1.00  0.00     0.000 HD 
ENDBRANCH  29  32
ENDBRANCH  26  29
ENDBRANCH  23  26
ENDBRANCH   7  23
TORSDOF 8
ENDMDL
MODEL      129
REMARK 921   NORMALIZED FREE ENERGY PREDICTED BY IDOCK:   -5.87 KCAL/MOL
REMARK 922        TOTAL FREE ENERGY PREDICTED BY IDOCK:  -10.86 KCAL/MOL
REMARK 923 INTER-LIGAND FREE ENERGY PREDICTED BY IDOCK:   -8.41 KCAL/MOL
REMARK 924 INTRA-LIGAND FREE ENERGY PREDICTED BY IDOCK:   -2.45 KCAL/MOL
REMARK 927      BINDING AFFINITY PREDICTED BY RF-SCORE:    0.00 PKD
ROOT
HETATM    1 MG   UNL     3      -8.058  10.954  70.265  1.00  0.00    -0.353 Mg 
HETATM    2  O   UNL     4      -8.034   4.787  69.565  1.00  0.00    -0.065 OA 
HETATM    3  C   UNL     4      -8.515   6.045  69.132  1.00  0.00    -0.114 C  
HETATM    4  H   UNL     4      -7.373   4.424  68.987  1.00  0.00     0.000 HD 
HETATM    5  O   UNL     5     -13.160  15.962  73.110  1.00  0.00    -0.494 OA 
HETATM    6  H   UNL     5     -13.044  16.088  74.044  1.00  0.00     0.000 HD 
HETATM    7  C   UNL     5     -13.202  14.578  72.764  1.00  0.00    -0.508 C  
ENDROOT
BRANCH   3   8
HETATM    8  C   UNL     4      -9.583   6.632  70.066  1.00  0.00    -0.156 C  
HETATM    9  O   UNL     4      -8.946   7.347  71.141  1.00  0.00    -0.142 OA 
HETATM   10  H   UNL     4      -9.607   7.710  71.719  1.00  0.00     0.000 HD 
BRANCH   8  11
HETATM   11  C   UNL     4     -10.655   7.591  69.471  1.00  0.00    -0.236 C  
HETATM   12  O   UNL     4     -11.900   7.539  70.159  1.00  0.00    -0.496 OA 
HETATM   13  H   UNL     4     -12.554   8.125  69.796  1.00  0.00     0.000 HD 
BRANCH  11  14
HETATM   14  C   UNL     4     -10.235   9.055  69.169  1.00  0.00    -0.205 C  
HETATM   15  H   UNL     4     -10.133  10.697  70.223  1.00  0.00     0.000 HD 
HETATM   16  O   UNL     4     -10.390   9.802  70.407  1.00  0.00    -0.266 OA 
BRANCH  14  17
HETATM   17  C   UNL     4     -10.883   9.824  67.983  1.00  0.00    -0.223 C  
HETATM   18  C   UNL     4     -10.275   9.406  66.580  1.00  0.00    -0.249 C  
HETATM   19  H   UNL     4     -11.326  11.710  67.491  1.00  0.00     0.000 HD 
HETATM   20  O   UNL     4     -10.930  11.240  68.216  1.00  0.00    -0.192 OA 
HETATM   21  O   UNL     4     -10.004   8.136  66.484  1.00  0.00    -0.256 OA 
HETATM   22  O   UNL     4     -10.024  10.305  65.731  1.00  0.00    -0.242 OA 
ENDBRANCH  14  17
ENDBRANCH  11  14
ENDBRANCH   8  11
ENDBRANCH   3   8
BRANCH   7  23
HETATM   23  C   UNL     5     -13.391  14.374  71.247  1.00  0.00    -0.343 C  
HETATM   24  O   UNL     5     -13.949  15.570  70.700  1.00  0.00    -0.868 OA 
HETATM   25  H   UNL     5     -14.066  15.444  69.766  1.00  0.00     0.000 HD 
BRANCH  23  26
HETATM   26  C   UNL     5     -12.061  14.012  70.550  1.00  0.00    -0.353 C  
HETATM   27  O   UNL     5     -11.945  12.573  70.458  1.00  0.00    -0.489 OA 
HETATM   28  H   UNL     5     -11.127  12.350  70.029  1.00  0.00     0.000 HD 
BRANCH  26  29
HETATM   29  C   UNL     5     -11.761  14.664  69.171  1.00  0.00    -0.309 C  
HETATM   30  O   UNL     5     -12.537  14.106  68.111  1.00  0.00    -0.455 OA 
HETATM   31  H   UNL     5     -12.353  14.505  67.269  1.00  0.00     0.000 HD 
BRANCH  29  32
HETATM   32  C   UNL     5     -10.289  14.831  68.760  1.00  0.00    -0.248 C  
HETATM   33  C   UNL     5     -10.041  15.494  67.389  1.00  0.00    -0.246 C  
HETATM   34  O   UNL     5      -9.585  13.541  68.835  1.00  0.00    -0.408 OA 
HETATM   35  O   UNL     5     -10.855  16.394  67.027  1.00  0.00    -0.267 OA 
HETATM   36  O   UNL     5      -9.054  14.984  66.747  1.00  0.00    -0.229 OA 
HETATM   37  H   UNL     5      -8.675  13.644  68.582  1.00  0.00     0.000 HD 
ENDBRANCH  29  32
ENDBRANCH  26  29
ENDBRANCH  23  26
ENDBRANCH   7  23
TORSDOF 8
ENDMDL
MODEL      130
REMARK 921   NORMALIZED FREE ENERGY PREDICTED BY IDOCK:   -5.87 KCAL/MOL
REMARK 922        TOTAL FREE ENERGY PREDICTED BY IDOCK:  -10.86 KCAL/MOL
REMARK 923 INTER-LIGAND FREE ENERGY PREDICTED BY IDOCK:   -9.23 KCAL/MOL
REMARK 924 INTRA-LIGAND FREE ENERGY PREDICTED BY IDOCK:   -1.63 KCAL/MOL
REMARK 927      BINDING AFFINITY PREDICTED BY RF-SCORE:    0.00 PKD
ROOT
HETATM    1 MG   UNL     3     -11.866  15.581  67.336  1.00  0.00    -0.330 Mg 
HETATM    2  O   UNL     4     -13.385  11.480  62.932  1.00  0.00    -0.503 OA 
HETATM    3  C   UNL     4     -12.465  11.896  63.922  1.00  0.00    -0.371 C  
HETATM    4  H   UNL     4     -13.909  10.734  63.203  1.00  0.00     0.000 HD 
HETATM    5  O   UNL     5      -6.713  21.281  67.743  1.00  0.00    -0.401 OA 
HETATM    6  H   UNL     5      -7.073  22.102  67.427  1.00  0.00     0.000 HD 
HETATM    7  C   UNL     5      -6.953  20.212  66.829  1.00  0.00    -0.232 C  
ENDROOT
BRANCH   3   8
HETATM    8  C   UNL     4     -11.619  13.101  63.484  1.00  0.00    -0.338 C  
HETATM    9  O   UNL     4     -12.463  14.079  62.849  1.00  0.00    -1.028 OA 
HETATM   10  H   UNL     4     -11.939  14.825  62.578  1.00  0.00     0.000 HD 
BRANCH   8  11
HETATM   11  C   UNL     4     -10.788  13.864  64.557  1.00  0.00    -0.368 C  
HETATM   12  O   UNL     4     -11.263  15.183  64.803  1.00  0.00    -0.443 OA 
HETATM   13  H   UNL     4     -10.756  15.648  65.458  1.00  0.00     0.000 HD 
BRANCH  11  14
HETATM   14  C   UNL     4     -10.454  13.125  65.881  1.00  0.00    -0.280 C  
HETATM   15  H   UNL     4      -9.075  13.321  67.251  1.00  0.00     0.000 HD 
HETATM   16  O   UNL     4      -9.279  13.773  66.440  1.00  0.00    -0.232 OA 
BRANCH  14  17
HETATM   17  C   UNL     4     -10.283  11.579  65.891  1.00  0.00    -0.244 C  
HETATM   18  C   UNL     4     -10.899  10.905  67.186  1.00  0.00    -0.280 C  
HETATM   19  H   UNL     4      -8.831  10.238  65.598  1.00  0.00     0.000 HD 
HETATM   20  O   UNL     4      -8.936  11.182  65.593  1.00  0.00    -0.200 OA 
HETATM   21  O   UNL     4     -12.009  11.457  67.586  1.00  0.00    -0.630 OA 
HETATM   22  O   UNL     4     -10.253   9.987  67.762  1.00  0.00    -0.170 OA 
ENDBRANCH  14  17
ENDBRANCH  11  14
ENDBRANCH   8  11
ENDBRANCH   3   8
BRANCH   7  23
HETATM   23  C   UNL     5      -6.369  18.880  67.342  1.00  0.00    -0.195 C  
HETATM   24  O   UNL     5      -6.133  19.005  68.745  1.00  0.00    -0.213 OA 
HETATM   25  H   UNL     5      -5.773  18.185  69.061  1.00  0.00     0.000 HD 
BRANCH  23  26
HETATM   26  C   UNL     5      -7.307  17.691  67.039  1.00  0.00    -0.191 C  
HETATM   27  O   UNL     5      -6.515  16.534  66.683  1.00  0.00    -0.258 OA 
HETATM   28  H   UNL     5      -7.092  15.803  66.497  1.00  0.00     0.000 HD 
BRANCH  26  29
HETATM   29  C   UNL     5      -8.366  17.309  68.110  1.00  0.00    -0.233 C  
HETATM   30  O   UNL     5      -8.737  15.932  68.058  1.00  0.00    -0.167 OA 
HETATM   31  H   UNL     5      -9.385  15.698  68.713  1.00  0.00     0.000 HD 
BRANCH  29  32
HETATM   32  C   UNL     5      -9.599  18.215  68.257  1.00  0.00    -0.317 C  
HETATM   33  C   UNL     5     -10.437  18.431  66.979  1.00  0.00    -0.399 C  
HETATM   34  O   UNL     5      -9.216  19.513  68.837  1.00  0.00    -0.377 OA 
HETATM   35  O   UNL     5     -10.520  17.458  66.172  1.00  0.00    -0.347 OA 
HETATM   36  O   UNL     5     -10.897  19.622  66.865  1.00  0.00    -0.483 OA 
HETATM   37  H   UNL     5      -9.977  20.074  68.928  1.00  0.00     0.000 HD 
ENDBRANCH  29  32
ENDBRANCH  26  29
ENDBRANCH  23  26
ENDBRANCH   7  23
TORSDOF 8
ENDMDL
MODEL      131
REMARK 921   NORMALIZED FREE ENERGY PREDICTED BY IDOCK:   -5.86 KCAL/MOL
REMARK 922        TOTAL FREE ENERGY PREDICTED BY IDOCK:  -10.84 KCAL/MOL
REMARK 923 INTER-LIGAND FREE ENERGY PREDICTED BY IDOCK:   -9.38 KCAL/MOL
REMARK 924 INTRA-LIGAND FREE ENERGY PREDICTED BY IDOCK:   -1.46 KCAL/MOL
REMARK 927      BINDING AFFINITY PREDICTED BY RF-SCORE:    0.00 PKD
ROOT
HETATM    1 MG   UNL     3      -9.360  11.608  66.565  1.00  0.00    -0.170 Mg 
HETATM    2  O   UNL     4      -8.015  17.588  65.593  1.00  0.00    -0.512 OA 
HETATM    3  C   UNL     4      -7.928  16.458  66.439  1.00  0.00    -0.294 C  
HETATM    4  H   UNL     4      -7.200  17.776  65.141  1.00  0.00     0.000 HD 
HETATM    5  O   UNL     5     -14.400   7.961  71.094  1.00  0.00    -0.645 OA 
HETATM    6  H   UNL     5     -15.237   7.840  70.661  1.00  0.00     0.000 HD 
HETATM    7  C   UNL     5     -13.940   9.308  70.990  1.00  0.00     0.109 C  
ENDROOT
BRANCH   3   8
HETATM    8  C   UNL     4      -9.245  16.155  67.169  1.00  0.00    -0.207 C  
HETATM    9  O   UNL     4      -9.537  17.213  68.100  1.00  0.00    -0.254 OA 
HETATM   10  H   UNL     4     -10.352  17.025  68.552  1.00  0.00     0.000 HD 
BRANCH   8  11
HETATM   11  C   UNL     4     -10.537  15.939  66.327  1.00  0.00    -0.298 C  
HETATM   12  O   UNL     4     -10.711  16.914  65.304  1.00  0.00    -0.599 OA 
HETATM   13  H   UNL     4     -11.500  16.782  64.791  1.00  0.00     0.000 HD 
BRANCH  11  14
HETATM   14  C   UNL     4     -10.834  14.508  65.802  1.00  0.00    -0.315 C  
HETATM   15  H   UNL     4      -9.986  13.321  64.503  1.00  0.00     0.000 HD 
HETATM   16  O   UNL     4      -9.804  14.196  64.824  1.00  0.00    -0.171 OA 
BRANCH  14  17
HETATM   17  C   UNL     4     -12.243  14.160  65.242  1.00  0.00    -0.434 C  
HETATM   18  C   UNL     4     -12.531  12.602  65.243  1.00  0.00    -0.416 C  
HETATM   19  H   UNL     4     -13.367  14.604  63.651  1.00  0.00     0.000 HD 
HETATM   20  O   UNL     4     -12.507  14.816  63.992  1.00  0.00    -0.803 OA 
HETATM   21  O   UNL     4     -12.054  11.981  66.284  1.00  0.00    -0.596 OA 
HETATM   22  O   UNL     4     -13.095  12.084  64.240  1.00  0.00    -0.671 OA 
ENDBRANCH  14  17
ENDBRANCH  11  14
ENDBRANCH   8  11
ENDBRANCH   3   8
BRANCH   7  23
HETATM   23  C   UNL     5     -12.582   9.504  71.693  1.00  0.00    -0.388 C  
HETATM   24  O   UNL     5     -12.413   8.450  72.643  1.00  0.00    -0.562 OA 
HETATM   25  H   UNL     5     -11.576   8.571  73.077  1.00  0.00     0.000 HD 
BRANCH  23  26
HETATM   26  C   UNL     5     -11.414   9.535  70.683  1.00  0.00    -0.297 C  
HETATM   27  O   UNL     5     -10.931  10.891  70.549  1.00  0.00    -0.423 OA 
HETATM   28  H   UNL     5     -10.213  10.909  69.927  1.00  0.00     0.000 HD 
BRANCH  26  29
HETATM   29  C   UNL     5     -10.226   8.560  70.915  1.00  0.00    -0.200 C  
HETATM   30  O   UNL     5      -8.962   9.137  70.586  1.00  0.00    -0.205 OA 
HETATM   31  H   UNL     5      -8.235   8.542  70.728  1.00  0.00     0.000 HD 
BRANCH  29  32
HETATM   32  C   UNL     5     -10.349   7.131  70.362  1.00  0.00    -0.203 C  
HETATM   33  C   UNL     5      -9.713   6.883  68.979  1.00  0.00    -0.150 C  
HETATM   34  O   UNL     5     -11.758   6.702  70.357  1.00  0.00    -0.379 OA 
HETATM   35  O   UNL     5      -8.656   7.526  68.706  1.00  0.00    -0.129 OA 
HETATM   36  O   UNL     5     -10.393   6.087  68.239  1.00  0.00    -0.166 OA 
HETATM   37  H   UNL     5     -11.834   5.819  70.016  1.00  0.00     0.000 HD 
ENDBRANCH  29  32
ENDBRANCH  26  29
ENDBRANCH  23  26
ENDBRANCH   7  23
TORSDOF 8
ENDMDL
MODEL      132
REMARK 921   NORMALIZED FREE ENERGY PREDICTED BY IDOCK:   -5.85 KCAL/MOL
REMARK 922        TOTAL FREE ENERGY PREDICTED BY IDOCK:  -10.84 KCAL/MOL
REMARK 923 INTER-LIGAND FREE ENERGY PREDICTED BY IDOCK:   -8.06 KCAL/MOL
REMARK 924 INTRA-LIGAND FREE ENERGY PREDICTED BY IDOCK:   -2.77 KCAL/MOL
REMARK 927      BINDING AFFINITY PREDICTED BY RF-SCORE:    0.00 PKD
ROOT
HETATM    1 MG   UNL     3      -7.221  12.707  66.246  1.00  0.00    -0.359 Mg 
HETATM    2  O   UNL     4     -11.450  16.506  63.756  1.00  0.00    -1.615 OA 
HETATM    3  C   UNL     4     -10.942  15.862  64.909  1.00  0.00    -0.411 C  
HETATM    4  H   UNL     4     -11.228  17.430  63.720  1.00  0.00     0.000 HD 
HETATM    5  O   UNL     5      -7.444   5.458  68.816  1.00  0.00    -0.073 OA 
HETATM    6  H   UNL     5      -7.259   4.835  68.124  1.00  0.00     0.000 HD 
HETATM    7  C   UNL     5      -8.431   6.411  68.421  1.00  0.00    -0.116 C  
ENDROOT
BRANCH   3   8
HETATM    8  C   UNL     4     -11.301  14.370  64.967  1.00  0.00    -0.373 C  
HETATM    9  O   UNL     4     -10.104  13.579  64.853  1.00  0.00    -0.528 OA 
HETATM   10  H   UNL     4     -10.326  12.656  64.889  1.00  0.00     0.000 HD 
BRANCH   8  11
HETATM   11  C   UNL     4     -12.069  13.832  66.210  1.00  0.00    -0.446 C  
HETATM   12  O   UNL     4     -12.840  12.667  65.934  1.00  0.00    -0.259 OA 
HETATM   13  H   UNL     4     -13.308  12.339  66.693  1.00  0.00     0.000 HD 
BRANCH  11  14
HETATM   14  C   UNL     4     -11.287  13.690  67.544  1.00  0.00    -0.308 C  
HETATM   15  H   UNL     4     -11.666  12.866  69.274  1.00  0.00     0.000 HD 
HETATM   16  O   UNL     4     -12.144  12.952  68.458  1.00  0.00    -0.279 OA 
BRANCH  14  17
HETATM   17  C   UNL     4     -10.701  14.951  68.242  1.00  0.00    -0.249 C  
HETATM   18  C   UNL     4      -9.127  14.877  68.414  1.00  0.00    -0.185 C  
HETATM   19  H   UNL     4     -11.061  16.060  69.865  1.00  0.00     0.000 HD 
HETATM   20  O   UNL     4     -11.418  15.290  69.439  1.00  0.00    -0.274 OA 
HETATM   21  O   UNL     4      -8.515  14.327  67.404  1.00  0.00    -0.179 OA 
HETATM   22  O   UNL     4      -8.614  15.253  69.503  1.00  0.00    -0.246 OA 
ENDBRANCH  14  17
ENDBRANCH  11  14
ENDBRANCH   8  11
ENDBRANCH   3   8
BRANCH   7  23
HETATM   23  C   UNL     5      -8.732   7.422  69.545  1.00  0.00    -0.137 C  
HETATM   24  O   UNL     5      -7.513   8.083  69.891  1.00  0.00    -0.075 OA 
HETATM   25  H   UNL     5      -7.698   8.706  70.583  1.00  0.00     0.000 HD 
BRANCH  23  26
HETATM   26  C   UNL     5      -9.816   8.438  69.125  1.00  0.00    -0.183 C  
HETATM   27  O   UNL     5     -11.085   8.048  69.697  1.00  0.00    -0.422 OA 
HETATM   28  H   UNL     5     -11.753   8.673  69.438  1.00  0.00     0.000 HD 
BRANCH  26  29
HETATM   29  C   UNL     5      -9.545   9.944  69.393  1.00  0.00    -0.215 C  
HETATM   30  O   UNL     5     -10.676  10.624  69.936  1.00  0.00    -0.348 OA 
HETATM   31  H   UNL     5     -10.511  11.546  70.100  1.00  0.00     0.000 HD 
BRANCH  29  32
HETATM   32  C   UNL     5      -8.881  10.766  68.276  1.00  0.00    -0.139 C  
HETATM   33  C   UNL     5      -9.504  10.624  66.871  1.00  0.00    -0.165 C  
HETATM   34  O   UNL     5      -7.437  10.486  68.221  1.00  0.00    -0.086 OA 
HETATM   35  O   UNL     5     -10.758  10.460  66.809  1.00  0.00    -0.231 OA 
HETATM   36  O   UNL     5      -8.637  10.623  65.926  1.00  0.00    -0.161 OA 
HETATM   37  H   UNL     5      -7.026  10.993  67.531  1.00  0.00     0.000 HD 
ENDBRANCH  29  32
ENDBRANCH  26  29
ENDBRANCH  23  26
ENDBRANCH   7  23
TORSDOF 8
ENDMDL
MODEL      133
REMARK 921   NORMALIZED FREE ENERGY PREDICTED BY IDOCK:   -5.85 KCAL/MOL
REMARK 922        TOTAL FREE ENERGY PREDICTED BY IDOCK:  -10.83 KCAL/MOL
REMARK 923 INTER-LIGAND FREE ENERGY PREDICTED BY IDOCK:   -9.61 KCAL/MOL
REMARK 924 INTRA-LIGAND FREE ENERGY PREDICTED BY IDOCK:   -1.22 KCAL/MOL
REMARK 927      BINDING AFFINITY PREDICTED BY RF-SCORE:    0.00 PKD
ROOT
HETATM    1 MG   UNL     3      -6.515  12.935  68.574  1.00  0.00    -0.064 Mg 
HETATM    2  O   UNL     4      -8.269   6.988  68.847  1.00  0.00    -0.119 OA 
HETATM    3  C   UNL     4      -8.040   8.140  68.058  1.00  0.00    -0.128 C  
HETATM    4  H   UNL     4      -7.584   6.335  68.756  1.00  0.00     0.000 HD 
HETATM    5  O   UNL     5     -10.312  19.559  67.610  1.00  0.00    -0.396 OA 
HETATM    6  H   UNL     5     -10.599  19.922  68.439  1.00  0.00     0.000 HD 
HETATM    7  C   UNL     5     -10.658  18.180  67.487  1.00  0.00    -0.401 C  
ENDROOT
BRANCH   3   8
HETATM    8  C   UNL     4      -9.146   9.195  68.204  1.00  0.00    -0.132 C  
HETATM    9  O   UNL     4     -10.385   8.672  67.690  1.00  0.00    -0.226 OA 
HETATM   10  H   UNL     4     -11.070   9.325  67.780  1.00  0.00     0.000 HD 
BRANCH   8  11
HETATM   11  C   UNL     4      -9.460   9.761  69.620  1.00  0.00    -0.219 C  
HETATM   12  O   UNL     4      -9.353  11.178  69.696  1.00  0.00    -0.290 OA 
HETATM   13  H   UNL     4      -9.545  11.523  70.560  1.00  0.00     0.000 HD 
BRANCH  11  14
HETATM   14  C   UNL     4     -10.736   9.250  70.342  1.00  0.00    -0.251 C  
HETATM   15  H   UNL     4     -12.168  10.101  71.364  1.00  0.00     0.000 HD 
HETATM   16  O   UNL     4     -11.387  10.413  70.922  1.00  0.00    -0.335 OA 
BRANCH  14  17
HETATM   17  C   UNL     4     -10.634   8.103  71.388  1.00  0.00    -0.220 C  
HETATM   18  C   UNL     4     -11.321   6.763  70.894  1.00  0.00    -0.315 C  
HETATM   19  H   UNL     4     -10.968   7.830  73.340  1.00  0.00     0.000 HD 
HETATM   20  O   UNL     4     -11.031   8.530  72.701  1.00  0.00    -0.315 OA 
HETATM   21  O   UNL     4     -11.154   6.526  69.624  1.00  0.00    -0.309 OA 
HETATM   22  O   UNL     4     -12.025   6.102  71.706  1.00  0.00    -0.289 OA 
ENDBRANCH  14  17
ENDBRANCH  11  14
ENDBRANCH   8  11
ENDBRANCH   3   8
BRANCH   7  23
HETATM   23  C   UNL     5     -10.191  17.591  66.141  1.00  0.00    -0.335 C  
HETATM   24  O   UNL     5      -8.792  17.844  66.002  1.00  0.00    -0.492 OA 
HETATM   25  H   UNL     5      -8.504  17.481  65.173  1.00  0.00     0.000 HD 
BRANCH  23  26
HETATM   26  C   UNL     5     -10.496  16.080  66.042  1.00  0.00    -0.345 C  
HETATM   27  O   UNL     5     -11.438  15.712  67.075  1.00  0.00    -0.145 OA 
HETATM   28  H   UNL     5     -11.626  14.783  67.014  1.00  0.00     0.000 HD 
BRANCH  26  29
HETATM   29  C   UNL     5     -10.958  15.520  64.668  1.00  0.00    -0.322 C  
HETATM   30  O   UNL     5     -11.612  16.498  63.860  1.00  0.00    -1.598 OA 
HETATM   31  H   UNL     5     -11.894  16.155  63.020  1.00  0.00     0.000 HD 
BRANCH  29  32
HETATM   32  C   UNL     5     -11.719  14.184  64.655  1.00  0.00    -0.417 C  
HETATM   33  C   UNL     5     -10.861  12.915  64.840  1.00  0.00    -0.308 C  
HETATM   34  O   UNL     5     -12.538  14.070  63.437  1.00  0.00    -1.056 OA 
HETATM   35  O   UNL     5      -9.851  13.006  65.600  1.00  0.00    -0.251 OA 
HETATM   36  O   UNL     5     -11.253  11.924  64.126  1.00  0.00    -0.332 OA 
HETATM   37  H   UNL     5     -13.008  13.245  63.429  1.00  0.00     0.000 HD 
ENDBRANCH  29  32
ENDBRANCH  26  29
ENDBRANCH  23  26
ENDBRANCH   7  23
TORSDOF 8
ENDMDL
MODEL      134
REMARK 921   NORMALIZED FREE ENERGY PREDICTED BY IDOCK:   -5.84 KCAL/MOL
REMARK 922        TOTAL FREE ENERGY PREDICTED BY IDOCK:  -10.81 KCAL/MOL
REMARK 923 INTER-LIGAND FREE ENERGY PREDICTED BY IDOCK:   -9.15 KCAL/MOL
REMARK 924 INTRA-LIGAND FREE ENERGY PREDICTED BY IDOCK:   -1.67 KCAL/MOL
REMARK 927      BINDING AFFINITY PREDICTED BY RF-SCORE:    0.00 PKD
ROOT
HETATM    1 MG   UNL     3      -7.914  12.863  69.521  1.00  0.00    -0.319 Mg 
HETATM    2  O   UNL     4      -8.964   8.233  73.517  1.00  0.00    -0.249 OA 
HETATM    3  C   UNL     4      -8.648   8.635  72.199  1.00  0.00    -0.120 C  
HETATM    4  H   UNL     4      -8.212   7.898  73.993  1.00  0.00     0.000 HD 
HETATM    5  O   UNL     5     -12.001  15.967  63.788  1.00  0.00    -1.339 OA 
HETATM    6  H   UNL     5     -12.561  16.670  64.097  1.00  0.00     0.000 HD 
HETATM    7  C   UNL     5     -12.132  14.794  64.589  1.00  0.00    -0.427 C  
ENDROOT
BRANCH   3   8
HETATM    8  C   UNL     4      -9.863   9.175  71.431  1.00  0.00    -0.284 C  
HETATM    9  O   UNL     4      -9.422   9.846  70.235  1.00  0.00    -0.341 OA 
HETATM   10  H   UNL     4     -10.174  10.180  69.760  1.00  0.00     0.000 HD 
BRANCH   8  11
HETATM   11  C   UNL     4     -10.977   8.180  70.992  1.00  0.00    -0.244 C  
HETATM   12  O   UNL     4     -11.972   8.776  70.167  1.00  0.00    -0.454 OA 
HETATM   13  H   UNL     4     -12.651   8.169  69.900  1.00  0.00     0.000 HD 
BRANCH  11  14
HETATM   14  C   UNL     4     -10.541   6.795  70.442  1.00  0.00    -0.227 C  
HETATM   15  H   UNL     4     -11.241   5.576  69.085  1.00  0.00     0.000 HD 
HETATM   16  O   UNL     4     -11.508   6.423  69.421  1.00  0.00    -0.401 OA 
BRANCH  14  17
HETATM   17  C   UNL     4     -10.294   5.610  71.419  1.00  0.00    -0.228 C  
HETATM   18  C   UNL     4     -11.245   5.657  72.686  1.00  0.00    -0.300 C  
HETATM   19  H   UNL     4      -8.750   4.715  72.319  1.00  0.00     0.000 HD 
HETATM   20  O   UNL     4      -8.901   5.439  71.722  1.00  0.00    -0.134 OA 
HETATM   21  O   UNL     4     -12.453   6.063  72.420  1.00  0.00    -0.177 OA 
HETATM   22  O   UNL     4     -10.761   5.398  73.823  1.00  0.00    -0.270 OA 
ENDBRANCH  14  17
ENDBRANCH  11  14
ENDBRANCH   8  11
ENDBRANCH   3   8
BRANCH   7  23
HETATM   23  C   UNL     5     -11.223  13.654  64.087  1.00  0.00    -0.272 C  
HETATM   24  O   UNL     5      -9.893  13.908  64.543  1.00  0.00    -0.634 OA 
HETATM   25  H   UNL     5      -9.333  13.206  64.234  1.00  0.00     0.000 HD 
BRANCH  23  26
HETATM   26  C   UNL     5     -11.721  12.273  64.565  1.00  0.00    -0.353 C  
HETATM   27  O   UNL     5     -11.583  11.315  63.491  1.00  0.00    -0.622 OA 
HETATM   28  H   UNL     5     -11.890  10.465  63.785  1.00  0.00     0.000 HD 
BRANCH  26  29
HETATM   29  C   UNL     5     -11.122  11.698  65.879  1.00  0.00    -0.264 C  
HETATM   30  O   UNL     5     -10.909  12.697  66.876  1.00  0.00    -0.246 OA 
HETATM   31  H   UNL     5     -10.542  12.346  67.679  1.00  0.00     0.000 HD 
BRANCH  29  32
HETATM   32  C   UNL     5      -9.915  10.754  65.766  1.00  0.00    -0.251 C  
HETATM   33  C   UNL     5      -9.699   9.786  66.948  1.00  0.00    -0.192 C  
HETATM   34  O   UNL     5      -8.685  11.520  65.506  1.00  0.00    -0.392 OA 
HETATM   35  O   UNL     5     -10.734   9.345  67.529  1.00  0.00    -0.280 OA 
HETATM   36  O   UNL     5      -8.463   9.604  67.240  1.00  0.00    -0.129 OA 
HETATM   37  H   UNL     5      -7.939  10.936  65.436  1.00  0.00     0.000 HD 
ENDBRANCH  29  32
ENDBRANCH  26  29
ENDBRANCH  23  26
ENDBRANCH   7  23
TORSDOF 8
ENDMDL
MODEL      135
REMARK 921   NORMALIZED FREE ENERGY PREDICTED BY IDOCK:   -5.83 KCAL/MOL
REMARK 922        TOTAL FREE ENERGY PREDICTED BY IDOCK:  -10.80 KCAL/MOL
REMARK 923 INTER-LIGAND FREE ENERGY PREDICTED BY IDOCK:   -8.81 KCAL/MOL
REMARK 924 INTRA-LIGAND FREE ENERGY PREDICTED BY IDOCK:   -1.99 KCAL/MOL
REMARK 927      BINDING AFFINITY PREDICTED BY RF-SCORE:    0.00 PKD
ROOT
HETATM    1 MG   UNL     3      -9.858   9.108  62.946  1.00  0.00    -0.521 Mg 
HETATM    2  O   UNL     4      -6.654   5.068  66.400  1.00  0.00    -0.046 OA 
HETATM    3  C   UNL     4      -7.841   5.815  66.213  1.00  0.00    -0.101 C  
HETATM    4  H   UNL     4      -6.759   4.147  66.190  1.00  0.00     0.000 HD 
HETATM    5  O   UNL     5     -11.638  16.551  63.749  1.00  0.00    -1.617 OA 
HETATM    6  H   UNL     5     -10.970  17.113  63.374  1.00  0.00     0.000 HD 
HETATM    7  C   UNL     5     -11.074  15.558  64.606  1.00  0.00    -0.359 C  
ENDROOT
BRANCH   3   8
HETATM    8  C   UNL     4      -7.671   7.303  66.553  1.00  0.00    -0.093 C  
HETATM    9  O   UNL     4      -6.752   7.909  65.625  1.00  0.00    -0.045 OA 
HETATM   10  H   UNL     4      -6.647   8.830  65.835  1.00  0.00     0.000 HD 
BRANCH   8  11
HETATM   11  C   UNL     4      -8.933   8.214  66.583  1.00  0.00    -0.152 C  
HETATM   12  O   UNL     4      -9.494   8.441  65.294  1.00  0.00    -0.391 OA 
HETATM   13  H   UNL     4     -10.264   8.997  65.313  1.00  0.00     0.000 HD 
BRANCH  11  14
HETATM   14  C   UNL     4     -10.033   7.900  67.633  1.00  0.00    -0.181 C  
HETATM   15  H   UNL     4     -11.681   8.785  68.199  1.00  0.00     0.000 HD 
HETATM   16  O   UNL     4     -11.008   8.977  67.556  1.00  0.00    -0.152 OA 
BRANCH  14  17
HETATM   17  C   UNL     4      -9.643   7.620  69.112  1.00  0.00    -0.155 C  
HETATM   18  C   UNL     4     -10.846   7.033  69.960  1.00  0.00    -0.261 C  
HETATM   19  H   UNL     4      -8.736   8.568  70.620  1.00  0.00     0.000 HD 
HETATM   20  O   UNL     4      -8.975   8.739  69.717  1.00  0.00    -0.140 OA 
HETATM   21  O   UNL     4     -11.595   6.198  69.298  1.00  0.00    -0.329 OA 
HETATM   22  O   UNL     4     -11.036   7.465  71.130  1.00  0.00    -0.244 OA 
ENDBRANCH  14  17
ENDBRANCH  11  14
ENDBRANCH   8  11
ENDBRANCH   3   8
BRANCH   7  23
HETATM   23  C   UNL     5     -12.158  14.646  65.214  1.00  0.00    -0.276 C  
HETATM   24  O   UNL     5     -12.605  13.744  64.200  1.00  0.00    -0.669 OA 
HETATM   25  H   UNL     5     -13.273  13.182  64.575  1.00  0.00     0.000 HD 
BRANCH  23  26
HETATM   26  C   UNL     5     -11.632  13.880  66.448  1.00  0.00    -0.367 C  
HETATM   27  O   UNL     5     -12.390  14.274  67.615  1.00  0.00    -0.598 OA 
HETATM   28  H   UNL     5     -12.066  13.802  68.374  1.00  0.00     0.000 HD 
BRANCH  26  29
HETATM   29  C   UNL     5     -11.547  12.330  66.360  1.00  0.00    -0.383 C  
HETATM   30  O   UNL     5     -12.155  11.676  67.473  1.00  0.00    -0.611 OA 
HETATM   31  H   UNL     5     -12.103  10.729  67.420  1.00  0.00     0.000 HD 
BRANCH  29  32
HETATM   32  C   UNL     5     -10.185  11.704  66.018  1.00  0.00    -0.232 C  
HETATM   33  C   UNL     5      -9.087  11.843  67.093  1.00  0.00    -0.178 C  
HETATM   34  O   UNL     5      -9.697  12.211  64.725  1.00  0.00    -0.421 OA 
HETATM   35  O   UNL     5      -9.457  11.812  68.304  1.00  0.00    -0.184 OA 
HETATM   36  O   UNL     5      -7.918  12.046  66.605  1.00  0.00    -0.106 OA 
HETATM   37  H   UNL     5      -8.856  11.824  64.513  1.00  0.00     0.000 HD 
ENDBRANCH  29  32
ENDBRANCH  26  29
ENDBRANCH  23  26
ENDBRANCH   7  23
TORSDOF 8
ENDMDL
MODEL      136
REMARK 921   NORMALIZED FREE ENERGY PREDICTED BY IDOCK:   -5.83 KCAL/MOL
REMARK 922        TOTAL FREE ENERGY PREDICTED BY IDOCK:  -10.80 KCAL/MOL
REMARK 923 INTER-LIGAND FREE ENERGY PREDICTED BY IDOCK:   -8.91 KCAL/MOL
REMARK 924 INTRA-LIGAND FREE ENERGY PREDICTED BY IDOCK:   -1.89 KCAL/MOL
REMARK 927      BINDING AFFINITY PREDICTED BY RF-SCORE:    0.00 PKD
ROOT
HETATM    1 MG   UNL     3      -7.874  10.476  69.557  1.00  0.00    -0.091 Mg 
HETATM    2  O   UNL     4     -10.768   5.017  70.145  1.00  0.00    -0.176 OA 
HETATM    3  C   UNL     4     -10.440   6.123  69.326  1.00  0.00    -0.254 C  
HETATM    4  H   UNL     4     -10.262   4.240  69.938  1.00  0.00     0.000 HD 
HETATM    5  O   UNL     5     -10.298  17.773  69.257  1.00  0.00    -0.394 OA 
HETATM    6  H   UNL     5     -10.357  18.159  70.123  1.00  0.00     0.000 HD 
HETATM    7  C   UNL     5     -10.943  16.501  69.199  1.00  0.00    -0.303 C  
ENDROOT
BRANCH   3   8
HETATM    8  C   UNL     4     -11.257   7.379  69.661  1.00  0.00    -0.044 C  
HETATM    9  O   UNL     4     -12.413   7.011  70.437  1.00  0.00    -0.622 OA 
HETATM   10  H   UNL     4     -12.919   7.789  70.644  1.00  0.00     0.000 HD 
BRANCH   8  11
HETATM   11  C   UNL     4     -10.564   8.543  70.427  1.00  0.00    -0.223 C  
HETATM   12  O   UNL     4     -10.046   9.553  69.567  1.00  0.00    -0.185 OA 
HETATM   13  H   UNL     4      -9.623  10.263  70.035  1.00  0.00     0.000 HD 
BRANCH  11  14
HETATM   14  C   UNL     4     -11.307   9.160  71.642  1.00  0.00    -0.376 C  
HETATM   15  H   UNL     4     -11.736   8.542  73.445  1.00  0.00     0.000 HD 
HETATM   16  O   UNL     4     -11.281   8.164  72.702  1.00  0.00    -0.370 OA 
BRANCH  14  17
HETATM   17  C   UNL     4     -12.741   9.737  71.469  1.00  0.00    -0.406 C  
HETATM   18  C   UNL     4     -12.747  11.309  71.268  1.00  0.00    -0.405 C  
HETATM   19  H   UNL     4     -14.519   9.612  72.375  1.00  0.00     0.000 HD 
HETATM   20  O   UNL     4     -13.642   9.260  72.481  1.00  0.00    -0.467 OA 
HETATM   21  O   UNL     4     -11.758  11.747  70.542  1.00  0.00    -0.272 OA 
HETATM   22  O   UNL     4     -13.613  11.999  71.872  1.00  0.00    -0.288 OA 
ENDBRANCH  14  17
ENDBRANCH  11  14
ENDBRANCH   8  11
ENDBRANCH   3   8
BRANCH   7  23
HETATM   23  C   UNL     5     -10.848  15.875  67.793  1.00  0.00    -0.324 C  
HETATM   24  O   UNL     5     -10.126  16.775  66.950  1.00  0.00    -0.270 OA 
HETATM   25  H   UNL     5     -10.068  16.389  66.084  1.00  0.00     0.000 HD 
BRANCH  23  26
HETATM   26  C   UNL     5     -10.174  14.486  67.831  1.00  0.00    -0.231 C  
HETATM   27  O   UNL     5     -10.624  13.766  69.001  1.00  0.00    -0.327 OA 
HETATM   28  H   UNL     5     -10.209  12.912  69.024  1.00  0.00     0.000 HD 
BRANCH  26  29
HETATM   29  C   UNL     5     -10.290  13.586  66.569  1.00  0.00    -0.282 C  
HETATM   30  O   UNL     5      -9.906  14.259  65.370  1.00  0.00    -0.501 OA 
HETATM   31  H   UNL     5      -9.977  13.709  64.598  1.00  0.00     0.000 HD 
BRANCH  29  32
HETATM   32  C   UNL     5     -11.590  12.789  66.371  1.00  0.00    -0.378 C  
HETATM   33  C   UNL     5     -11.940  12.414  64.916  1.00  0.00    -0.398 C  
HETATM   34  O   UNL     5     -12.722  13.487  67.002  1.00  0.00    -0.171 OA 
HETATM   35  O   UNL     5     -10.974  12.160  64.137  1.00  0.00    -0.306 OA 
HETATM   36  O   UNL     5     -13.195  12.478  64.660  1.00  0.00    -0.848 OA 
HETATM   37  H   UNL     5     -13.525  12.994  66.881  1.00  0.00     0.000 HD 
ENDBRANCH  29  32
ENDBRANCH  26  29
ENDBRANCH  23  26
ENDBRANCH   7  23
TORSDOF 8
ENDMDL
MODEL      137
REMARK 921   NORMALIZED FREE ENERGY PREDICTED BY IDOCK:   -5.83 KCAL/MOL
REMARK 922        TOTAL FREE ENERGY PREDICTED BY IDOCK:  -10.80 KCAL/MOL
REMARK 923 INTER-LIGAND FREE ENERGY PREDICTED BY IDOCK:   -8.33 KCAL/MOL
REMARK 924 INTRA-LIGAND FREE ENERGY PREDICTED BY IDOCK:   -2.46 KCAL/MOL
REMARK 927      BINDING AFFINITY PREDICTED BY RF-SCORE:    0.00 PKD
ROOT
HETATM    1 MG   UNL     3      -7.295  11.336  70.473  1.00  0.00    -0.328 Mg 
HETATM    2  O   UNL     4      -8.905  16.584  67.579  1.00  0.00    -0.189 OA 
HETATM    3  C   UNL     4      -9.188  15.629  68.583  1.00  0.00    -0.205 C  
HETATM    4  H   UNL     4      -8.547  17.393  67.926  1.00  0.00     0.000 HD 
HETATM    5  O   UNL     5     -10.026   4.143  70.351  1.00  0.00    -0.200 OA 
HETATM    6  H   UNL     5      -9.613   3.623  69.671  1.00  0.00     0.000 HD 
HETATM    7  C   UNL     5     -10.487   5.398  69.850  1.00  0.00    -0.308 C  
ENDROOT
BRANCH   3   8
HETATM    8  C   UNL     4      -9.767  14.322  68.020  1.00  0.00    -0.223 C  
HETATM    9  O   UNL     4      -8.983  13.207  68.483  1.00  0.00    -0.311 OA 
HETATM   10  H   UNL     4      -9.341  12.398  68.135  1.00  0.00     0.000 HD 
BRANCH   8  11
HETATM   11  C   UNL     4     -11.254  13.971  68.318  1.00  0.00    -0.268 C  
HETATM   12  O   UNL     4     -12.107  15.110  68.344  1.00  0.00    -0.553 OA 
HETATM   13  H   UNL     4     -13.014  14.896  68.526  1.00  0.00     0.000 HD 
BRANCH  11  14
HETATM   14  C   UNL     4     -11.897  12.799  67.529  1.00  0.00    -0.343 C  
HETATM   15  H   UNL     4     -12.059  10.874  67.822  1.00  0.00     0.000 HD 
HETATM   16  O   UNL     4     -11.665  11.591  68.305  1.00  0.00    -0.385 OA 
BRANCH  14  17
HETATM   17  C   UNL     4     -11.529  12.569  66.036  1.00  0.00    -0.377 C  
HETATM   18  C   UNL     4     -12.664  13.061  65.045  1.00  0.00    -0.410 C  
HETATM   19  H   UNL     4     -10.836  11.092  64.881  1.00  0.00     0.000 HD 
HETATM   20  O   UNL     4     -11.061  11.233  65.793  1.00  0.00    -0.206 OA 
HETATM   21  O   UNL     4     -13.253  14.158  65.426  1.00  0.00    -0.741 OA 
HETATM   22  O   UNL     4     -12.964  12.339  64.054  1.00  0.00    -0.740 OA 
ENDBRANCH  14  17
ENDBRANCH  11  14
ENDBRANCH   8  11
ENDBRANCH   3   8
BRANCH   7  23
HETATM   23  C   UNL     5     -11.157   6.242  70.953  1.00  0.00    -0.306 C  
HETATM   24  O   UNL     5     -11.189   5.467  72.153  1.00  0.00    -0.217 OA 
HETATM   25  H   UNL     5     -11.602   5.987  72.832  1.00  0.00     0.000 HD 
BRANCH  23  26
HETATM   26  C   UNL     5     -10.421   7.581  71.175  1.00  0.00    -0.205 C  
HETATM   27  O   UNL     5      -9.007   7.328  71.344  1.00  0.00    -0.137 OA 
HETATM   28  H   UNL     5      -8.554   8.152  71.481  1.00  0.00     0.000 HD 
BRANCH  26  29
HETATM   29  C   UNL     5     -10.643   8.714  70.135  1.00  0.00    -0.225 C  
HETATM   30  O   UNL     5     -11.999   9.155  70.076  1.00  0.00    -0.447 OA 
HETATM   31  H   UNL     5     -12.136   9.848  69.440  1.00  0.00     0.000 HD 
BRANCH  29  32
HETATM   32  C   UNL     5     -10.054   8.525  68.728  1.00  0.00    -0.196 C  
HETATM   33  C   UNL     5      -8.720   9.250  68.450  1.00  0.00    -0.129 C  
HETATM   34  O   UNL     5     -11.047   8.881  67.702  1.00  0.00    -0.478 OA 
HETATM   35  O   UNL     5      -7.907   9.353  69.416  1.00  0.00    -0.078 OA 
HETATM   36  O   UNL     5      -8.635   9.727  67.263  1.00  0.00    -0.127 OA 
HETATM   37  H   UNL     5     -10.684   8.765  66.833  1.00  0.00     0.000 HD 
ENDBRANCH  29  32
ENDBRANCH  26  29
ENDBRANCH  23  26
ENDBRANCH   7  23
TORSDOF 8
ENDMDL
MODEL      138
REMARK 921   NORMALIZED FREE ENERGY PREDICTED BY IDOCK:   -5.83 KCAL/MOL
REMARK 922        TOTAL FREE ENERGY PREDICTED BY IDOCK:  -10.80 KCAL/MOL
REMARK 923 INTER-LIGAND FREE ENERGY PREDICTED BY IDOCK:   -8.39 KCAL/MOL
REMARK 924 INTRA-LIGAND FREE ENERGY PREDICTED BY IDOCK:   -2.40 KCAL/MOL
REMARK 927      BINDING AFFINITY PREDICTED BY RF-SCORE:    0.00 PKD
ROOT
HETATM    1 MG   UNL     3      -8.526  12.515  69.276  1.00  0.00    -0.325 Mg 
HETATM    2  O   UNL     4     -12.335  16.531  72.083  1.00  0.00    -0.525 OA 
HETATM    3  C   UNL     4     -11.629  15.306  72.134  1.00  0.00    -0.444 C  
HETATM    4  H   UNL     4     -11.928  17.215  72.604  1.00  0.00     0.000 HD 
HETATM    5  O   UNL     5      -9.549   5.650  65.955  1.00  0.00    -0.287 OA 
HETATM    6  H   UNL     5      -9.764   5.735  65.034  1.00  0.00     0.000 HD 
HETATM    7  C   UNL     5     -10.359   6.499  66.768  1.00  0.00    -0.210 C  
ENDROOT
BRANCH   3   8
HETATM    8  C   UNL     4     -12.286  14.202  71.292  1.00  0.00    -0.339 C  
HETATM    9  O   UNL     4     -13.476  13.734  71.953  1.00  0.00    -0.371 OA 
HETATM   10  H   UNL     4     -13.882  13.050  71.432  1.00  0.00     0.000 HD 
BRANCH   8  11
HETATM   11  C   UNL     4     -12.692  14.520  69.823  1.00  0.00    -0.004 C  
HETATM   12  O   UNL     4     -12.723  15.915  69.537  1.00  0.00    -0.491 OA 
HETATM   13  H   UNL     4     -12.971  16.108  68.641  1.00  0.00     0.000 HD 
BRANCH  11  14
HETATM   14  C   UNL     4     -11.996  13.724  68.686  1.00  0.00    -0.366 C  
HETATM   15  H   UNL     4     -10.233  12.914  68.460  1.00  0.00     0.000 HD 
HETATM   16  O   UNL     4     -10.658  13.402  69.155  1.00  0.00    -0.142 OA 
BRANCH  14  17
HETATM   17  C   UNL     4     -11.945  14.306  67.245  1.00  0.00    -0.405 C  
HETATM   18  C   UNL     4     -11.734  13.188  66.142  1.00  0.00    -0.381 C  
HETATM   19  H   UNL     4     -11.016  15.779  66.263  1.00  0.00     0.000 HD 
HETATM   20  O   UNL     4     -11.047  15.423  67.144  1.00  0.00    -0.327 OA 
HETATM   21  O   UNL     4     -12.370  12.079  66.393  1.00  0.00    -0.403 OA 
HETATM   22  O   UNL     4     -10.931  13.408  65.195  1.00  0.00    -0.287 OA 
ENDBRANCH  14  17
ENDBRANCH  11  14
ENDBRANCH   8  11
ENDBRANCH   3   8
BRANCH   7  23
HETATM   23  C   UNL     5     -10.010   6.361  68.263  1.00  0.00    -0.140 C  
HETATM   24  O   UNL     5      -8.596   6.502  68.409  1.00  0.00    -0.119 OA 
HETATM   25  H   UNL     5      -8.382   6.417  69.330  1.00  0.00     0.000 HD 
BRANCH  23  26
HETATM   26  C   UNL     5     -10.765   7.398  69.124  1.00  0.00    -0.166 C  
HETATM   27  O   UNL     5     -11.043   6.831  70.424  1.00  0.00    -0.267 OA 
HETATM   28  H   UNL     5     -11.507   7.469  70.953  1.00  0.00     0.000 HD 
BRANCH  26  29
HETATM   29  C   UNL     5     -10.136   8.811  69.277  1.00  0.00    -0.204 C  
HETATM   30  O   UNL     5      -8.952   8.809  70.073  1.00  0.00    -0.146 OA 
HETATM   31  H   UNL     5      -8.567   9.673  70.167  1.00  0.00     0.000 HD 
BRANCH  29  32
HETATM   32  C   UNL     5     -11.066   9.974  69.660  1.00  0.00    -0.259 C  
HETATM   33  C   UNL     5     -11.797   9.839  71.012  1.00  0.00    -0.356 C  
HETATM   34  O   UNL     5     -12.036  10.233  68.583  1.00  0.00    -0.692 OA 
HETATM   35  O   UNL     5     -11.175   9.255  71.949  1.00  0.00    -0.370 OA 
HETATM   36  O   UNL     5     -12.998  10.288  70.990  1.00  0.00    -0.365 OA 
HETATM   37  H   UNL     5     -12.611  10.951  68.819  1.00  0.00     0.000 HD 
ENDBRANCH  29  32
ENDBRANCH  26  29
ENDBRANCH  23  26
ENDBRANCH   7  23
TORSDOF 8
ENDMDL
MODEL      139
REMARK 921   NORMALIZED FREE ENERGY PREDICTED BY IDOCK:   -5.82 KCAL/MOL
REMARK 922        TOTAL FREE ENERGY PREDICTED BY IDOCK:  -10.79 KCAL/MOL
REMARK 923 INTER-LIGAND FREE ENERGY PREDICTED BY IDOCK:   -8.97 KCAL/MOL
REMARK 924 INTRA-LIGAND FREE ENERGY PREDICTED BY IDOCK:   -1.82 KCAL/MOL
REMARK 927      BINDING AFFINITY PREDICTED BY RF-SCORE:    0.00 PKD
ROOT
HETATM    1 MG   UNL     3      -6.681  11.535  65.833  1.00  0.00    -0.243 Mg 
HETATM    2  O   UNL     4      -8.302  17.525  65.910  1.00  0.00    -0.538 OA 
HETATM    3  C   UNL     4      -8.032  16.343  66.638  1.00  0.00    -0.288 C  
HETATM    4  H   UNL     4      -7.596  18.160  65.958  1.00  0.00     0.000 HD 
HETATM    5  O   UNL     5     -10.540   4.968  66.929  1.00  0.00    -0.227 OA 
HETATM    6  H   UNL     5     -10.911   4.640  66.119  1.00  0.00     0.000 HD 
HETATM    7  C   UNL     5     -10.839   6.350  67.127  1.00  0.00    -0.393 C  
ENDROOT
BRANCH   3   8
HETATM    8  C   UNL     4      -9.173  15.318  66.560  1.00  0.00    -0.290 C  
HETATM    9  O   UNL     4      -9.249  14.583  67.796  1.00  0.00    -0.186 OA 
HETATM   10  H   UNL     4      -9.955  13.949  67.747  1.00  0.00     0.000 HD 
BRANCH   8  11
HETATM   11  C   UNL     4     -10.614  15.822  66.257  1.00  0.00    -0.310 C  
HETATM   12  O   UNL     4     -10.718  16.519  65.020  1.00  0.00    -0.662 OA 
HETATM   13  H   UNL     4     -11.598  16.826  64.835  1.00  0.00     0.000 HD 
BRANCH  11  14
HETATM   14  C   UNL     4     -11.789  14.825  66.445  1.00  0.00    -0.222 C  
HETATM   15  H   UNL     4     -12.835  14.212  67.978  1.00  0.00     0.000 HD 
HETATM   16  O   UNL     4     -12.116  14.822  67.862  1.00  0.00    -0.288 OA 
BRANCH  14  17
HETATM   17  C   UNL     4     -11.671  13.369  65.909  1.00  0.00    -0.356 C  
HETATM   18  C   UNL     4     -12.342  13.188  64.484  1.00  0.00    -0.385 C  
HETATM   19  H   UNL     4     -12.000  11.508  66.560  1.00  0.00     0.000 HD 
HETATM   20  O   UNL     4     -12.073  12.397  66.887  1.00  0.00    -0.564 OA 
HETATM   21  O   UNL     4     -12.172  14.208  63.692  1.00  0.00    -0.616 OA 
HETATM   22  O   UNL     4     -13.036  12.158  64.263  1.00  0.00    -0.723 OA 
ENDBRANCH  14  17
ENDBRANCH  11  14
ENDBRANCH   8  11
ENDBRANCH   3   8
BRANCH   7  23
HETATM   23  C   UNL     5     -10.237   6.883  68.443  1.00  0.00    -0.176 C  
HETATM   24  O   UNL     5      -8.950   6.288  68.620  1.00  0.00    -0.128 OA 
HETATM   25  H   UNL     5      -8.580   6.616  69.431  1.00  0.00     0.000 HD 
BRANCH  23  26
HETATM   26  C   UNL     5     -10.143   8.424  68.446  1.00  0.00    -0.198 C  
HETATM   27  O   UNL     5     -11.213   8.971  67.641  1.00  0.00    -0.434 OA 
HETATM   28  H   UNL     5     -11.154   9.919  67.643  1.00  0.00     0.000 HD 
BRANCH  26  29
HETATM   29  C   UNL     5     -10.080   9.147  69.820  1.00  0.00    -0.199 C  
HETATM   30  O   UNL     5      -8.952   8.756  70.602  1.00  0.00    -0.154 OA 
HETATM   31  H   UNL     5      -8.913   9.198  71.442  1.00  0.00     0.000 HD 
BRANCH  29  32
HETATM   32  C   UNL     5     -11.361   9.192  70.668  1.00  0.00    -0.273 C  
HETATM   33  C   UNL     5     -11.733   7.885  71.401  1.00  0.00    -0.281 C  
HETATM   34  O   UNL     5     -12.497   9.661  69.859  1.00  0.00    -0.286 OA 
HETATM   35  O   UNL     5     -10.778   7.167  71.821  1.00  0.00    -0.214 OA 
HETATM   36  O   UNL     5     -12.995   7.658  71.429  1.00  0.00    -0.339 OA 
HETATM   37  H   UNL     5     -13.289   9.688  70.383  1.00  0.00     0.000 HD 
ENDBRANCH  29  32
ENDBRANCH  26  29
ENDBRANCH  23  26
ENDBRANCH   7  23
TORSDOF 8
ENDMDL
MODEL      140
REMARK 921   NORMALIZED FREE ENERGY PREDICTED BY IDOCK:   -5.82 KCAL/MOL
REMARK 922        TOTAL FREE ENERGY PREDICTED BY IDOCK:  -10.79 KCAL/MOL
REMARK 923 INTER-LIGAND FREE ENERGY PREDICTED BY IDOCK:   -8.10 KCAL/MOL
REMARK 924 INTRA-LIGAND FREE ENERGY PREDICTED BY IDOCK:   -2.68 KCAL/MOL
REMARK 927      BINDING AFFINITY PREDICTED BY RF-SCORE:    0.00 PKD
ROOT
HETATM    1 MG   UNL     3      -9.574  15.254  69.568  1.00  0.00    -0.172 Mg 
HETATM    2  O   UNL     4     -13.527  16.536  74.178  1.00  0.00    -0.749 OA 
HETATM    3  C   UNL     4     -12.477  15.727  73.683  1.00  0.00    -0.577 C  
HETATM    4  H   UNL     4     -13.236  17.163  74.830  1.00  0.00     0.000 HD 
HETATM    5  O   UNL     5      -9.200   9.675  64.282  1.00  0.00    -0.318 OA 
HETATM    6  H   UNL     5      -9.682   9.904  63.496  1.00  0.00     0.000 HD 
HETATM    7  C   UNL     5      -9.978   9.887  65.460  1.00  0.00    -0.292 C  
ENDROOT
BRANCH   3   8
HETATM    8  C   UNL     4     -12.948  14.714  72.630  1.00  0.00    -0.443 C  
HETATM    9  O   UNL     4     -14.349  14.911  72.361  1.00  0.00    -0.449 OA 
HETATM   10  H   UNL     4     -14.640  14.283  71.709  1.00  0.00     0.000 HD 
BRANCH   8  11
HETATM   11  C   UNL     4     -12.233  14.683  71.247  1.00  0.00    -0.348 C  
HETATM   12  O   UNL     4     -10.837  14.949  71.329  1.00  0.00    -0.552 OA 
HETATM   13  H   UNL     4     -10.401  14.930  70.485  1.00  0.00     0.000 HD 
BRANCH  11  14
HETATM   14  C   UNL     4     -12.527  13.487  70.302  1.00  0.00    -0.239 C  
HETATM   15  H   UNL     4     -13.214  11.675  70.555  1.00  0.00     0.000 HD 
HETATM   16  O   UNL     4     -13.034  12.407  71.134  1.00  0.00    -0.268 OA 
BRANCH  14  17
HETATM   17  C   UNL     4     -11.423  12.963  69.339  1.00  0.00    -0.260 C  
HETATM   18  C   UNL     4     -11.496  13.633  67.905  1.00  0.00    -0.314 C  
HETATM   19  H   UNL     4     -10.677  11.208  68.740  1.00  0.00     0.000 HD 
HETATM   20  O   UNL     4     -11.352  11.528  69.327  1.00  0.00    -0.244 OA 
HETATM   21  O   UNL     4     -11.815  14.895  67.932  1.00  0.00    -0.338 OA 
HETATM   22  O   UNL     4     -11.339  12.908  66.884  1.00  0.00    -0.282 OA 
ENDBRANCH  14  17
ENDBRANCH  11  14
ENDBRANCH   8  11
ENDBRANCH   3   8
BRANCH   7  23
HETATM   23  C   UNL     5      -9.196   9.515  66.736  1.00  0.00    -0.149 C  
HETATM   24  O   UNL     5      -9.432  10.527  67.717  1.00  0.00    -0.147 OA 
HETATM   25  H   UNL     5      -8.950  10.298  68.503  1.00  0.00     0.000 HD 
BRANCH  23  26
HETATM   26  C   UNL     5      -9.599   8.122  67.266  1.00  0.00    -0.163 C  
HETATM   27  O   UNL     5      -9.384   7.135  66.232  1.00  0.00    -0.258 OA 
HETATM   28  H   UNL     5      -9.632   6.278  66.559  1.00  0.00     0.000 HD 
BRANCH  26  29
HETATM   29  C   UNL     5      -8.972   7.644  68.606  1.00  0.00    -0.133 C  
HETATM   30  O   UNL     5      -8.174   6.470  68.458  1.00  0.00    -0.119 OA 
HETATM   31  H   UNL     5      -7.791   6.177  69.277  1.00  0.00     0.000 HD 
BRANCH  29  32
HETATM   32  C   UNL     5      -9.890   7.546  69.835  1.00  0.00    -0.187 C  
HETATM   33  C   UNL     5     -10.986   6.462  69.777  1.00  0.00    -0.356 C  
HETATM   34  O   UNL     5     -10.489   8.857  70.135  1.00  0.00    -0.200 OA 
HETATM   35  O   UNL     5     -10.701   5.385  69.172  1.00  0.00    -0.220 OA 
HETATM   36  O   UNL     5     -12.096   6.829  70.303  1.00  0.00    -0.328 OA 
HETATM   37  H   UNL     5     -11.056   8.797  70.894  1.00  0.00     0.000 HD 
ENDBRANCH  29  32
ENDBRANCH  26  29
ENDBRANCH  23  26
ENDBRANCH   7  23
TORSDOF 8
ENDMDL
MODEL      141
REMARK 921   NORMALIZED FREE ENERGY PREDICTED BY IDOCK:   -5.82 KCAL/MOL
REMARK 922        TOTAL FREE ENERGY PREDICTED BY IDOCK:  -10.78 KCAL/MOL
REMARK 923 INTER-LIGAND FREE ENERGY PREDICTED BY IDOCK:   -9.40 KCAL/MOL
REMARK 924 INTRA-LIGAND FREE ENERGY PREDICTED BY IDOCK:   -1.38 KCAL/MOL
REMARK 927      BINDING AFFINITY PREDICTED BY RF-SCORE:    0.00 PKD
ROOT
HETATM    1 MG   UNL     3     -12.908  14.174  67.653  1.00  0.00    -0.523 Mg 
HETATM    2  O   UNL     4     -13.867  16.027  73.498  1.00  0.00    -0.796 OA 
HETATM    3  C   UNL     4     -12.978  15.909  72.404  1.00  0.00    -0.433 C  
HETATM    4  H   UNL     4     -14.190  16.912  73.620  1.00  0.00     0.000 HD 
HETATM    5  O   UNL     5      -9.109   8.271  64.503  1.00  0.00    -0.261 OA 
HETATM    6  H   UNL     5      -9.665   7.506  64.409  1.00  0.00     0.000 HD 
HETATM    7  C   UNL     5      -9.187   8.825  65.816  1.00  0.00    -0.206 C  
ENDROOT
BRANCH   3   8
HETATM    8  C   UNL     4     -12.456  14.478  72.209  1.00  0.00    -0.271 C  
HETATM    9  O   UNL     4     -13.170  13.580  73.079  1.00  0.00    -0.493 OA 
HETATM   10  H   UNL     4     -12.847  12.694  72.958  1.00  0.00     0.000 HD 
BRANCH   8  11
HETATM   11  C   UNL     4     -12.509  13.849  70.786  1.00  0.00    -0.375 C  
HETATM   12  O   UNL     4     -11.490  14.334  69.918  1.00  0.00    -0.264 OA 
HETATM   13  H   UNL     4     -11.522  13.949  69.050  1.00  0.00     0.000 HD 
BRANCH  11  14
HETATM   14  C   UNL     4     -12.659  12.307  70.676  1.00  0.00    -0.156 C  
HETATM   15  H   UNL     4     -13.217  10.893  71.904  1.00  0.00     0.000 HD 
HETATM   16  O   UNL     4     -13.125  11.836  71.971  1.00  0.00    -0.467 OA 
BRANCH  14  17
HETATM   17  C   UNL     4     -11.469  11.441  70.175  1.00  0.00    -0.214 C  
HETATM   18  C   UNL     4     -11.563  11.111  68.628  1.00  0.00    -0.315 C  
HETATM   19  H   UNL     4     -10.510   9.771  70.711  1.00  0.00     0.000 HD 
HETATM   20  O   UNL     4     -11.237  10.300  71.016  1.00  0.00    -0.315 OA 
HETATM   21  O   UNL     4     -12.022  12.096  67.909  1.00  0.00    -0.489 OA 
HETATM   22  O   UNL     4     -11.289   9.944  68.234  1.00  0.00    -0.144 OA 
ENDBRANCH  14  17
ENDBRANCH  11  14
ENDBRANCH   8  11
ENDBRANCH   3   8
BRANCH   7  23
HETATM   23  C   UNL     5      -8.284  10.066  65.967  1.00  0.00    -0.126 C  
HETATM   24  O   UNL     5      -7.289  10.024  64.942  1.00  0.00    -0.131 OA 
HETATM   25  H   UNL     5      -6.733  10.788  65.035  1.00  0.00     0.000 HD 
BRANCH  23  26
HETATM   26  C   UNL     5      -9.099  11.376  65.898  1.00  0.00    -0.198 C  
HETATM   27  O   UNL     5      -8.223  12.499  66.148  1.00  0.00    -0.232 OA 
HETATM   28  H   UNL     5      -8.724  13.305  66.105  1.00  0.00     0.000 HD 
BRANCH  26  29
HETATM   29  C   UNL     5      -9.955  11.634  64.626  1.00  0.00    -0.253 C  
HETATM   30  O   UNL     5      -9.178  11.662  63.429  1.00  0.00    -0.499 OA 
HETATM   31  H   UNL     5      -9.701  11.820  62.652  1.00  0.00     0.000 HD 
BRANCH  29  32
HETATM   32  C   UNL     5     -10.967  12.791  64.664  1.00  0.00    -0.327 C  
HETATM   33  C   UNL     5     -11.943  12.875  63.472  1.00  0.00    -0.556 C  
HETATM   34  O   UNL     5     -10.272  14.077  64.842  1.00  0.00    -0.477 OA 
HETATM   35  O   UNL     5     -12.324  11.781  62.960  1.00  0.00    -0.359 OA 
HETATM   36  O   UNL     5     -12.194  14.077  63.101  1.00  0.00    -0.525 OA 
HETATM   37  H   UNL     5     -10.897  14.791  64.865  1.00  0.00     0.000 HD 
ENDBRANCH  29  32
ENDBRANCH  26  29
ENDBRANCH  23  26
ENDBRANCH   7  23
TORSDOF 8
ENDMDL
MODEL      142
REMARK 921   NORMALIZED FREE ENERGY PREDICTED BY IDOCK:   -5.81 KCAL/MOL
REMARK 922        TOTAL FREE ENERGY PREDICTED BY IDOCK:  -10.76 KCAL/MOL
REMARK 923 INTER-LIGAND FREE ENERGY PREDICTED BY IDOCK:   -8.09 KCAL/MOL
REMARK 924 INTRA-LIGAND FREE ENERGY PREDICTED BY IDOCK:   -2.67 KCAL/MOL
REMARK 927      BINDING AFFINITY PREDICTED BY RF-SCORE:    0.00 PKD
ROOT
HETATM    1 MG   UNL     3      -8.263  11.226  64.547  1.00  0.00    -0.335 Mg 
HETATM    2  O   UNL     4     -11.629  16.382  63.767  1.00  0.00    -1.605 OA 
HETATM    3  C   UNL     4     -11.109  15.407  64.650  1.00  0.00    -0.347 C  
HETATM    4  H   UNL     4     -11.163  17.209  63.812  1.00  0.00     0.000 HD 
HETATM    5  O   UNL     5     -10.045   3.883  66.002  1.00  0.00    -0.400 OA 
HETATM    6  H   UNL     5     -10.187   3.392  65.202  1.00  0.00     0.000 HD 
HETATM    7  C   UNL     5     -10.774   5.110  66.007  1.00  0.00    -0.140 C  
ENDROOT
BRANCH   3   8
HETATM    8  C   UNL     4     -11.863  14.071  64.577  1.00  0.00    -0.434 C  
HETATM    9  O   UNL     4     -12.528  13.959  63.304  1.00  0.00    -1.113 OA 
HETATM   10  H   UNL     4     -12.994  13.133  63.259  1.00  0.00     0.000 HD 
BRANCH   8  11
HETATM   11  C   UNL     4     -11.066  12.748  64.776  1.00  0.00    -0.302 C  
HETATM   12  O   UNL     4      -9.749  12.799  64.238  1.00  0.00    -0.578 OA 
HETATM   13  H   UNL     4      -9.263  11.992  64.360  1.00  0.00     0.000 HD 
BRANCH  11  14
HETATM   14  C   UNL     4     -11.079  12.095  66.184  1.00  0.00    -0.312 C  
HETATM   15  H   UNL     4     -12.221  12.257  67.760  1.00  0.00     0.000 HD 
HETATM   16  O   UNL     4     -12.214  12.657  66.899  1.00  0.00    -0.489 OA 
BRANCH  14  17
HETATM   17  C   UNL     4      -9.802  12.129  67.071  1.00  0.00    -0.203 C  
HETATM   18  C   UNL     4      -9.210  10.685  67.345  1.00  0.00    -0.143 C  
HETATM   19  H   UNL     4      -9.201  12.956  68.789  1.00  0.00     0.000 HD 
HETATM   20  O   UNL     4      -9.981  12.935  68.247  1.00  0.00    -0.228 OA 
HETATM   21  O   UNL     4      -9.291   9.883  66.322  1.00  0.00    -0.160 OA 
HETATM   22  O   UNL     4      -8.807  10.400  68.507  1.00  0.00    -0.130 OA 
ENDBRANCH  14  17
ENDBRANCH  11  14
ENDBRANCH   8  11
ENDBRANCH   3   8
BRANCH   7  23
HETATM   23  C   UNL     5     -10.542   5.908  67.307  1.00  0.00    -0.291 C  
HETATM   24  O   UNL     5     -10.379   4.978  68.380  1.00  0.00    -0.119 OA 
HETATM   25  H   UNL     5     -10.236   5.469  69.180  1.00  0.00     0.000 HD 
BRANCH  23  26
HETATM   26  C   UNL     5      -9.320   6.845  67.192  1.00  0.00    -0.141 C  
HETATM   27  O   UNL     5      -9.004   7.383  68.496  1.00  0.00    -0.129 OA 
HETATM   28  H   UNL     5      -8.252   7.959  68.425  1.00  0.00     0.000 HD 
BRANCH  26  29
HETATM   29  C   UNL     5      -8.037   6.287  66.514  1.00  0.00    -0.110 C  
HETATM   30  O   UNL     5      -7.439   5.220  67.250  1.00  0.00    -0.082 OA 
HETATM   31  H   UNL     5      -6.655   4.879  66.836  1.00  0.00     0.000 HD 
BRANCH  29  32
HETATM   32  C   UNL     5      -6.981   7.296  66.034  1.00  0.00    -0.065 C  
HETATM   33  C   UNL     5      -6.271   8.109  67.137  1.00  0.00    -0.055 C  
HETATM   34  O   UNL     5      -7.557   8.203  65.027  1.00  0.00    -0.085 OA 
HETATM   35  O   UNL     5      -6.061   7.523  68.240  1.00  0.00    -0.033 OA 
HETATM   36  O   UNL     5      -6.040   9.326  66.806  1.00  0.00    -0.061 OA 
HETATM   37  H   UNL     5      -6.906   8.827  64.730  1.00  0.00     0.000 HD 
ENDBRANCH  29  32
ENDBRANCH  26  29
ENDBRANCH  23  26
ENDBRANCH   7  23
TORSDOF 8
ENDMDL
MODEL      143
REMARK 921   NORMALIZED FREE ENERGY PREDICTED BY IDOCK:   -5.80 KCAL/MOL
REMARK 922        TOTAL FREE ENERGY PREDICTED BY IDOCK:  -10.75 KCAL/MOL
REMARK 923 INTER-LIGAND FREE ENERGY PREDICTED BY IDOCK:   -8.80 KCAL/MOL
REMARK 924 INTRA-LIGAND FREE ENERGY PREDICTED BY IDOCK:   -1.95 KCAL/MOL
REMARK 927      BINDING AFFINITY PREDICTED BY RF-SCORE:    0.00 PKD
ROOT
HETATM    1 MG   UNL     3     -10.916  14.695  69.665  1.00  0.00    -0.214 Mg 
HETATM    2  O   UNL     4     -11.561  16.421  63.738  1.00  0.00    -1.605 OA 
HETATM    3  C   UNL     4     -11.967  15.573  64.795  1.00  0.00    -0.026 C  
HETATM    4  H   UNL     4     -12.184  17.115  63.560  1.00  0.00     0.000 HD 
HETATM    5  O   UNL     5      -7.736   8.593  73.110  1.00  0.00    -0.373 OA 
HETATM    6  H   UNL     5      -6.814   8.734  73.291  1.00  0.00     0.000 HD 
HETATM    7  C   UNL     5      -8.066   8.922  71.760  1.00  0.00     0.022 C  
ENDROOT
BRANCH   3   8
HETATM    8  C   UNL     4     -10.960  14.451  65.084  1.00  0.00    -0.373 C  
HETATM    9  O   UNL     4     -10.910  14.197  66.500  1.00  0.00    -0.293 OA 
HETATM   10  H   UNL     4     -10.287  13.502  66.679  1.00  0.00     0.000 HD 
BRANCH   8  11
HETATM   11  C   UNL     4     -11.158  13.069  64.395  1.00  0.00    -0.370 C  
HETATM   12  O   UNL     4     -11.799  13.160  63.126  1.00  0.00    -0.800 OA 
HETATM   13  H   UNL     4     -11.919  12.316  62.706  1.00  0.00     0.000 HD 
BRANCH  11  14
HETATM   14  C   UNL     4      -9.949  12.096  64.351  1.00  0.00    -0.214 C  
HETATM   15  H   UNL     4      -9.150  10.963  62.974  1.00  0.00     0.000 HD 
HETATM   16  O   UNL     4      -9.890  11.559  63.001  1.00  0.00    -0.375 OA 
BRANCH  14  17
HETATM   17  C   UNL     4      -9.829  10.954  65.400  1.00  0.00    -0.255 C  
HETATM   18  C   UNL     4      -8.707  11.237  66.484  1.00  0.00    -0.178 C  
HETATM   19  H   UNL     4      -9.679   8.961  65.425  1.00  0.00     0.000 HD 
HETATM   20  O   UNL     4      -9.752   9.659  64.784  1.00  0.00    -0.237 OA 
HETATM   21  O   UNL     4      -8.631  12.486  66.844  1.00  0.00    -0.195 OA 
HETATM   22  O   UNL     4      -7.945  10.295  66.834  1.00  0.00    -0.110 OA 
ENDBRANCH  14  17
ENDBRANCH  11  14
ENDBRANCH   8  11
ENDBRANCH   3   8
BRANCH   7  23
HETATM   23  C   UNL     5      -9.562   8.693  71.466  1.00  0.00    -0.257 C  
HETATM   24  O   UNL     5      -9.958   9.595  70.431  1.00  0.00    -0.252 OA 
HETATM   25  H   UNL     5     -10.879   9.454  70.250  1.00  0.00     0.000 HD 
BRANCH  23  26
HETATM   26  C   UNL     5      -9.847   7.229  71.066  1.00  0.00    -0.183 C  
HETATM   27  O   UNL     5      -9.523   6.358  72.174  1.00  0.00    -0.151 OA 
HETATM   28  H   UNL     5      -9.699   5.457  71.928  1.00  0.00     0.000 HD 
BRANCH  26  29
HETATM   29  C   UNL     5     -11.258   6.888  70.509  1.00  0.00    -0.307 C  
HETATM   30  O   UNL     5     -11.531   7.525  69.262  1.00  0.00    -0.406 OA 
HETATM   31  H   UNL     5     -12.393   7.317  68.921  1.00  0.00     0.000 HD 
BRANCH  29  32
HETATM   32  C   UNL     5     -12.455   6.998  71.468  1.00  0.00    -0.386 C  
HETATM   33  C   UNL     5     -12.855   8.427  71.891  1.00  0.00    -0.353 C  
HETATM   34  O   UNL     5     -12.239   6.158  72.658  1.00  0.00    -0.529 OA 
HETATM   35  O   UNL     5     -12.708   9.346  71.031  1.00  0.00    -0.287 OA 
HETATM   36  O   UNL     5     -13.229   8.511  73.114  1.00  0.00    -0.096 OA 
HETATM   37  H   UNL     5     -12.978   6.225  73.250  1.00  0.00     0.000 HD 
ENDBRANCH  29  32
ENDBRANCH  26  29
ENDBRANCH  23  26
ENDBRANCH   7  23
TORSDOF 8
ENDMDL
MODEL      144
REMARK 921   NORMALIZED FREE ENERGY PREDICTED BY IDOCK:   -5.80 KCAL/MOL
REMARK 922        TOTAL FREE ENERGY PREDICTED BY IDOCK:  -10.75 KCAL/MOL
REMARK 923 INTER-LIGAND FREE ENERGY PREDICTED BY IDOCK:   -7.98 KCAL/MOL
REMARK 924 INTRA-LIGAND FREE ENERGY PREDICTED BY IDOCK:   -2.77 KCAL/MOL
REMARK 927      BINDING AFFINITY PREDICTED BY RF-SCORE:    0.00 PKD
ROOT
HETATM    1 MG   UNL     3     -10.128  16.235  69.116  1.00  0.00    -0.186 Mg 
HETATM    2  O   UNL     4     -13.101  16.286  74.564  1.00  0.00    -0.908 OA 
HETATM    3  C   UNL     4     -12.110  15.702  73.739  1.00  0.00    -0.492 C  
HETATM    4  H   UNL     4     -12.737  16.839  75.245  1.00  0.00     0.000 HD 
HETATM    5  O   UNL     5     -10.375  11.615  62.967  1.00  0.00    -0.620 OA 
HETATM    6  H   UNL     5     -11.034  11.897  62.343  1.00  0.00     0.000 HD 
HETATM    7  C   UNL     5     -10.898  11.545  64.294  1.00  0.00    -0.359 C  
ENDROOT
BRANCH   3   8
HETATM    8  C   UNL     4     -12.699  14.808  72.638  1.00  0.00    -0.384 C  
HETATM    9  O   UNL     4     -14.110  15.066  72.508  1.00  0.00    -0.470 OA 
HETATM   10  H   UNL     4     -14.474  14.513  71.826  1.00  0.00     0.000 HD 
BRANCH   8  11
HETATM   11  C   UNL     4     -12.101  14.893  71.203  1.00  0.00    -0.327 C  
HETATM   12  O   UNL     4     -10.681  14.998  71.191  1.00  0.00    -0.543 OA 
HETATM   13  H   UNL     4     -10.316  15.050  70.315  1.00  0.00     0.000 HD 
BRANCH  11  14
HETATM   14  C   UNL     4     -12.603  13.876  70.143  1.00  0.00    -0.224 C  
HETATM   15  H   UNL     4     -13.379  12.085  70.222  1.00  0.00     0.000 HD 
HETATM   16  O   UNL     4     -13.072  12.707  70.870  1.00  0.00    -0.060 OA 
BRANCH  14  17
HETATM   17  C   UNL     4     -11.676  13.452  68.968  1.00  0.00    -0.323 C  
HETATM   18  C   UNL     4     -11.830  14.392  67.701  1.00  0.00    -0.378 C  
HETATM   19  H   UNL     4     -11.201  11.788  67.968  1.00  0.00     0.000 HD 
HETATM   20  O   UNL     4     -11.767  12.047  68.685  1.00  0.00    -0.288 OA 
HETATM   21  O   UNL     4     -12.000  15.648  67.998  1.00  0.00    -0.157 OA 
HETATM   22  O   UNL     4     -11.867  13.868  66.553  1.00  0.00    -0.370 OA 
ENDBRANCH  14  17
ENDBRANCH  11  14
ENDBRANCH   8  11
ENDBRANCH   3   8
BRANCH   7  23
HETATM   23  C   UNL     5      -9.829  11.087  65.306  1.00  0.00    -0.259 C  
HETATM   24  O   UNL     5     -10.265  11.456  66.616  1.00  0.00    -0.210 OA 
HETATM   25  H   UNL     5      -9.607  11.175  67.239  1.00  0.00     0.000 HD 
BRANCH  23  26
HETATM   26  C   UNL     5      -9.569   9.568  65.214  1.00  0.00    -0.243 C  
HETATM   27  O   UNL     5      -9.161   9.232  63.868  1.00  0.00    -0.430 OA 
HETATM   28  H   UNL     5      -9.001   8.297  63.812  1.00  0.00     0.000 HD 
BRANCH  26  29
HETATM   29  C   UNL     5      -8.595   8.933  66.246  1.00  0.00    -0.133 C  
HETATM   30  O   UNL     5      -9.114   8.935  67.575  1.00  0.00    -0.132 OA 
HETATM   31  H   UNL     5      -8.519   8.547  68.206  1.00  0.00     0.000 HD 
BRANCH  29  32
HETATM   32  C   UNL     5      -7.125   9.383  66.218  1.00  0.00    -0.088 C  
HETATM   33  C   UNL     5      -6.826  10.757  66.853  1.00  0.00    -0.101 C  
HETATM   34  O   UNL     5      -6.598   9.333  64.844  1.00  0.00    -0.072 OA 
HETATM   35  O   UNL     5      -7.522  11.092  67.857  1.00  0.00    -0.089 OA 
HETATM   36  O   UNL     5      -5.934  11.428  66.222  1.00  0.00    -0.137 OA 
HETATM   37  H   UNL     5      -5.690   9.611  64.827  1.00  0.00     0.000 HD 
ENDBRANCH  29  32
ENDBRANCH  26  29
ENDBRANCH  23  26
ENDBRANCH   7  23
TORSDOF 8
ENDMDL
MODEL      145
REMARK 921   NORMALIZED FREE ENERGY PREDICTED BY IDOCK:   -5.76 KCAL/MOL
REMARK 922        TOTAL FREE ENERGY PREDICTED BY IDOCK:  -10.70 KCAL/MOL
REMARK 923 INTER-LIGAND FREE ENERGY PREDICTED BY IDOCK:   -7.92 KCAL/MOL
REMARK 924 INTRA-LIGAND FREE ENERGY PREDICTED BY IDOCK:   -2.78 KCAL/MOL
REMARK 927      BINDING AFFINITY PREDICTED BY RF-SCORE:    0.00 PKD
ROOT
HETATM    1 MG   UNL     3      -7.130  12.805  66.130  1.00  0.00    -0.295 Mg 
HETATM    2  O   UNL     4     -11.480  16.563  63.789  1.00  0.00    -1.615 OA 
HETATM    3  C   UNL     4     -10.951  15.890  64.916  1.00  0.00    -0.411 C  
HETATM    4  H   UNL     4     -11.287  17.493  63.789  1.00  0.00     0.000 HD 
HETATM    5  O   UNL     5      -7.122   5.457  68.416  1.00  0.00    -0.060 OA 
HETATM    6  H   UNL     5      -6.918   4.868  67.699  1.00  0.00     0.000 HD 
HETATM    7  C   UNL     5      -8.138   6.393  68.057  1.00  0.00    -0.116 C  
ENDROOT
BRANCH   3   8
HETATM    8  C   UNL     4     -11.262  14.387  64.916  1.00  0.00    -0.389 C  
HETATM    9  O   UNL     4     -10.275  13.688  64.134  1.00  0.00    -0.718 OA 
HETATM   10  H   UNL     4     -10.468  12.757  64.134  1.00  0.00     0.000 HD 
BRANCH   8  11
HETATM   11  C   UNL     4     -11.356  13.640  66.279  1.00  0.00    -0.312 C  
HETATM   12  O   UNL     4     -11.712  12.268  66.146  1.00  0.00    -0.412 OA 
HETATM   13  H   UNL     4     -11.768  11.813  66.977  1.00  0.00     0.000 HD 
BRANCH  11  14
HETATM   14  C   UNL     4     -10.195  13.828  67.293  1.00  0.00    -0.253 C  
HETATM   15  H   UNL     4      -8.851  12.645  68.074  1.00  0.00     0.000 HD 
HETATM   16  O   UNL     4      -9.561  12.530  67.453  1.00  0.00    -0.186 OA 
BRANCH  14  17
HETATM   17  C   UNL     4     -10.470  14.477  68.680  1.00  0.00    -0.247 C  
HETATM   18  C   UNL     4     -11.722  13.842  69.414  1.00  0.00    -0.325 C  
HETATM   19  H   UNL     4     -10.646  16.309  69.461  1.00  0.00     0.000 HD 
HETATM   20  O   UNL     4     -10.479  15.912  68.614  1.00  0.00    -0.225 OA 
HETATM   21  O   UNL     4     -11.831  12.555  69.246  1.00  0.00    -0.304 OA 
HETATM   22  O   UNL     4     -12.537  14.605  70.003  1.00  0.00    -0.308 OA 
ENDBRANCH  14  17
ENDBRANCH  11  14
ENDBRANCH   8  11
ENDBRANCH   3   8
BRANCH   7  23
HETATM   23  C   UNL     5      -8.470   7.350  69.220  1.00  0.00    -0.136 C  
HETATM   24  O   UNL     5      -7.315   7.460  70.053  1.00  0.00    -0.078 OA 
HETATM   25  H   UNL     5      -7.519   8.049  70.770  1.00  0.00     0.000 HD 
BRANCH  23  26
HETATM   26  C   UNL     5      -8.922   8.736  68.709  1.00  0.00    -0.138 C  
HETATM   27  O   UNL     5      -8.628   9.735  69.711  1.00  0.00    -0.169 OA 
HETATM   28  H   UNL     5      -8.906  10.588  69.397  1.00  0.00     0.000 HD 
BRANCH  26  29
HETATM   29  C   UNL     5      -8.407   9.201  67.318  1.00  0.00    -0.121 C  
HETATM   30  O   UNL     5      -7.614  10.385  67.387  1.00  0.00    -0.093 OA 
HETATM   31  H   UNL     5      -7.299  10.670  66.537  1.00  0.00     0.000 HD 
BRANCH  29  32
HETATM   32  C   UNL     5      -9.419   9.271  66.164  1.00  0.00    -0.236 C  
HETATM   33  C   UNL     5      -9.000  10.123  64.947  1.00  0.00    -0.197 C  
HETATM   34  O   UNL     5     -10.735   9.707  66.659  1.00  0.00    -0.149 OA 
HETATM   35  O   UNL     5      -7.769  10.135  64.647  1.00  0.00    -0.143 OA 
HETATM   36  O   UNL     5      -9.970  10.780  64.426  1.00  0.00    -0.284 OA 
HETATM   37  H   UNL     5     -11.361   9.751  65.946  1.00  0.00     0.000 HD 
ENDBRANCH  29  32
ENDBRANCH  26  29
ENDBRANCH  23  26
ENDBRANCH   7  23
TORSDOF 8
ENDMDL
MODEL      146
REMARK 921   NORMALIZED FREE ENERGY PREDICTED BY IDOCK:   -5.76 KCAL/MOL
REMARK 922        TOTAL FREE ENERGY PREDICTED BY IDOCK:  -10.70 KCAL/MOL
REMARK 923 INTER-LIGAND FREE ENERGY PREDICTED BY IDOCK:   -9.04 KCAL/MOL
REMARK 924 INTRA-LIGAND FREE ENERGY PREDICTED BY IDOCK:   -1.67 KCAL/MOL
REMARK 927      BINDING AFFINITY PREDICTED BY RF-SCORE:    0.00 PKD
ROOT
HETATM    1 MG   UNL     3     -12.333   6.529  67.177  1.00  0.00    -0.570 Mg 
HETATM    2  O   UNL     4     -12.180   4.863  73.154  1.00  0.00    -0.379 OA 
HETATM    3  C   UNL     4     -12.772   5.652  72.140  1.00  0.00     0.838 C  
HETATM    4  H   UNL     4     -12.717   4.120  73.405  1.00  0.00     0.000 HD 
HETATM    5  O   UNL     5     -10.096  12.821  63.353  1.00  0.00    -0.613 OA 
HETATM    6  H   UNL     5      -9.190  12.757  63.074  1.00  0.00     0.000 HD 
HETATM    7  C   UNL     5     -10.248  12.489  64.733  1.00  0.00    -0.280 C  
ENDROOT
BRANCH   3   8
HETATM    8  C   UNL     4     -11.905   6.853  71.734  1.00  0.00    -0.316 C  
HETATM    9  O   UNL     4     -11.282   6.592  70.462  1.00  0.00    -0.292 OA 
HETATM   10  H   UNL     4     -10.745   7.335  70.211  1.00  0.00     0.000 HD 
BRANCH   8  11
HETATM   11  C   UNL     4     -12.571   8.255  71.619  1.00  0.00    -0.327 C  
HETATM   12  O   UNL     4     -13.019   8.768  72.869  1.00  0.00    -0.628 OA 
HETATM   13  H   UNL     4     -13.426   9.624  72.799  1.00  0.00     0.000 HD 
BRANCH  11  14
HETATM   14  C   UNL     4     -11.840   9.344  70.789  1.00  0.00    -0.256 C  
HETATM   15  H   UNL     4     -10.072  10.171  70.867  1.00  0.00     0.000 HD 
HETATM   16  O   UNL     4     -10.519   9.505  71.375  1.00  0.00    -0.317 OA 
BRANCH  14  17
HETATM   17  C   UNL     4     -12.508  10.729  70.558  1.00  0.00    -0.360 C  
HETATM   18  C   UNL     4     -11.549  11.755  69.824  1.00  0.00    -0.299 C  
HETATM   19  H   UNL     4     -13.536  12.083  71.609  1.00  0.00     0.000 HD 
HETATM   20  O   UNL     4     -13.127  11.237  71.750  1.00  0.00    -0.472 OA 
HETATM   21  O   UNL     4     -10.806  11.210  68.903  1.00  0.00    -0.191 OA 
HETATM   22  O   UNL     4     -11.509  12.950  70.227  1.00  0.00    -0.058 OA 
ENDBRANCH  14  17
ENDBRANCH  11  14
ENDBRANCH   8  11
ENDBRANCH   3   8
BRANCH   7  23
HETATM   23  C   UNL     5     -11.718  12.592  65.187  1.00  0.00    -0.367 C  
HETATM   24  O   UNL     5     -11.924  11.663  66.253  1.00  0.00    -0.401 OA 
HETATM   25  H   UNL     5     -12.830  11.726  66.532  1.00  0.00     0.000 HD 
BRANCH  23  26
HETATM   26  C   UNL     5     -12.082  14.028  65.623  1.00  0.00    -0.417 C  
HETATM   27  O   UNL     5     -13.519  14.187  65.598  1.00  0.00    -0.725 OA 
HETATM   28  H   UNL     5     -13.742  15.071  65.866  1.00  0.00     0.000 HD 
BRANCH  26  29
HETATM   29  C   UNL     5     -11.507  14.547  66.971  1.00  0.00    -0.370 C  
HETATM   30  O   UNL     5     -12.491  14.627  68.001  1.00  0.00    -0.595 OA 
HETATM   31  H   UNL     5     -12.139  14.944  68.825  1.00  0.00     0.000 HD 
BRANCH  29  32
HETATM   32  C   UNL     5     -10.626  15.807  66.939  1.00  0.00    -0.317 C  
HETATM   33  C   UNL     5     -10.765  16.760  68.144  1.00  0.00    -0.361 C  
HETATM   34  O   UNL     5     -10.830  16.546  65.682  1.00  0.00    -0.271 OA 
HETATM   35  O   UNL     5     -10.992  16.234  69.274  1.00  0.00    -0.281 OA 
HETATM   36  O   UNL     5     -10.700  18.001  67.825  1.00  0.00    -0.410 OA 
HETATM   37  H   UNL     5     -10.287  17.324  65.662  1.00  0.00     0.000 HD 
ENDBRANCH  29  32
ENDBRANCH  26  29
ENDBRANCH  23  26
ENDBRANCH   7  23
TORSDOF 8
ENDMDL
MODEL      147
REMARK 921   NORMALIZED FREE ENERGY PREDICTED BY IDOCK:   -5.75 KCAL/MOL
REMARK 922        TOTAL FREE ENERGY PREDICTED BY IDOCK:  -10.68 KCAL/MOL
REMARK 923 INTER-LIGAND FREE ENERGY PREDICTED BY IDOCK:   -8.32 KCAL/MOL
REMARK 924 INTRA-LIGAND FREE ENERGY PREDICTED BY IDOCK:   -2.36 KCAL/MOL
REMARK 927      BINDING AFFINITY PREDICTED BY RF-SCORE:    0.00 PKD
ROOT
HETATM    1 MG   UNL     3     -10.012   9.077  62.530  1.00  0.00    -0.542 Mg 
HETATM    2  O   UNL     4      -7.404   4.589  65.931  1.00  0.00    -0.074 OA 
HETATM    3  C   UNL     4      -8.521   5.425  65.695  1.00  0.00    -0.138 C  
HETATM    4  H   UNL     4      -7.542   3.695  65.639  1.00  0.00     0.000 HD 
HETATM    5  O   UNL     5     -11.420  16.542  63.758  1.00  0.00    -1.615 OA 
HETATM    6  H   UNL     5     -10.687  17.085  63.493  1.00  0.00     0.000 HD 
HETATM    7  C   UNL     5     -11.001  15.453  64.581  1.00  0.00    -0.314 C  
ENDROOT
BRANCH   3   8
HETATM    8  C   UNL     4      -8.298   6.869  66.167  1.00  0.00    -0.130 C  
HETATM    9  O   UNL     4      -9.463   7.661  65.870  1.00  0.00    -0.404 OA 
HETATM   10  H   UNL     4      -9.325   8.554  66.162  1.00  0.00     0.000 HD 
BRANCH   8  11
HETATM   11  C   UNL     4      -7.961   7.125  67.665  1.00  0.00    -0.114 C  
HETATM   12  O   UNL     4      -7.034   6.187  68.202  1.00  0.00    -0.074 OA 
HETATM   13  H   UNL     4      -6.829   6.344  69.116  1.00  0.00     0.000 HD 
BRANCH  11  14
HETATM   14  C   UNL     4      -7.613   8.575  68.096  1.00  0.00    -0.098 C  
HETATM   15  H   UNL     4      -6.114   9.783  67.761  1.00  0.00     0.000 HD 
HETATM   16  O   UNL     4      -6.327   8.895  67.497  1.00  0.00    -0.055 OA 
BRANCH  14  17
HETATM   17  C   UNL     4      -7.627   8.967  69.601  1.00  0.00    -0.072 C  
HETATM   18  C   UNL     4      -7.280  10.495  69.838  1.00  0.00    -0.130 C  
HETATM   19  H   UNL     4      -6.878   8.288  71.326  1.00  0.00     0.000 HD 
HETATM   20  O   UNL     4      -6.869   8.050  70.406  1.00  0.00    -0.037 OA 
HETATM   21  O   UNL     4      -7.780  11.291  68.936  1.00  0.00    -0.133 OA 
HETATM   22  O   UNL     4      -6.506  10.806  70.784  1.00  0.00    -0.348 OA 
ENDBRANCH  14  17
ENDBRANCH  11  14
ENDBRANCH   8  11
ENDBRANCH   3   8
BRANCH   7  23
HETATM   23  C   UNL     5     -12.191  14.572  65.012  1.00  0.00    -0.373 C  
HETATM   24  O   UNL     5     -12.507  13.688  63.935  1.00  0.00    -0.680 OA 
HETATM   25  H   UNL     5     -13.240  13.145  64.200  1.00  0.00     0.000 HD 
BRANCH  23  26
HETATM   26  C   UNL     5     -11.882  13.786  66.305  1.00  0.00    -0.398 C  
HETATM   27  O   UNL     5     -12.901  14.066  67.291  1.00  0.00    -0.239 OA 
HETATM   28  H   UNL     5     -12.710  13.582  68.087  1.00  0.00     0.000 HD 
BRANCH  26  29
HETATM   29  C   UNL     5     -11.653  12.253  66.187  1.00  0.00    -0.390 C  
HETATM   30  O   UNL     5     -12.141  11.531  67.317  1.00  0.00    -0.548 OA 
HETATM   31  H   UNL     5     -12.001  10.593  67.245  1.00  0.00     0.000 HD 
BRANCH  29  32
HETATM   32  C   UNL     5     -10.257  11.765  65.769  1.00  0.00    -0.239 C  
HETATM   33  C   UNL     5     -10.176  11.023  64.419  1.00  0.00    -0.346 C  
HETATM   34  O   UNL     5      -9.659  10.944  66.835  1.00  0.00    -0.174 OA 
HETATM   35  O   UNL     5     -10.960  11.407  63.500  1.00  0.00    -0.398 OA 
HETATM   36  O   UNL     5      -9.350  10.041  64.424  1.00  0.00    -0.256 OA 
HETATM   37  H   UNL     5      -8.797  10.642  66.578  1.00  0.00     0.000 HD 
ENDBRANCH  29  32
ENDBRANCH  26  29
ENDBRANCH  23  26
ENDBRANCH   7  23
TORSDOF 8
ENDMDL
MODEL      148
REMARK 921   NORMALIZED FREE ENERGY PREDICTED BY IDOCK:   -5.74 KCAL/MOL
REMARK 922        TOTAL FREE ENERGY PREDICTED BY IDOCK:  -10.67 KCAL/MOL
REMARK 923 INTER-LIGAND FREE ENERGY PREDICTED BY IDOCK:   -8.81 KCAL/MOL
REMARK 924 INTRA-LIGAND FREE ENERGY PREDICTED BY IDOCK:   -1.86 KCAL/MOL
REMARK 927      BINDING AFFINITY PREDICTED BY RF-SCORE:    0.00 PKD
ROOT
HETATM    1 MG   UNL     3      -9.415  14.088  69.805  1.00  0.00    -0.377 Mg 
HETATM    2  O   UNL     4     -13.331  16.262  74.101  1.00  0.00    -0.929 OA 
HETATM    3  C   UNL     4     -12.327  15.330  73.751  1.00  0.00    -0.605 C  
HETATM    4  H   UNL     4     -13.009  16.961  74.660  1.00  0.00     0.000 HD 
HETATM    5  O   UNL     5      -9.323   7.779  65.400  1.00  0.00    -0.364 OA 
HETATM    6  H   UNL     5      -9.781   7.918  64.580  1.00  0.00     0.000 HD 
HETATM    7  C   UNL     5     -10.099   8.208  66.519  1.00  0.00    -0.216 C  
ENDROOT
BRANCH   3   8
HETATM    8  C   UNL     4     -12.847  14.201  72.847  1.00  0.00    -0.335 C  
HETATM    9  O   UNL     4     -14.286  14.223  72.827  1.00  0.00    -0.434 OA 
HETATM   10  H   UNL     4     -14.608  13.525  72.268  1.00  0.00     0.000 HD 
BRANCH   8  11
HETATM   11  C   UNL     4     -12.385  14.157  71.362  1.00  0.00    -0.344 C  
HETATM   12  O   UNL     4     -11.052  14.619  71.173  1.00  0.00    -0.533 OA 
HETATM   13  H   UNL     4     -10.770  14.591  70.266  1.00  0.00     0.000 HD 
BRANCH  11  14
HETATM   14  C   UNL     4     -12.655  12.859  70.553  1.00  0.00    -0.129 C  
HETATM   15  H   UNL     4     -13.048  11.005  71.028  1.00  0.00     0.000 HD 
HETATM   16  O   UNL     4     -12.883  11.799  71.523  1.00  0.00    -0.401 OA 
BRANCH  14  17
HETATM   17  C   UNL     4     -11.646  12.395  69.464  1.00  0.00    -0.286 C  
HETATM   18  C   UNL     4     -11.868  13.127  68.076  1.00  0.00    -0.358 C  
HETATM   19  H   UNL     4     -10.946  10.680  68.713  1.00  0.00     0.000 HD 
HETATM   20  O   UNL     4     -11.562  10.963  69.378  1.00  0.00    -0.264 OA 
HETATM   21  O   UNL     4     -12.195  14.382  68.192  1.00  0.00    -0.258 OA 
HETATM   22  O   UNL     4     -11.806  12.451  67.012  1.00  0.00    -0.481 OA 
ENDBRANCH  14  17
ENDBRANCH  11  14
ENDBRANCH   8  11
ENDBRANCH   3   8
BRANCH   7  23
HETATM   23  C   UNL     5      -9.355   7.982  67.851  1.00  0.00    -0.138 C  
HETATM   24  O   UNL     5      -8.475   9.087  68.065  1.00  0.00    -0.123 OA 
HETATM   25  H   UNL     5      -8.017   8.948  68.885  1.00  0.00     0.000 HD 
BRANCH  23  26
HETATM   26  C   UNL     5     -10.336   7.815  69.032  1.00  0.00    -0.211 C  
HETATM   27  O   UNL     5     -11.171   6.658  68.801  1.00  0.00    -0.488 OA 
HETATM   28  H   UNL     5     -11.774   6.555  69.528  1.00  0.00     0.000 HD 
BRANCH  26  29
HETATM   29  C   UNL     5      -9.744   7.774  70.468  1.00  0.00    -0.175 C  
HETATM   30  O   UNL     5      -9.060   6.555  70.753  1.00  0.00    -0.153 OA 
HETATM   31  H   UNL     5      -8.698   6.530  71.631  1.00  0.00     0.000 HD 
BRANCH  29  32
HETATM   32  C   UNL     5     -10.657   8.189  71.634  1.00  0.00    -0.232 C  
HETATM   33  C   UNL     5     -10.104   7.933  73.051  1.00  0.00    -0.317 C  
HETATM   34  O   UNL     5     -11.987   7.573  71.490  1.00  0.00    -0.283 OA 
HETATM   35  O   UNL     5      -8.853   8.058  73.214  1.00  0.00    -0.216 OA 
HETATM   36  O   UNL     5     -10.997   7.549  73.887  1.00  0.00    -0.159 OA 
HETATM   37  H   UNL     5     -12.551   7.829  72.209  1.00  0.00     0.000 HD 
ENDBRANCH  29  32
ENDBRANCH  26  29
ENDBRANCH  23  26
ENDBRANCH   7  23
TORSDOF 8
ENDMDL
MODEL      149
REMARK 921   NORMALIZED FREE ENERGY PREDICTED BY IDOCK:   -5.73 KCAL/MOL
REMARK 922        TOTAL FREE ENERGY PREDICTED BY IDOCK:  -10.66 KCAL/MOL
REMARK 923 INTER-LIGAND FREE ENERGY PREDICTED BY IDOCK:   -8.64 KCAL/MOL
REMARK 924 INTRA-LIGAND FREE ENERGY PREDICTED BY IDOCK:   -2.02 KCAL/MOL
REMARK 927      BINDING AFFINITY PREDICTED BY RF-SCORE:    0.00 PKD
ROOT
HETATM    1 MG   UNL     3     -12.515   6.745  66.713  1.00  0.00    -0.416 Mg 
HETATM    2  O   UNL     4      -8.687   3.821  70.627  1.00  0.00    -0.069 OA 
HETATM    3  C   UNL     4      -9.644   4.842  70.418  1.00  0.00    -0.197 C  
HETATM    4  H   UNL     4      -9.041   3.072  71.092  1.00  0.00     0.000 HD 
HETATM    5  O   UNL     5     -12.309  13.583  63.190  1.00  0.00    -0.968 OA 
HETATM    6  H   UNL     5     -11.864  13.532  62.352  1.00  0.00     0.000 HD 
HETATM    7  C   UNL     5     -11.549  12.970  64.231  1.00  0.00    -0.385 C  
ENDROOT
BRANCH   3   8
HETATM    8  C   UNL     4      -9.072   6.053  69.666  1.00  0.00    -0.135 C  
HETATM    9  O   UNL     4      -8.535   5.627  68.400  1.00  0.00    -0.105 OA 
HETATM   10  H   UNL     4      -8.181   6.376  67.935  1.00  0.00     0.000 HD 
BRANCH   8  11
HETATM   11  C   UNL     4     -10.009   7.259  69.365  1.00  0.00    -0.170 C  
HETATM   12  O   UNL     4     -11.286   6.870  68.870  1.00  0.00    -0.474 OA 
HETATM   13  H   UNL     4     -11.857   7.606  68.686  1.00  0.00     0.000 HD 
BRANCH  11  14
HETATM   14  C   UNL     4     -10.133   8.372  70.441  1.00  0.00    -0.187 C  
HETATM   15  H   UNL     4     -11.580   9.020  71.582  1.00  0.00     0.000 HD 
HETATM   16  O   UNL     4     -11.504   8.339  70.924  1.00  0.00    -0.274 OA 
BRANCH  14  17
HETATM   17  C   UNL     4      -9.706   9.830  70.108  1.00  0.00    -0.248 C  
HETATM   18  C   UNL     4     -10.261  10.324  68.708  1.00  0.00    -0.192 C  
HETATM   19  H   UNL     4      -8.036  10.929  70.097  1.00  0.00     0.000 HD 
HETATM   20  O   UNL     4      -8.298  10.038  70.300  1.00  0.00    -0.135 OA 
HETATM   21  O   UNL     4     -11.465   9.905  68.445  1.00  0.00    -0.068 OA 
HETATM   22  O   UNL     4      -9.498  10.979  67.946  1.00  0.00    -0.159 OA 
ENDBRANCH  14  17
ENDBRANCH  11  14
ENDBRANCH   8  11
ENDBRANCH   3   8
BRANCH   7  23
HETATM   23  C   UNL     5     -12.271  13.053  65.591  1.00  0.00    -0.466 C  
HETATM   24  O   UNL     5     -11.928  11.893  66.352  1.00  0.00    -0.572 OA 
HETATM   25  H   UNL     5     -12.373  11.944  67.189  1.00  0.00     0.000 HD 
BRANCH  23  26
HETATM   26  C   UNL     5     -11.908  14.346  66.353  1.00  0.00    -0.388 C  
HETATM   27  O   UNL     5     -12.525  14.321  67.660  1.00  0.00    -0.570 OA 
HETATM   28  H   UNL     5     -12.301  15.117  68.129  1.00  0.00     0.000 HD 
BRANCH  26  29
HETATM   29  C   UNL     5     -10.404  14.720  66.475  1.00  0.00    -0.286 C  
HETATM   30  O   UNL     5      -9.752  14.054  67.556  1.00  0.00    -0.224 OA 
HETATM   31  H   UNL     5      -8.832  14.283  67.631  1.00  0.00     0.000 HD 
BRANCH  29  32
HETATM   32  C   UNL     5     -10.028  16.210  66.426  1.00  0.00    -0.299 C  
HETATM   33  C   UNL     5     -10.514  17.070  67.611  1.00  0.00    -0.343 C  
HETATM   34  O   UNL     5     -10.462  16.808  65.153  1.00  0.00    -0.658 OA 
HETATM   35  O   UNL     5     -10.556  16.514  68.749  1.00  0.00    -0.280 OA 
HETATM   36  O   UNL     5     -10.889  18.248  67.268  1.00  0.00    -0.373 OA 
HETATM   37  H   UNL     5     -10.230  17.728  65.122  1.00  0.00     0.000 HD 
ENDBRANCH  29  32
ENDBRANCH  26  29
ENDBRANCH  23  26
ENDBRANCH   7  23
TORSDOF 8
ENDMDL
MODEL      150
REMARK 921   NORMALIZED FREE ENERGY PREDICTED BY IDOCK:   -5.73 KCAL/MOL
REMARK 922        TOTAL FREE ENERGY PREDICTED BY IDOCK:  -10.66 KCAL/MOL
REMARK 923 INTER-LIGAND FREE ENERGY PREDICTED BY IDOCK:   -8.91 KCAL/MOL
REMARK 924 INTRA-LIGAND FREE ENERGY PREDICTED BY IDOCK:   -1.75 KCAL/MOL
REMARK 927      BINDING AFFINITY PREDICTED BY RF-SCORE:    0.00 PKD
ROOT
HETATM    1 MG   UNL     3     -12.183  13.094  69.097  1.00  0.00    -0.260 Mg 
HETATM    2  O   UNL     4     -11.606  16.294  63.810  1.00  0.00    -1.539 OA 
HETATM    3  C   UNL     4     -12.092  15.142  64.472  1.00  0.00    -0.301 C  
HETATM    4  H   UNL     4     -12.290  16.925  63.615  1.00  0.00     0.000 HD 
HETATM    5  O   UNL     5      -8.835   6.740  71.858  1.00  0.00    -0.135 OA 
HETATM    6  H   UNL     5      -8.040   6.943  72.337  1.00  0.00     0.000 HD 
HETATM    7  C   UNL     5      -8.863   7.384  70.584  1.00  0.00    -0.150 C  
ENDROOT
BRANCH   3   8
HETATM    8  C   UNL     4     -10.988  14.123  64.789  1.00  0.00    -0.400 C  
HETATM    9  O   UNL     4     -10.562  14.279  66.155  1.00  0.00    -0.284 OA 
HETATM   10  H   UNL     4      -9.878  13.649  66.351  1.00  0.00     0.000 HD 
BRANCH   8  11
HETATM   11  C   UNL     4     -11.286  12.608  64.590  1.00  0.00    -0.310 C  
HETATM   12  O   UNL     4     -11.777  12.297  63.291  1.00  0.00    -0.651 OA 
HETATM   13  H   UNL     4     -11.959  11.372  63.170  1.00  0.00     0.000 HD 
BRANCH  11  14
HETATM   14  C   UNL     4     -10.208  11.587  65.047  1.00  0.00    -0.280 C  
HETATM   15  H   UNL     4      -9.362  10.028  64.230  1.00  0.00     0.000 HD 
HETATM   16  O   UNL     4     -10.020  10.653  63.950  1.00  0.00    -0.312 OA 
BRANCH  14  17
HETATM   17  C   UNL     4     -10.378  10.825  66.392  1.00  0.00    -0.248 C  
HETATM   18  C   UNL     4      -9.226  11.153  67.430  1.00  0.00    -0.153 C  
HETATM   19  H   UNL     4     -10.726   8.957  67.014  1.00  0.00     0.000 HD 
HETATM   20  O   UNL     4     -10.622   9.423  66.193  1.00  0.00    -0.065 OA 
HETATM   21  O   UNL     4      -8.844  12.398  67.411  1.00  0.00    -0.171 OA 
HETATM   22  O   UNL     4      -8.721  10.210  68.100  1.00  0.00    -0.120 OA 
ENDBRANCH  14  17
ENDBRANCH  11  14
ENDBRANCH   8  11
ENDBRANCH   3   8
BRANCH   7  23
HETATM   23  C   UNL     5     -10.153   7.054  69.806  1.00  0.00    -0.189 C  
HETATM   24  O   UNL     5     -10.048   5.719  69.308  1.00  0.00    -0.172 OA 
HETATM   25  H   UNL     5     -10.842   5.516  68.829  1.00  0.00     0.000 HD 
BRANCH  23  26
HETATM   26  C   UNL     5     -11.410   7.222  70.687  1.00  0.00    -0.284 C  
HETATM   27  O   UNL     5     -11.573   6.050  71.518  1.00  0.00    -0.271 OA 
HETATM   28  H   UNL     5     -12.346   6.153  72.060  1.00  0.00     0.000 HD 
BRANCH  26  29
HETATM   29  C   UNL     5     -11.530   8.511  71.546  1.00  0.00    -0.287 C  
HETATM   30  O   UNL     5     -11.067   8.332  72.885  1.00  0.00    -0.332 OA 
HETATM   31  H   UNL     5     -11.140   9.121  73.410  1.00  0.00     0.000 HD 
BRANCH  29  32
HETATM   32  C   UNL     5     -12.863   9.277  71.512  1.00  0.00    -0.354 C  
HETATM   33  C   UNL     5     -12.783  10.756  71.080  1.00  0.00    -0.415 C  
HETATM   34  O   UNL     5     -13.554   9.164  72.807  1.00  0.00    -0.739 OA 
HETATM   35  O   UNL     5     -11.914  11.056  70.209  1.00  0.00    -0.302 OA 
HETATM   36  O   UNL     5     -13.583  11.521  71.726  1.00  0.00    -0.181 OA 
HETATM   37  H   UNL     5     -14.377   9.636  72.787  1.00  0.00     0.000 HD 
ENDBRANCH  29  32
ENDBRANCH  26  29
ENDBRANCH  23  26
ENDBRANCH   7  23
TORSDOF 8
ENDMDL
MODEL      151
REMARK 921   NORMALIZED FREE ENERGY PREDICTED BY IDOCK:   -5.73 KCAL/MOL
REMARK 922        TOTAL FREE ENERGY PREDICTED BY IDOCK:  -10.65 KCAL/MOL
REMARK 923 INTER-LIGAND FREE ENERGY PREDICTED BY IDOCK:   -8.52 KCAL/MOL
REMARK 924 INTRA-LIGAND FREE ENERGY PREDICTED BY IDOCK:   -2.13 KCAL/MOL
REMARK 927      BINDING AFFINITY PREDICTED BY RF-SCORE:    0.00 PKD
ROOT
HETATM    1 MG   UNL     3      -8.354  12.150  62.823  1.00  0.00    -0.461 Mg 
HETATM    2  O   UNL     4      -7.348   6.463  65.094  1.00  0.00    -0.071 OA 
HETATM    3  C   UNL     4      -8.243   7.542  64.906  1.00  0.00    -0.083 C  
HETATM    4  H   UNL     4      -7.521   5.732  64.512  1.00  0.00     0.000 HD 
HETATM    5  O   UNL     5      -9.037  19.112  66.029  1.00  0.00    -0.442 OA 
HETATM    6  H   UNL     5      -8.195  19.544  66.110  1.00  0.00     0.000 HD 
HETATM    7  C   UNL     5      -8.998  17.777  66.533  1.00  0.00    -0.261 C  
ENDROOT
BRANCH   3   8
HETATM    8  C   UNL     4      -7.963   8.723  65.847  1.00  0.00    -0.104 C  
HETATM    9  O   UNL     4      -6.604   8.655  66.317  1.00  0.00    -0.060 OA 
HETATM   10  H   UNL     4      -6.431   9.386  66.900  1.00  0.00     0.000 HD 
BRANCH   8  11
HETATM   11  C   UNL     4      -8.176  10.171  65.317  1.00  0.00    -0.157 C  
HETATM   12  O   UNL     4      -7.225  10.554  64.329  1.00  0.00    -0.331 OA 
HETATM   13  H   UNL     4      -7.355  11.437  64.005  1.00  0.00     0.000 HD 
BRANCH  11  14
HETATM   14  C   UNL     4      -9.614  10.597  64.916  1.00  0.00    -0.269 C  
HETATM   15  H   UNL     4     -10.632  10.584  63.249  1.00  0.00     0.000 HD 
HETATM   16  O   UNL     4      -9.752  10.323  63.494  1.00  0.00    -0.298 OA 
BRANCH  14  17
HETATM   17  C   UNL     4     -10.126  12.027  65.250  1.00  0.00    -0.260 C  
HETATM   18  C   UNL     4     -11.418  12.013  66.167  1.00  0.00    -0.339 C  
HETATM   19  H   UNL     4     -10.545  13.725  64.282  1.00  0.00     0.000 HD 
HETATM   20  O   UNL     4     -10.233  12.851  64.078  1.00  0.00    -0.397 OA 
HETATM   21  O   UNL     4     -11.407  11.079  67.075  1.00  0.00    -0.382 OA 
HETATM   22  O   UNL     4     -12.361  12.810  65.906  1.00  0.00    -0.551 OA 
ENDBRANCH  14  17
ENDBRANCH  11  14
ENDBRANCH   8  11
ENDBRANCH   3   8
BRANCH   7  23
HETATM   23  C   UNL     5     -10.364  17.075  66.401  1.00  0.00    -0.303 C  
HETATM   24  O   UNL     5     -10.578  16.767  65.022  1.00  0.00    -0.695 OA 
HETATM   25  H   UNL     5     -11.420  16.335  64.941  1.00  0.00     0.000 HD 
BRANCH  23  26
HETATM   26  C   UNL     5     -10.440  15.804  67.274  1.00  0.00    -0.308 C  
HETATM   27  O   UNL     5      -9.224  15.039  67.114  1.00  0.00    -0.200 OA 
HETATM   28  H   UNL     5      -9.270  14.257  67.651  1.00  0.00     0.000 HD 
BRANCH  26  29
HETATM   29  C   UNL     5     -10.773  15.976  68.783  1.00  0.00    -0.282 C  
HETATM   30  O   UNL     5      -9.732  15.506  69.638  1.00  0.00    -0.270 OA 
HETATM   31  H   UNL     5      -9.936  15.612  70.561  1.00  0.00     0.000 HD 
BRANCH  29  32
HETATM   32  C   UNL     5     -12.154  15.509  69.272  1.00  0.00    -0.259 C  
HETATM   33  C   UNL     5     -12.351  15.468  70.802  1.00  0.00    -0.414 C  
HETATM   34  O   UNL     5     -12.495  14.205  68.681  1.00  0.00    -0.537 OA 
HETATM   35  O   UNL     5     -11.757  16.354  71.485  1.00  0.00    -0.448 OA 
HETATM   36  O   UNL     5     -13.054  14.472  71.199  1.00  0.00    -0.334 OA 
HETATM   37  H   UNL     5     -13.348  13.916  68.983  1.00  0.00     0.000 HD 
ENDBRANCH  29  32
ENDBRANCH  26  29
ENDBRANCH  23  26
ENDBRANCH   7  23
TORSDOF 8
ENDMDL
MODEL      152
REMARK 921   NORMALIZED FREE ENERGY PREDICTED BY IDOCK:   -5.71 KCAL/MOL
REMARK 922        TOTAL FREE ENERGY PREDICTED BY IDOCK:  -10.63 KCAL/MOL
REMARK 923 INTER-LIGAND FREE ENERGY PREDICTED BY IDOCK:   -7.96 KCAL/MOL
REMARK 924 INTRA-LIGAND FREE ENERGY PREDICTED BY IDOCK:   -2.67 KCAL/MOL
REMARK 927      BINDING AFFINITY PREDICTED BY RF-SCORE:    0.00 PKD
ROOT
HETATM    1 MG   UNL     3      -9.468  11.532  66.908  1.00  0.00    -0.165 Mg 
HETATM    2  O   UNL     4      -7.475  17.409  66.810  1.00  0.00    -0.183 OA 
HETATM    3  C   UNL     4      -7.361  16.109  67.356  1.00  0.00    -0.176 C  
HETATM    4  H   UNL     4      -6.779  17.615  66.196  1.00  0.00     0.000 HD 
HETATM    5  O   UNL     5     -13.736   7.447  71.838  1.00  0.00    -0.482 OA 
HETATM    6  H   UNL     5     -14.662   7.515  71.640  1.00  0.00     0.000 HD 
HETATM    7  C   UNL     5     -13.108   8.728  71.881  1.00  0.00    -0.378 C  
ENDROOT
BRANCH   3   8
HETATM    8  C   UNL     4      -8.486  15.776  68.347  1.00  0.00    -0.170 C  
HETATM    9  O   UNL     4      -9.329  16.930  68.528  1.00  0.00    -0.243 OA 
HETATM   10  H   UNL     4     -10.025  16.724  69.142  1.00  0.00     0.000 HD 
BRANCH   8  11
HETATM   11  C   UNL     4      -9.434  14.582  68.033  1.00  0.00    -0.209 C  
HETATM   12  O   UNL     4      -9.279  13.489  68.931  1.00  0.00    -0.392 OA 
HETATM   13  H   UNL     4      -9.858  12.761  68.739  1.00  0.00     0.000 HD 
BRANCH  11  14
HETATM   14  C   UNL     4     -10.933  14.892  67.770  1.00  0.00    -0.293 C  
HETATM   15  H   UNL     4     -12.410  15.550  68.867  1.00  0.00     0.000 HD 
HETATM   16  O   UNL     4     -11.493  15.361  69.027  1.00  0.00    -0.294 OA 
BRANCH  14  17
HETATM   17  C   UNL     4     -11.852  13.811  67.132  1.00  0.00    -0.406 C  
HETATM   18  C   UNL     4     -11.985  12.514  68.033  1.00  0.00    -0.223 C  
HETATM   19  H   UNL     4     -12.075  12.895  65.369  1.00  0.00     0.000 HD 
HETATM   20  O   UNL     4     -11.514  13.555  65.760  1.00  0.00    -0.307 OA 
HETATM   21  O   UNL     4     -12.038  12.766  69.309  1.00  0.00    -0.262 OA 
HETATM   22  O   UNL     4     -11.940  11.380  67.481  1.00  0.00    -0.626 OA 
ENDBRANCH  14  17
ENDBRANCH  11  14
ENDBRANCH   8  11
ENDBRANCH   3   8
BRANCH   7  23
HETATM   23  C   UNL     5     -11.604   8.618  72.204  1.00  0.00    -0.370 C  
HETATM   24  O   UNL     5     -11.451   7.763  73.338  1.00  0.00    -0.617 OA 
HETATM   25  H   UNL     5     -10.525   7.695  73.537  1.00  0.00     0.000 HD 
BRANCH  23  26
HETATM   26  C   UNL     5     -10.798   8.091  70.996  1.00  0.00    -0.235 C  
HETATM   27  O   UNL     5     -11.536   8.346  69.779  1.00  0.00    -0.451 OA 
HETATM   28  H   UNL     5     -11.040   8.022  69.037  1.00  0.00     0.000 HD 
BRANCH  26  29
HETATM   29  C   UNL     5      -9.326   8.563  70.843  1.00  0.00    -0.174 C  
HETATM   30  O   UNL     5      -8.728   8.934  72.085  1.00  0.00    -0.386 OA 
HETATM   31  H   UNL     5      -7.828   9.222  71.991  1.00  0.00     0.000 HD 
BRANCH  29  32
HETATM   32  C   UNL     5      -9.011   9.589  69.742  1.00  0.00    -0.200 C  
HETATM   33  C   UNL     5      -7.554  10.092  69.683  1.00  0.00    -0.156 C  
HETATM   34  O   UNL     5      -9.939  10.729  69.821  1.00  0.00    -0.436 OA 
HETATM   35  O   UNL     5      -6.644   9.265  69.989  1.00  0.00    -0.044 OA 
HETATM   36  O   UNL     5      -7.455  11.337  69.390  1.00  0.00    -0.085 OA 
HETATM   37  H   UNL     5      -9.745  11.363  69.141  1.00  0.00     0.000 HD 
ENDBRANCH  29  32
ENDBRANCH  26  29
ENDBRANCH  23  26
ENDBRANCH   7  23
TORSDOF 8
ENDMDL
MODEL      153
REMARK 921   NORMALIZED FREE ENERGY PREDICTED BY IDOCK:   -5.71 KCAL/MOL
REMARK 922        TOTAL FREE ENERGY PREDICTED BY IDOCK:  -10.62 KCAL/MOL
REMARK 923 INTER-LIGAND FREE ENERGY PREDICTED BY IDOCK:   -8.42 KCAL/MOL
REMARK 924 INTRA-LIGAND FREE ENERGY PREDICTED BY IDOCK:   -2.20 KCAL/MOL
REMARK 927      BINDING AFFINITY PREDICTED BY RF-SCORE:    0.00 PKD
ROOT
HETATM    1 MG   UNL     3     -12.528  11.250  70.502  1.00  0.00    -0.248 Mg 
HETATM    2  O   UNL     4     -12.328   5.548  72.944  1.00  0.00    -0.519 OA 
HETATM    3  C   UNL     4     -11.641   6.608  72.308  1.00  0.00    -0.278 C  
HETATM    4  H   UNL     4     -12.134   5.486  73.873  1.00  0.00     0.000 HD 
HETATM    5  O   UNL     5     -12.434  13.955  63.299  1.00  0.00    -1.113 OA 
HETATM    6  H   UNL     5     -13.310  14.020  62.938  1.00  0.00     0.000 HD 
HETATM    7  C   UNL     5     -12.199  12.678  63.892  1.00  0.00    -0.481 C  
ENDROOT
BRANCH   3   8
HETATM    8  C   UNL     4     -11.954   6.708  70.808  1.00  0.00    -0.353 C  
HETATM    9  O   UNL     4     -12.333   8.059  70.481  1.00  0.00    -0.484 OA 
HETATM   10  H   UNL     4     -12.527   8.120  69.553  1.00  0.00     0.000 HD 
BRANCH   8  11
HETATM   11  C   UNL     4     -10.856   6.298  69.783  1.00  0.00    -0.336 C  
HETATM   12  O   UNL     4     -11.287   6.390  68.430  1.00  0.00    -0.525 OA 
HETATM   13  H   UNL     4     -10.616   6.140  67.805  1.00  0.00     0.000 HD 
BRANCH  11  14
HETATM   14  C   UNL     4      -9.432   6.889  69.967  1.00  0.00    -0.158 C  
HETATM   15  H   UNL     4      -8.705   8.696  70.108  1.00  0.00     0.000 HD 
HETATM   16  O   UNL     4      -9.576   8.335  69.996  1.00  0.00    -0.167 OA 
BRANCH  14  17
HETATM   17  C   UNL     4      -8.285   6.473  69.001  1.00  0.00    -0.116 C  
HETATM   18  C   UNL     4      -6.847   6.755  69.605  1.00  0.00    -0.055 C  
HETATM   19  H   UNL     4      -7.786   6.727  67.082  1.00  0.00     0.000 HD 
HETATM   20  O   UNL     4      -8.486   6.980  67.672  1.00  0.00    -0.122 OA 
HETATM   21  O   UNL     4      -6.761   6.522  70.883  1.00  0.00    -0.052 OA 
HETATM   22  O   UNL     4      -5.958   7.249  68.859  1.00  0.00    -0.024 OA 
ENDBRANCH  14  17
ENDBRANCH  11  14
ENDBRANCH   8  11
ENDBRANCH   3   8
BRANCH   7  23
HETATM   23  C   UNL     5     -10.777  12.573  64.479  1.00  0.00    -0.330 C  
HETATM   24  O   UNL     5      -9.858  12.403  63.398  1.00  0.00    -0.608 OA 
HETATM   25  H   UNL     5      -8.982  12.338  63.759  1.00  0.00     0.000 HD 
BRANCH  23  26
HETATM   26  C   UNL     5     -10.416  13.812  65.327  1.00  0.00    -0.363 C  
HETATM   27  O   UNL     5     -11.616  14.346  65.930  1.00  0.00    -0.350 OA 
HETATM   28  H   UNL     5     -11.394  15.109  66.452  1.00  0.00     0.000 HD 
BRANCH  26  29
HETATM   29  C   UNL     5      -9.298  13.661  66.396  1.00  0.00    -0.186 C  
HETATM   30  O   UNL     5      -8.506  12.489  66.210  1.00  0.00    -0.402 OA 
HETATM   31  H   UNL     5      -7.822  12.396  66.864  1.00  0.00     0.000 HD 
BRANCH  29  32
HETATM   32  C   UNL     5      -9.685  13.848  67.872  1.00  0.00    -0.231 C  
HETATM   33  C   UNL     5     -10.612  12.769  68.470  1.00  0.00    -0.252 C  
HETATM   34  O   UNL     5     -10.258  15.186  68.088  1.00  0.00    -0.223 OA 
HETATM   35  O   UNL     5     -10.465  11.583  68.049  1.00  0.00    -0.179 OA 
HETATM   36  O   UNL     5     -11.482  13.239  69.287  1.00  0.00    -0.269 OA 
HETATM   37  H   UNL     5     -10.497  15.302  69.000  1.00  0.00     0.000 HD 
ENDBRANCH  29  32
ENDBRANCH  26  29
ENDBRANCH  23  26
ENDBRANCH   7  23
TORSDOF 8
ENDMDL
MODEL      154
REMARK 921   NORMALIZED FREE ENERGY PREDICTED BY IDOCK:   -5.70 KCAL/MOL
REMARK 922        TOTAL FREE ENERGY PREDICTED BY IDOCK:  -10.61 KCAL/MOL
REMARK 923 INTER-LIGAND FREE ENERGY PREDICTED BY IDOCK:   -8.85 KCAL/MOL
REMARK 924 INTRA-LIGAND FREE ENERGY PREDICTED BY IDOCK:   -1.77 KCAL/MOL
REMARK 927      BINDING AFFINITY PREDICTED BY RF-SCORE:    0.00 PKD
ROOT
HETATM    1 MG   UNL     3     -12.204  14.301  69.524  1.00  0.00    -0.248 Mg 
HETATM    2  O   UNL     4     -11.917  16.090  63.588  1.00  0.00    -1.344 OA 
HETATM    3  C   UNL     4     -12.406  15.169  64.545  1.00  0.00    -0.199 C  
HETATM    4  H   UNL     4     -12.580  16.704  63.293  1.00  0.00     0.000 HD 
HETATM    5  O   UNL     5      -8.980   8.562  73.509  1.00  0.00    -0.240 OA 
HETATM    6  H   UNL     5      -8.136   8.815  73.866  1.00  0.00     0.000 HD 
HETATM    7  C   UNL     5      -9.084   8.883  72.122  1.00  0.00     0.002 C  
ENDROOT
BRANCH   3   8
HETATM    8  C   UNL     4     -11.335  14.176  65.021  1.00  0.00    -0.350 C  
HETATM    9  O   UNL     4     -10.072  14.497  64.410  1.00  0.00    -0.560 OA 
HETATM   10  H   UNL     4      -9.409  13.883  64.704  1.00  0.00     0.000 HD 
BRANCH   8  11
HETATM   11  C   UNL     4     -11.065  14.040  66.548  1.00  0.00    -0.314 C  
HETATM   12  O   UNL     4     -12.246  14.127  67.338  1.00  0.00    -0.537 OA 
HETATM   13  H   UNL     4     -12.080  14.043  68.270  1.00  0.00     0.000 HD 
BRANCH  11  14
HETATM   14  C   UNL     4     -10.148  12.881  67.024  1.00  0.00    -0.245 C  
HETATM   15  H   UNL     4      -8.217  12.644  67.200  1.00  0.00     0.000 HD 
HETATM   16  O   UNL     4      -8.778  13.353  66.908  1.00  0.00    -0.210 OA 
BRANCH  14  17
HETATM   17  C   UNL     4     -10.293  11.464  66.400  1.00  0.00    -0.242 C  
HETATM   18  C   UNL     4     -10.945  10.421  67.399  1.00  0.00    -0.270 C  
HETATM   19  H   UNL     4      -9.165  10.153  65.397  1.00  0.00     0.000 HD 
HETATM   20  O   UNL     4      -9.076  11.019  65.780  1.00  0.00    -0.192 OA 
HETATM   21  O   UNL     4     -11.891  10.925  68.138  1.00  0.00    -0.564 OA 
HETATM   22  O   UNL     4     -10.461   9.257  67.468  1.00  0.00    -0.245 OA 
ENDBRANCH  14  17
ENDBRANCH  11  14
ENDBRANCH   8  11
ENDBRANCH   3   8
BRANCH   7  23
HETATM   23  C   UNL     5     -10.453   8.473  71.542  1.00  0.00    -0.248 C  
HETATM   24  O   UNL     5     -10.228   7.742  70.336  1.00  0.00    -0.194 OA 
HETATM   25  H   UNL     5     -11.071   7.489  69.979  1.00  0.00     0.000 HD 
BRANCH  23  26
HETATM   26  C   UNL     5     -11.275   7.643  72.552  1.00  0.00    -0.346 C  
HETATM   27  O   UNL     5     -12.466   8.376  72.918  1.00  0.00    -0.616 OA 
HETATM   28  H   UNL     5     -12.972   7.865  73.539  1.00  0.00     0.000 HD 
BRANCH  26  29
HETATM   29  C   UNL     5     -11.640   6.182  72.166  1.00  0.00    -0.317 C  
HETATM   30  O   UNL     5     -12.950   5.806  72.588  1.00  0.00    -0.398 OA 
HETATM   31  H   UNL     5     -13.173   4.913  72.352  1.00  0.00     0.000 HD 
BRANCH  29  32
HETATM   32  C   UNL     5     -10.614   5.079  72.474  1.00  0.00    -0.219 C  
HETATM   33  C   UNL     5     -10.157   4.225  71.273  1.00  0.00    -0.108 C  
HETATM   34  O   UNL     5     -11.103   4.211  73.558  1.00  0.00    -0.244 OA 
HETATM   35  O   UNL     5     -10.072   4.805  70.151  1.00  0.00    -0.242 OA 
HETATM   36  O   UNL     5      -9.985   2.987  71.563  1.00  0.00    -0.155 OA 
HETATM   37  H   UNL     5     -10.469   3.530  73.749  1.00  0.00     0.000 HD 
ENDBRANCH  29  32
ENDBRANCH  26  29
ENDBRANCH  23  26
ENDBRANCH   7  23
TORSDOF 8
ENDMDL
MODEL      155
REMARK 921   NORMALIZED FREE ENERGY PREDICTED BY IDOCK:   -5.69 KCAL/MOL
REMARK 922        TOTAL FREE ENERGY PREDICTED BY IDOCK:  -10.59 KCAL/MOL
REMARK 923 INTER-LIGAND FREE ENERGY PREDICTED BY IDOCK:   -9.12 KCAL/MOL
REMARK 924 INTRA-LIGAND FREE ENERGY PREDICTED BY IDOCK:   -1.47 KCAL/MOL
REMARK 927      BINDING AFFINITY PREDICTED BY RF-SCORE:    0.00 PKD
ROOT
HETATM    1 MG   UNL     3     -10.032  11.357  66.781  1.00  0.00    -0.187 Mg 
HETATM    2  O   UNL     4      -8.729  17.371  65.972  1.00  0.00    -0.499 OA 
HETATM    3  C   UNL     4      -8.515  16.182  66.709  1.00  0.00    -0.254 C  
HETATM    4  H   UNL     4      -8.010  17.578  65.387  1.00  0.00     0.000 HD 
HETATM    5  O   UNL     5     -14.219   7.470  71.935  1.00  0.00    -0.483 OA 
HETATM    6  H   UNL     5     -15.126   7.393  71.663  1.00  0.00     0.000 HD 
HETATM    7  C   UNL     5     -13.750   8.814  71.836  1.00  0.00    -0.433 C  
ENDROOT
BRANCH   3   8
HETATM    8  C   UNL     4      -9.677  15.846  67.655  1.00  0.00    -0.223 C  
HETATM    9  O   UNL     4     -10.480  17.022  67.870  1.00  0.00    -0.326 OA 
HETATM   10  H   UNL     4     -11.199  16.815  68.456  1.00  0.00     0.000 HD 
BRANCH   8  11
HETATM   11  C   UNL     4     -10.661  14.706  67.260  1.00  0.00    -0.284 C  
HETATM   12  O   UNL     4     -11.918  14.794  67.922  1.00  0.00    -0.498 OA 
HETATM   13  H   UNL     4     -12.518  14.098  67.680  1.00  0.00     0.000 HD 
BRANCH  11  14
HETATM   14  C   UNL     4     -10.835  14.385  65.751  1.00  0.00    -0.307 C  
HETATM   15  H   UNL     4     -11.230  15.447  64.160  1.00  0.00     0.000 HD 
HETATM   16  O   UNL     4     -11.123  15.643  65.083  1.00  0.00    -0.371 OA 
BRANCH  14  17
HETATM   17  C   UNL     4     -11.837  13.284  65.299  1.00  0.00    -0.357 C  
HETATM   18  C   UNL     4     -11.290  12.422  64.087  1.00  0.00    -0.379 C  
HETATM   19  H   UNL     4     -13.776  13.130  64.839  1.00  0.00     0.000 HD 
HETATM   20  O   UNL     4     -13.164  13.802  65.114  1.00  0.00    -0.757 OA 
HETATM   21  O   UNL     4     -10.013  12.176  64.153  1.00  0.00    -0.296 OA 
HETATM   22  O   UNL     4     -12.075  12.129  63.143  1.00  0.00    -0.415 OA 
ENDBRANCH  14  17
ENDBRANCH  11  14
ENDBRANCH   8  11
ENDBRANCH   3   8
BRANCH   7  23
HETATM   23  C   UNL     5     -12.278   8.940  72.278  1.00  0.00    -0.343 C  
HETATM   24  O   UNL     5     -12.027   7.959  73.286  1.00  0.00    -0.629 OA 
HETATM   25  H   UNL     5     -11.121   8.037  73.559  1.00  0.00     0.000 HD 
BRANCH  23  26
HETATM   26  C   UNL     5     -11.308   8.773  71.087  1.00  0.00    -0.285 C  
HETATM   27  O   UNL     5     -11.879   9.394  69.913  1.00  0.00    -0.456 OA 
HETATM   28  H   UNL     5     -11.283   9.292  69.181  1.00  0.00     0.000 HD 
BRANCH  26  29
HETATM   29  C   UNL     5      -9.836   9.235  71.278  1.00  0.00    -0.248 C  
HETATM   30  O   UNL     5      -9.432  10.213  70.320  1.00  0.00    -0.389 OA 
HETATM   31  H   UNL     5      -8.532  10.495  70.436  1.00  0.00     0.000 HD 
BRANCH  29  32
HETATM   32  C   UNL     5      -8.761   8.152  71.460  1.00  0.00    -0.146 C  
HETATM   33  C   UNL     5      -8.379   7.816  72.917  1.00  0.00    -0.140 C  
HETATM   34  O   UNL     5      -7.555   8.488  70.685  1.00  0.00    -0.064 OA 
HETATM   35  O   UNL     5      -9.301   7.877  73.784  1.00  0.00    -0.280 OA 
HETATM   36  O   UNL     5      -7.129   7.579  73.076  1.00  0.00    -0.068 OA 
HETATM   37  H   UNL     5      -6.891   7.819  70.798  1.00  0.00     0.000 HD 
ENDBRANCH  29  32
ENDBRANCH  26  29
ENDBRANCH  23  26
ENDBRANCH   7  23
TORSDOF 8
ENDMDL
MODEL      156
REMARK 921   NORMALIZED FREE ENERGY PREDICTED BY IDOCK:   -5.68 KCAL/MOL
REMARK 922        TOTAL FREE ENERGY PREDICTED BY IDOCK:  -10.58 KCAL/MOL
REMARK 923 INTER-LIGAND FREE ENERGY PREDICTED BY IDOCK:   -8.16 KCAL/MOL
REMARK 924 INTRA-LIGAND FREE ENERGY PREDICTED BY IDOCK:   -2.42 KCAL/MOL
REMARK 927      BINDING AFFINITY PREDICTED BY RF-SCORE:    0.00 PKD
ROOT
HETATM    1 MG   UNL     3      -8.211  12.682  67.990  1.00  0.00    -0.112 Mg 
HETATM    2  O   UNL     4      -8.353   8.183  63.717  1.00  0.00    -0.349 OA 
HETATM    3  C   UNL     4      -8.844   9.430  64.167  1.00  0.00    -0.182 C  
HETATM    4  H   UNL     4      -7.747   8.263  62.990  1.00  0.00     0.000 HD 
HETATM    5  O   UNL     5     -12.977  14.790  73.651  1.00  0.00    -0.527 OA 
HETATM    6  H   UNL     5     -12.783  14.333  74.461  1.00  0.00     0.000 HD 
HETATM    7  C   UNL     5     -13.071  13.893  72.545  1.00  0.00    -0.437 C  
ENDROOT
BRANCH   3   8
HETATM    8  C   UNL     4      -9.823   9.299  65.343  1.00  0.00     0.010 C  
HETATM    9  O   UNL     4      -9.640   8.024  65.986  1.00  0.00    -0.407 OA 
HETATM   10  H   UNL     4     -10.246   7.943  66.713  1.00  0.00     0.000 HD 
BRANCH   8  11
HETATM   11  C   UNL     4      -9.788  10.371  66.472  1.00  0.00    -0.206 C  
HETATM   12  O   UNL     4      -9.397  11.660  66.011  1.00  0.00    -0.223 OA 
HETATM   13  H   UNL     4      -9.376  12.314  66.700  1.00  0.00     0.000 HD 
BRANCH  11  14
HETATM   14  C   UNL     4     -11.004  10.457  67.433  1.00  0.00    -0.270 C  
HETATM   15  H   UNL     4     -12.558  11.633  67.577  1.00  0.00     0.000 HD 
HETATM   16  O   UNL     4     -11.813  11.581  66.989  1.00  0.00    -0.568 OA 
BRANCH  14  17
HETATM   17  C   UNL     4     -10.780  10.519  68.971  1.00  0.00    -0.225 C  
HETATM   18  C   UNL     4     -10.760   9.084  69.643  1.00  0.00    -0.219 C  
HETATM   19  H   UNL     4     -11.516  11.504  70.547  1.00  0.00     0.000 HD 
HETATM   20  O   UNL     4     -11.653  11.465  69.608  1.00  0.00    -0.274 OA 
HETATM   21  O   UNL     4     -10.173   8.175  68.918  1.00  0.00    -0.202 OA 
HETATM   22  O   UNL     4     -11.366   8.913  70.736  1.00  0.00    -0.267 OA 
ENDBRANCH  14  17
ENDBRANCH  11  14
ENDBRANCH   8  11
ENDBRANCH   3   8
BRANCH   7  23
HETATM   23  C   UNL     5     -13.386  14.636  71.231  1.00  0.00    -0.383 C  
HETATM   24  O   UNL     5     -14.376  15.629  71.504  1.00  0.00    -0.507 OA 
HETATM   25  H   UNL     5     -14.569  16.087  70.694  1.00  0.00     0.000 HD 
BRANCH  23  26
HETATM   26  C   UNL     5     -12.118  15.267  70.615  1.00  0.00    -0.354 C  
HETATM   27  O   UNL     5     -10.946  14.646  71.189  1.00  0.00    -0.511 OA 
HETATM   28  H   UNL     5     -10.166  15.035  70.810  1.00  0.00     0.000 HD 
BRANCH  26  29
HETATM   29  C   UNL     5     -12.004  15.305  69.065  1.00  0.00    -0.276 C  
HETATM   30  O   UNL     5     -12.155  14.018  68.466  1.00  0.00    -0.436 OA 
HETATM   31  H   UNL     5     -12.085  14.041  67.519  1.00  0.00     0.000 HD 
BRANCH  29  32
HETATM   32  C   UNL     5     -10.824  16.074  68.450  1.00  0.00    -0.310 C  
HETATM   33  C   UNL     5     -10.493  15.743  66.980  1.00  0.00    -0.309 C  
HETATM   34  O   UNL     5      -9.621  15.925  69.286  1.00  0.00    -0.238 OA 
HETATM   35  O   UNL     5     -11.466  15.458  66.219  1.00  0.00    -0.170 OA 
HETATM   36  O   UNL     5      -9.236  15.732  66.729  1.00  0.00    -0.214 OA 
HETATM   37  H   UNL     5      -8.892  16.400  68.906  1.00  0.00     0.000 HD 
ENDBRANCH  29  32
ENDBRANCH  26  29
ENDBRANCH  23  26
ENDBRANCH   7  23
TORSDOF 8
ENDMDL
MODEL      157
REMARK 921   NORMALIZED FREE ENERGY PREDICTED BY IDOCK:   -5.64 KCAL/MOL
REMARK 922        TOTAL FREE ENERGY PREDICTED BY IDOCK:  -10.53 KCAL/MOL
REMARK 923 INTER-LIGAND FREE ENERGY PREDICTED BY IDOCK:   -7.92 KCAL/MOL
REMARK 924 INTRA-LIGAND FREE ENERGY PREDICTED BY IDOCK:   -2.61 KCAL/MOL
REMARK 927      BINDING AFFINITY PREDICTED BY RF-SCORE:    0.00 PKD
ROOT
HETATM    1 MG   UNL     3     -11.259  11.222  71.107  1.00  0.00    -0.344 Mg 
HETATM    2  O   UNL     4     -13.861  16.370  73.395  1.00  0.00    -0.725 OA 
HETATM    3  C   UNL     4     -13.874  15.348  72.417  1.00  0.00    -0.562 C  
HETATM    4  H   UNL     4     -14.528  16.253  74.062  1.00  0.00     0.000 HD 
HETATM    5  O   UNL     5      -6.953   9.747  64.902  1.00  0.00    -0.111 OA 
HETATM    6  H   UNL     5      -6.027   9.857  65.084  1.00  0.00     0.000 HD 
HETATM    7  C   UNL     5      -7.716  10.868  65.347  1.00  0.00     0.107 C  
ENDROOT
BRANCH   3   8
HETATM    8  C   UNL     4     -12.797  15.538  71.339  1.00  0.00    -0.465 C  
HETATM    9  O   UNL     4     -11.831  16.508  71.786  1.00  0.00    -0.664 OA 
HETATM   10  H   UNL     4     -11.164  16.625  71.119  1.00  0.00     0.000 HD 
BRANCH   8  11
HETATM   11  C   UNL     4     -11.987  14.297  70.862  1.00  0.00    -0.320 C  
HETATM   12  O   UNL     4     -12.576  13.059  71.246  1.00  0.00    -0.360 OA 
HETATM   13  H   UNL     4     -12.082  12.302  70.954  1.00  0.00     0.000 HD 
BRANCH  11  14
HETATM   14  C   UNL     4     -11.510  14.263  69.384  1.00  0.00    -0.292 C  
HETATM   15  H   UNL     4     -11.495  12.906  67.979  1.00  0.00     0.000 HD 
HETATM   16  O   UNL     4     -11.787  12.926  68.883  1.00  0.00    -0.302 OA 
BRANCH  14  17
HETATM   17  C   UNL     4     -10.059  14.693  69.023  1.00  0.00    -0.209 C  
HETATM   18  C   UNL     4      -9.999  16.120  68.338  1.00  0.00    -0.230 C  
HETATM   19  H   UNL     4      -8.462  13.923  68.100  1.00  0.00     0.000 HD 
HETATM   20  O   UNL     4      -9.349  13.661  68.320  1.00  0.00    -0.200 OA 
HETATM   21  O   UNL     4     -10.845  16.977  68.836  1.00  0.00    -0.307 OA 
HETATM   22  O   UNL     4      -9.238  16.290  67.346  1.00  0.00    -0.209 OA 
ENDBRANCH  14  17
ENDBRANCH  11  14
ENDBRANCH   8  11
ENDBRANCH   3   8
BRANCH   7  23
HETATM   23  C   UNL     5      -9.219  10.689  65.052  1.00  0.00    -0.211 C  
HETATM   24  O   UNL     5      -9.430   9.353  64.592  1.00  0.00    -0.441 OA 
HETATM   25  H   UNL     5     -10.356   9.243  64.410  1.00  0.00     0.000 HD 
BRANCH  23  26
HETATM   26  C   UNL     5     -10.086  10.994  66.294  1.00  0.00    -0.235 C  
HETATM   27  O   UNL     5     -11.150  11.900  65.925  1.00  0.00    -0.302 OA 
HETATM   28  H   UNL     5     -11.683  12.087  66.689  1.00  0.00     0.000 HD 
BRANCH  26  29
HETATM   29  C   UNL     5     -10.656   9.791  67.095  1.00  0.00    -0.229 C  
HETATM   30  O   UNL     5     -11.766  10.148  67.918  1.00  0.00    -0.646 OA 
HETATM   31  H   UNL     5     -12.115   9.412  68.408  1.00  0.00     0.000 HD 
BRANCH  29  32
HETATM   32  C   UNL     5      -9.662   8.896  67.853  1.00  0.00    -0.160 C  
HETATM   33  C   UNL     5      -8.805   9.596  68.928  1.00  0.00    -0.136 C  
HETATM   34  O   UNL     5      -8.797   8.171  66.907  1.00  0.00    -0.124 OA 
HETATM   35  O   UNL     5      -9.345  10.544  69.571  1.00  0.00    -0.169 OA 
HETATM   36  O   UNL     5      -7.600   9.159  68.984  1.00  0.00    -0.073 OA 
HETATM   37  H   UNL     5      -8.183   7.618  67.374  1.00  0.00     0.000 HD 
ENDBRANCH  29  32
ENDBRANCH  26  29
ENDBRANCH  23  26
ENDBRANCH   7  23
TORSDOF 8
ENDMDL
MODEL      158
REMARK 921   NORMALIZED FREE ENERGY PREDICTED BY IDOCK:   -5.63 KCAL/MOL
REMARK 922        TOTAL FREE ENERGY PREDICTED BY IDOCK:  -10.51 KCAL/MOL
REMARK 923 INTER-LIGAND FREE ENERGY PREDICTED BY IDOCK:   -8.21 KCAL/MOL
REMARK 924 INTRA-LIGAND FREE ENERGY PREDICTED BY IDOCK:   -2.30 KCAL/MOL
REMARK 927      BINDING AFFINITY PREDICTED BY RF-SCORE:    0.00 PKD
ROOT
HETATM    1 MG   UNL     3      -8.780  12.234  69.174  1.00  0.00    -0.305 Mg 
HETATM    2  O   UNL     4     -12.259  16.497  72.045  1.00  0.00    -0.577 OA 
HETATM    3  C   UNL     4     -11.629  15.231  72.088  1.00  0.00    -0.444 C  
HETATM    4  H   UNL     4     -11.798  17.157  72.550  1.00  0.00     0.000 HD 
HETATM    5  O   UNL     5     -10.313   5.425  65.934  1.00  0.00    -0.411 OA 
HETATM    6  H   UNL     5     -10.545   5.518  65.017  1.00  0.00     0.000 HD 
HETATM    7  C   UNL     5     -11.047   6.328  66.760  1.00  0.00    -0.167 C  
ENDROOT
BRANCH   3   8
HETATM    8  C   UNL     4     -12.375  14.164  71.271  1.00  0.00    -0.369 C  
HETATM    9  O   UNL     4     -13.731  14.056  71.742  1.00  0.00    -0.371 OA 
HETATM   10  H   UNL     4     -14.192  13.395  71.237  1.00  0.00     0.000 HD 
BRANCH   8  11
HETATM   11  C   UNL     4     -12.456  14.324  69.725  1.00  0.00    -0.216 C  
HETATM   12  O   UNL     4     -12.562  15.680  69.304  1.00  0.00    -0.570 OA 
HETATM   13  H   UNL     4     -12.611  15.777  68.360  1.00  0.00     0.000 HD 
BRANCH  11  14
HETATM   14  C   UNL     4     -11.435  13.540  68.857  1.00  0.00    -0.306 C  
HETATM   15  H   UNL     4      -9.520  13.708  68.504  1.00  0.00     0.000 HD 
HETATM   16  O   UNL     4     -10.145  14.188  69.035  1.00  0.00    -0.193 OA 
BRANCH  14  17
HETATM   17  C   UNL     4     -11.719  13.295  67.348  1.00  0.00    -0.373 C  
HETATM   18  C   UNL     4     -10.647  12.345  66.671  1.00  0.00    -0.231 C  
HETATM   19  H   UNL     4     -12.141  14.370  65.716  1.00  0.00     0.000 HD 
HETATM   20  O   UNL     4     -11.967  14.519  66.638  1.00  0.00    -0.393 OA 
HETATM   21  O   UNL     4     -10.247  11.374  67.441  1.00  0.00    -0.188 OA 
HETATM   22  O   UNL     4     -10.210  12.637  65.524  1.00  0.00    -0.275 OA 
ENDBRANCH  14  17
ENDBRANCH  11  14
ENDBRANCH   8  11
ENDBRANCH   3   8
BRANCH   7  23
HETATM   23  C   UNL     5     -10.669   6.178  68.247  1.00  0.00    -0.290 C  
HETATM   24  O   UNL     5      -9.475   5.398  68.330  1.00  0.00    -0.111 OA 
HETATM   25  H   UNL     5      -9.242   5.305  69.246  1.00  0.00     0.000 HD 
BRANCH  23  26
HETATM   26  C   UNL     5     -10.486   7.550  68.932  1.00  0.00    -0.203 C  
HETATM   27  O   UNL     5     -10.824   8.601  67.997  1.00  0.00    -0.458 OA 
HETATM   28  H   UNL     5     -10.711   9.445  68.418  1.00  0.00     0.000 HD 
BRANCH  26  29
HETATM   29  C   UNL     5     -11.202   7.787  70.290  1.00  0.00    -0.206 C  
HETATM   30  O   UNL     5     -11.295   9.169  70.636  1.00  0.00    -0.260 OA 
HETATM   31  H   UNL     5     -11.733   9.314  71.467  1.00  0.00     0.000 HD 
BRANCH  29  32
HETATM   32  C   UNL     5     -10.761   6.938  71.493  1.00  0.00    -0.223 C  
HETATM   33  C   UNL     5     -11.101   7.509  72.886  1.00  0.00    -0.375 C  
HETATM   34  O   UNL     5      -9.324   6.631  71.407  1.00  0.00    -0.152 OA 
HETATM   35  O   UNL     5     -12.182   8.161  72.995  1.00  0.00    -0.200 OA 
HETATM   36  O   UNL     5     -10.185   7.303  73.760  1.00  0.00    -0.343 OA 
HETATM   37  H   UNL     5      -9.051   6.107  72.150  1.00  0.00     0.000 HD 
ENDBRANCH  29  32
ENDBRANCH  26  29
ENDBRANCH  23  26
ENDBRANCH   7  23
TORSDOF 8
ENDMDL
MODEL      159
REMARK 921   NORMALIZED FREE ENERGY PREDICTED BY IDOCK:   -5.63 KCAL/MOL
REMARK 922        TOTAL FREE ENERGY PREDICTED BY IDOCK:  -10.50 KCAL/MOL
REMARK 923 INTER-LIGAND FREE ENERGY PREDICTED BY IDOCK:   -8.84 KCAL/MOL
REMARK 924 INTRA-LIGAND FREE ENERGY PREDICTED BY IDOCK:   -1.66 KCAL/MOL
REMARK 927      BINDING AFFINITY PREDICTED BY RF-SCORE:    0.00 PKD
ROOT
HETATM    1 MG   UNL     3      -6.960  14.397  66.627  1.00  0.00    -0.240 Mg 
HETATM    2  O   UNL     4     -10.818  18.977  64.996  1.00  0.00    -0.412 OA 
HETATM    3  C   UNL     4     -10.418  18.030  65.967  1.00  0.00    -0.313 C  
HETATM    4  H   UNL     4     -10.545  19.862  65.207  1.00  0.00     0.000 HD 
HETATM    5  O   UNL     5      -7.728   6.765  67.244  1.00  0.00    -0.104 OA 
HETATM    6  H   UNL     5      -7.532   6.326  66.424  1.00  0.00     0.000 HD 
HETATM    7  C   UNL     5      -8.635   7.851  67.059  1.00  0.00    -0.128 C  
ENDROOT
BRANCH   3   8
HETATM    8  C   UNL     4     -10.858  16.599  65.625  1.00  0.00    -0.137 C  
HETATM    9  O   UNL     4     -11.379  16.561  64.283  1.00  0.00    -1.249 OA 
HETATM   10  H   UNL     4     -11.652  15.675  64.072  1.00  0.00     0.000 HD 
BRANCH   8  11
HETATM   11  C   UNL     4      -9.815  15.448  65.727  1.00  0.00    -0.364 C  
HETATM   12  O   UNL     4      -8.711  15.763  66.569  1.00  0.00    -0.265 OA 
HETATM   13  H   UNL     4      -8.074  15.060  66.630  1.00  0.00     0.000 HD 
BRANCH  11  14
HETATM   14  C   UNL     4     -10.339  14.011  65.993  1.00  0.00    -0.306 C  
HETATM   15  H   UNL     4      -9.574  12.397  66.785  1.00  0.00     0.000 HD 
HETATM   16  O   UNL     4      -9.253  13.277  66.622  1.00  0.00    -0.250 OA 
BRANCH  14  17
HETATM   17  C   UNL     4     -10.961  13.181  64.834  1.00  0.00    -0.318 C  
HETATM   18  C   UNL     4     -12.543  13.127  64.902  1.00  0.00    -0.407 C  
HETATM   19  H   UNL     4     -10.705  11.394  63.974  1.00  0.00     0.000 HD 
HETATM   20  O   UNL     4     -10.325  11.902  64.682  1.00  0.00    -0.260 OA 
HETATM   21  O   UNL     4     -13.089  14.244  65.291  1.00  0.00    -0.707 OA 
HETATM   22  O   UNL     4     -13.128  12.032  64.675  1.00  0.00    -0.533 OA 
ENDBRANCH  14  17
ENDBRANCH  11  14
ENDBRANCH   8  11
ENDBRANCH   3   8
BRANCH   7  23
HETATM   23  C   UNL     5      -8.952   8.564  68.389  1.00  0.00    -0.139 C  
HETATM   24  O   UNL     5      -8.175   9.761  68.453  1.00  0.00    -0.104 OA 
HETATM   25  H   UNL     5      -8.370  10.200  69.272  1.00  0.00     0.000 HD 
BRANCH  23  26
HETATM   26  C   UNL     5     -10.459   8.871  68.528  1.00  0.00    -0.182 C  
HETATM   27  O   UNL     5     -11.225   7.749  68.032  1.00  0.00    -0.381 OA 
HETATM   28  H   UNL     5     -12.152   7.939  68.118  1.00  0.00     0.000 HD 
BRANCH  26  29
HETATM   29  C   UNL     5     -10.987   9.309  69.922  1.00  0.00    -0.213 C  
HETATM   30  O   UNL     5     -12.259   8.743  70.238  1.00  0.00    -0.403 OA 
HETATM   31  H   UNL     5     -12.582   9.011  71.091  1.00  0.00     0.000 HD 
BRANCH  29  32
HETATM   32  C   UNL     5     -10.938  10.805  70.272  1.00  0.00    -0.085 C  
HETATM   33  C   UNL     5     -12.273  11.442  70.712  1.00  0.00    -0.376 C  
HETATM   34  O   UNL     5     -10.351  11.574  69.163  1.00  0.00    -0.368 OA 
HETATM   35  O   UNL     5     -13.071  10.712  71.374  1.00  0.00    -0.392 OA 
HETATM   36  O   UNL     5     -12.436  12.638  70.280  1.00  0.00    -0.207 OA 
HETATM   37  H   UNL     5     -10.321  12.498  69.379  1.00  0.00     0.000 HD 
ENDBRANCH  29  32
ENDBRANCH  26  29
ENDBRANCH  23  26
ENDBRANCH   7  23
TORSDOF 8
ENDMDL
MODEL      160
REMARK 921   NORMALIZED FREE ENERGY PREDICTED BY IDOCK:   -5.63 KCAL/MOL
REMARK 922        TOTAL FREE ENERGY PREDICTED BY IDOCK:  -10.50 KCAL/MOL
REMARK 923 INTER-LIGAND FREE ENERGY PREDICTED BY IDOCK:   -8.64 KCAL/MOL
REMARK 924 INTRA-LIGAND FREE ENERGY PREDICTED BY IDOCK:   -1.86 KCAL/MOL
REMARK 927      BINDING AFFINITY PREDICTED BY RF-SCORE:    0.00 PKD
ROOT
HETATM    1 MG   UNL     3     -13.063  11.092  70.252  1.00  0.00    -0.294 Mg 
HETATM    2  O   UNL     4     -11.993   5.613  72.964  1.00  0.00    -0.538 OA 
HETATM    3  C   UNL     4     -11.467   6.786  72.374  1.00  0.00    -0.264 C  
HETATM    4  H   UNL     4     -11.922   5.610  73.911  1.00  0.00     0.000 HD 
HETATM    5  O   UNL     5     -12.549  13.628  63.005  1.00  0.00    -0.957 OA 
HETATM    6  H   UNL     5     -13.360  13.494  62.529  1.00  0.00     0.000 HD 
HETATM    7  C   UNL     5     -12.132  12.443  63.683  1.00  0.00    -0.556 C  
ENDROOT
BRANCH   3   8
HETATM    8  C   UNL     4     -11.583   6.790  70.843  1.00  0.00    -0.353 C  
HETATM    9  O   UNL     4     -12.902   7.219  70.458  1.00  0.00    -0.590 OA 
HETATM   10  H   UNL     4     -12.974   7.221  69.510  1.00  0.00     0.000 HD 
BRANCH   8  11
HETATM   11  C   UNL     4     -10.581   7.649  70.017  1.00  0.00    -0.238 C  
HETATM   12  O   UNL     4      -9.261   7.642  70.550  1.00  0.00    -0.158 OA 
HETATM   13  H   UNL     4      -8.650   8.166  70.046  1.00  0.00     0.000 HD 
BRANCH  11  14
HETATM   14  C   UNL     4     -10.570   7.473  68.474  1.00  0.00    -0.136 C  
HETATM   15  H   UNL     4     -11.313   6.154  67.239  1.00  0.00     0.000 HD 
HETATM   16  O   UNL     4     -11.320   6.261  68.183  1.00  0.00    -0.278 OA 
BRANCH  14  17
HETATM   17  C   UNL     4      -9.222   7.481  67.698  1.00  0.00    -0.127 C  
HETATM   18  C   UNL     4      -9.365   8.068  66.233  1.00  0.00    -0.184 C  
HETATM   19  H   UNL     4      -7.723   6.221  67.298  1.00  0.00     0.000 HD 
HETATM   20  O   UNL     4      -8.546   6.216  67.772  1.00  0.00    -0.115 OA 
HETATM   21  O   UNL     4     -10.191   9.072  66.149  1.00  0.00    -0.267 OA 
HETATM   22  O   UNL     4      -8.770   7.490  65.282  1.00  0.00    -0.066 OA 
ENDBRANCH  14  17
ENDBRANCH  11  14
ENDBRANCH   8  11
ENDBRANCH   3   8
BRANCH   7  23
HETATM   23  C   UNL     5     -10.816  12.660  64.456  1.00  0.00    -0.336 C  
HETATM   24  O   UNL     5      -9.802  13.030  63.520  1.00  0.00    -0.617 OA 
HETATM   25  H   UNL     5      -8.991  13.163  63.996  1.00  0.00     0.000 HD 
BRANCH  23  26
HETATM   26  C   UNL     5     -10.971  13.729  65.560  1.00  0.00    -0.299 C  
HETATM   27  O   UNL     5     -12.314  13.677  66.092  1.00  0.00    -0.431 OA 
HETATM   28  H   UNL     5     -12.409  14.335  66.771  1.00  0.00     0.000 HD 
BRANCH  26  29
HETATM   29  C   UNL     5      -9.933  13.737  66.716  1.00  0.00    -0.270 C  
HETATM   30  O   UNL     5      -9.451  12.433  67.039  1.00  0.00    -0.199 OA 
HETATM   31  H   UNL     5      -8.816  12.437  67.746  1.00  0.00     0.000 HD 
BRANCH  29  32
HETATM   32  C   UNL     5     -10.275  14.537  67.984  1.00  0.00    -0.233 C  
HETATM   33  C   UNL     5     -11.405  13.960  68.863  1.00  0.00    -0.282 C  
HETATM   34  O   UNL     5     -10.562  15.940  67.645  1.00  0.00    -0.292 OA 
HETATM   35  O   UNL     5     -11.504  12.699  68.923  1.00  0.00    -0.264 OA 
HETATM   36  O   UNL     5     -12.161  14.860  69.378  1.00  0.00    -0.298 OA 
HETATM   37  H   UNL     5     -10.774  16.434  68.427  1.00  0.00     0.000 HD 
ENDBRANCH  29  32
ENDBRANCH  26  29
ENDBRANCH  23  26
ENDBRANCH   7  23
TORSDOF 8
ENDMDL
MODEL      161
REMARK 921   NORMALIZED FREE ENERGY PREDICTED BY IDOCK:   -5.62 KCAL/MOL
REMARK 922        TOTAL FREE ENERGY PREDICTED BY IDOCK:  -10.49 KCAL/MOL
REMARK 923 INTER-LIGAND FREE ENERGY PREDICTED BY IDOCK:   -8.41 KCAL/MOL
REMARK 924 INTRA-LIGAND FREE ENERGY PREDICTED BY IDOCK:   -2.08 KCAL/MOL
REMARK 927      BINDING AFFINITY PREDICTED BY RF-SCORE:    0.00 PKD
ROOT
HETATM    1 MG   UNL     3     -10.250  10.534  66.855  1.00  0.00    -0.173 Mg 
HETATM    2  O   UNL     4     -11.085   5.631  70.567  1.00  0.00    -0.258 OA 
HETATM    3  C   UNL     4     -11.603   6.828  70.021  1.00  0.00    -0.310 C  
HETATM    4  H   UNL     4     -11.456   4.851  70.171  1.00  0.00     0.000 HD 
HETATM    5  O   UNL     5      -8.869  17.995  68.132  1.00  0.00    -0.259 OA 
HETATM    6  H   UNL     5      -7.938  18.174  68.192  1.00  0.00     0.000 HD 
HETATM    7  C   UNL     5      -9.251  16.893  68.954  1.00  0.00    -0.229 C  
ENDROOT
BRANCH   3   8
HETATM    8  C   UNL     4     -11.003   8.088  70.663  1.00  0.00    -0.245 C  
HETATM    9  O   UNL     4     -11.734   9.249  70.225  1.00  0.00    -0.439 OA 
HETATM   10  H   UNL     4     -11.362  10.028  70.622  1.00  0.00     0.000 HD 
BRANCH   8  11
HETATM   11  C   UNL     4     -10.925   8.175  72.215  1.00  0.00    -0.332 C  
HETATM   12  O   UNL     4     -11.933   7.414  72.872  1.00  0.00    -0.557 OA 
HETATM   13  H   UNL     4     -11.885   7.467  73.820  1.00  0.00     0.000 HD 
BRANCH  11  14
HETATM   14  C   UNL     4      -9.539   7.980  72.887  1.00  0.00    -0.279 C  
HETATM   15  H   UNL     4      -7.843   8.948  72.838  1.00  0.00     0.000 HD 
HETATM   16  O   UNL     4      -8.691   9.068  72.427  1.00  0.00    -0.347 OA 
BRANCH  14  17
HETATM   17  C   UNL     4      -8.797   6.618  72.763  1.00  0.00    -0.122 C  
HETATM   18  C   UNL     4      -9.056   5.667  74.004  1.00  0.00    -0.126 C  
HETATM   19  H   UNL     4      -6.960   5.954  72.340  1.00  0.00     0.000 HD 
HETATM   20  O   UNL     4      -7.413   6.786  72.416  1.00  0.00    -0.087 OA 
HETATM   21  O   UNL     4     -10.274   5.725  74.463  1.00  0.00    -0.265 OA 
HETATM   22  O   UNL     4      -8.087   5.023  74.493  1.00  0.00    -0.098 OA 
ENDBRANCH  14  17
ENDBRANCH  11  14
ENDBRANCH   8  11
ENDBRANCH   3   8
BRANCH   7  23
HETATM   23  C   UNL     5     -10.762  16.603  68.856  1.00  0.00    -0.337 C  
HETATM   24  O   UNL     5     -11.030  16.056  67.563  1.00  0.00    -0.321 OA 
HETATM   25  H   UNL     5     -11.961  15.878  67.503  1.00  0.00     0.000 HD 
BRANCH  23  26
HETATM   26  C   UNL     5     -11.234  15.648  69.973  1.00  0.00    -0.325 C  
HETATM   27  O   UNL     5     -11.757  16.422  71.077  1.00  0.00    -0.594 OA 
HETATM   28  H   UNL     5     -12.048  15.834  71.764  1.00  0.00     0.000 HD 
BRANCH  26  29
HETATM   29  C   UNL     5     -12.229  14.516  69.591  1.00  0.00    -0.292 C  
HETATM   30  O   UNL     5     -13.403  14.511  70.402  1.00  0.00    -0.510 OA 
HETATM   31  H   UNL     5     -14.011  13.819  70.168  1.00  0.00     0.000 HD 
BRANCH  29  32
HETATM   32  C   UNL     5     -11.667  13.097  69.409  1.00  0.00    -0.327 C  
HETATM   33  C   UNL     5     -11.924  12.438  68.038  1.00  0.00    -0.203 C  
HETATM   34  O   UNL     5     -12.137  12.216  70.491  1.00  0.00    -0.386 OA 
HETATM   35  O   UNL     5     -11.932  13.198  67.024  1.00  0.00    -0.379 OA 
HETATM   36  O   UNL     5     -12.172  11.182  68.113  1.00  0.00    -0.612 OA 
HETATM   37  H   UNL     5     -11.790  11.339  70.379  1.00  0.00     0.000 HD 
ENDBRANCH  29  32
ENDBRANCH  26  29
ENDBRANCH  23  26
ENDBRANCH   7  23
TORSDOF 8
ENDMDL
MODEL      162
REMARK 921   NORMALIZED FREE ENERGY PREDICTED BY IDOCK:   -5.62 KCAL/MOL
REMARK 922        TOTAL FREE ENERGY PREDICTED BY IDOCK:  -10.49 KCAL/MOL
REMARK 923 INTER-LIGAND FREE ENERGY PREDICTED BY IDOCK:   -8.34 KCAL/MOL
REMARK 924 INTRA-LIGAND FREE ENERGY PREDICTED BY IDOCK:   -2.15 KCAL/MOL
REMARK 927      BINDING AFFINITY PREDICTED BY RF-SCORE:    0.00 PKD
ROOT
HETATM    1 MG   UNL     3     -11.382  13.096  70.352  1.00  0.00    -0.403 Mg 
HETATM    2  O   UNL     4     -12.615  13.832  64.314  1.00  0.00    -0.654 OA 
HETATM    3  C   UNL     4     -12.863  13.128  65.515  1.00  0.00    -0.141 C  
HETATM    4  H   UNL     4     -13.310  14.439  64.090  1.00  0.00     0.000 HD 
HETATM    5  O   UNL     5      -7.411   7.869  74.368  1.00  0.00    -0.144 OA 
HETATM    6  H   UNL     5      -6.496   8.110  74.447  1.00  0.00     0.000 HD 
HETATM    7  C   UNL     5      -7.868   7.959  73.019  1.00  0.00    -0.131 C  
ENDROOT
BRANCH   3   8
HETATM    8  C   UNL     4     -11.738  12.147  65.877  1.00  0.00    -0.328 C  
HETATM    9  O   UNL     4     -10.679  12.246  64.907  1.00  0.00    -0.277 OA 
HETATM   10  H   UNL     4      -9.983  11.639  65.131  1.00  0.00     0.000 HD 
BRANCH   8  11
HETATM   11  C   UNL     4     -11.067  12.259  67.277  1.00  0.00    -0.275 C  
HETATM   12  O   UNL     4     -10.464  11.044  67.711  1.00  0.00    -0.183 OA 
HETATM   13  H   UNL     4     -10.055  11.113  68.566  1.00  0.00     0.000 HD 
BRANCH  11  14
HETATM   14  C   UNL     4     -10.144  13.478  67.547  1.00  0.00    -0.234 C  
HETATM   15  H   UNL     4      -8.613  13.806  68.716  1.00  0.00     0.000 HD 
HETATM   16  O   UNL     4      -9.178  13.060  68.551  1.00  0.00    -0.164 OA 
BRANCH  14  17
HETATM   17  C   UNL     4     -10.761  14.856  67.922  1.00  0.00    -0.265 C  
HETATM   18  C   UNL     4     -10.207  16.037  67.021  1.00  0.00    -0.282 C  
HETATM   19  H   UNL     4     -11.086  15.947  69.564  1.00  0.00     0.000 HD 
HETATM   20  O   UNL     4     -10.709  15.106  69.335  1.00  0.00    -0.243 OA 
HETATM   21  O   UNL     4     -10.022  15.704  65.776  1.00  0.00    -0.311 OA 
HETATM   22  O   UNL     4      -9.911  17.135  67.569  1.00  0.00    -0.264 OA 
ENDBRANCH  14  17
ENDBRANCH  11  14
ENDBRANCH   8  11
ENDBRANCH   3   8
BRANCH   7  23
HETATM   23  C   UNL     5      -9.354   7.569  72.891  1.00  0.00    -0.181 C  
HETATM   24  O   UNL     5      -9.914   7.502  74.204  1.00  0.00    -0.393 OA 
HETATM   25  H   UNL     5     -10.830   7.261  74.125  1.00  0.00     0.000 HD 
BRANCH  23  26
HETATM   26  C   UNL     5     -10.132   8.566  72.005  1.00  0.00    -0.316 C  
HETATM   27  O   UNL     5      -9.273   9.031  70.939  1.00  0.00    -0.216 OA 
HETATM   28  H   UNL     5      -9.752   9.645  70.394  1.00  0.00     0.000 HD 
BRANCH  26  29
HETATM   29  C   UNL     5     -11.504   8.113  71.432  1.00  0.00    -0.263 C  
HETATM   30  O   UNL     5     -11.447   7.796  70.041  1.00  0.00    -0.462 OA 
HETATM   31  H   UNL     5     -12.286   7.518  69.690  1.00  0.00     0.000 HD 
BRANCH  29  32
HETATM   32  C   UNL     5     -12.739   8.966  71.762  1.00  0.00    -0.364 C  
HETATM   33  C   UNL     5     -12.608  10.479  71.488  1.00  0.00    -0.424 C  
HETATM   34  O   UNL     5     -13.166   8.737  73.152  1.00  0.00    -0.866 OA 
HETATM   35  O   UNL     5     -11.905  10.828  70.493  1.00  0.00    -0.304 OA 
HETATM   36  O   UNL     5     -13.188  11.210  72.368  1.00  0.00    -0.249 OA 
HETATM   37  H   UNL     5     -13.929   9.265  73.356  1.00  0.00     0.000 HD 
ENDBRANCH  29  32
ENDBRANCH  26  29
ENDBRANCH  23  26
ENDBRANCH   7  23
TORSDOF 8
ENDMDL
MODEL      163
REMARK 921   NORMALIZED FREE ENERGY PREDICTED BY IDOCK:   -5.62 KCAL/MOL
REMARK 922        TOTAL FREE ENERGY PREDICTED BY IDOCK:  -10.49 KCAL/MOL
REMARK 923 INTER-LIGAND FREE ENERGY PREDICTED BY IDOCK:   -8.76 KCAL/MOL
REMARK 924 INTRA-LIGAND FREE ENERGY PREDICTED BY IDOCK:   -1.72 KCAL/MOL
REMARK 927      BINDING AFFINITY PREDICTED BY RF-SCORE:    0.00 PKD
ROOT
HETATM    1 MG   UNL     3     -13.614  11.032  70.441  1.00  0.00    -0.202 Mg 
HETATM    2  O   UNL     4     -12.032   5.533  72.846  1.00  0.00    -0.537 OA 
HETATM    3  C   UNL     4     -11.629   6.821  72.420  1.00  0.00    -0.245 C  
HETATM    4  H   UNL     4     -12.073   5.452  73.792  1.00  0.00     0.000 HD 
HETATM    5  O   UNL     5     -12.656  14.288  63.535  1.00  0.00    -1.039 OA 
HETATM    6  H   UNL     5     -13.375  14.084  62.949  1.00  0.00     0.000 HD 
HETATM    7  C   UNL     5     -12.142  13.117  64.170  1.00  0.00    -0.430 C  
ENDROOT
BRANCH   3   8
HETATM    8  C   UNL     4     -11.564   6.952  70.891  1.00  0.00    -0.337 C  
HETATM    9  O   UNL     4     -12.898   6.968  70.349  1.00  0.00    -0.558 OA 
HETATM   10  H   UNL     4     -12.858   7.049  69.403  1.00  0.00     0.000 HD 
BRANCH   8  11
HETATM   11  C   UNL     4     -10.823   8.174  70.274  1.00  0.00    -0.244 C  
HETATM   12  O   UNL     4     -10.208   9.009  71.248  1.00  0.00    -0.258 OA 
HETATM   13  H   UNL     4      -9.755   9.755  70.871  1.00  0.00     0.000 HD 
BRANCH  11  14
HETATM   14  C   UNL     4      -9.879   7.920  69.068  1.00  0.00    -0.171 C  
HETATM   15  H   UNL     4      -8.904   9.068  67.823  1.00  0.00     0.000 HD 
HETATM   16  O   UNL     4      -9.482   9.224  68.562  1.00  0.00    -0.145 OA 
BRANCH  14  17
HETATM   17  C   UNL     4     -10.334   6.996  67.902  1.00  0.00    -0.199 C  
HETATM   18  C   UNL     4      -9.321   5.807  67.634  1.00  0.00    -0.108 C  
HETATM   19  H   UNL     4     -10.981   7.179  66.019  1.00  0.00     0.000 HD 
HETATM   20  O   UNL     4     -10.702   7.743  66.731  1.00  0.00    -0.311 OA 
HETATM   21  O   UNL     4      -8.802   5.307  68.719  1.00  0.00    -0.096 OA 
HETATM   22  O   UNL     4      -9.033   5.506  66.443  1.00  0.00    -0.124 OA 
ENDBRANCH  14  17
ENDBRANCH  11  14
ENDBRANCH   8  11
ENDBRANCH   3   8
BRANCH   7  23
HETATM   23  C   UNL     5     -10.975  13.448  65.121  1.00  0.00    -0.303 C  
HETATM   24  O   UNL     5      -9.890  13.952  64.340  1.00  0.00    -0.681 OA 
HETATM   25  H   UNL     5      -9.171  14.156  64.926  1.00  0.00     0.000 HD 
BRANCH  23  26
HETATM   26  C   UNL     5     -11.394  14.459  66.210  1.00  0.00    -0.350 C  
HETATM   27  O   UNL     5     -12.729  14.144  66.668  1.00  0.00    -0.523 OA 
HETATM   28  H   UNL     5     -12.987  14.766  67.338  1.00  0.00     0.000 HD 
BRANCH  26  29
HETATM   29  C   UNL     5     -10.442  14.660  67.422  1.00  0.00    -0.255 C  
HETATM   30  O   UNL     5      -9.273  13.845  67.351  1.00  0.00    -0.206 OA 
HETATM   31  H   UNL     5      -8.690  13.968  68.092  1.00  0.00     0.000 HD 
BRANCH  29  32
HETATM   32  C   UNL     5     -11.057  14.635  68.831  1.00  0.00    -0.254 C  
HETATM   33  C   UNL     5     -11.673  13.293  69.277  1.00  0.00    -0.326 C  
HETATM   34  O   UNL     5     -12.041  15.720  68.982  1.00  0.00    -0.545 OA 
HETATM   35  O   UNL     5     -11.112  12.234  68.865  1.00  0.00    -0.224 OA 
HETATM   36  O   UNL     5     -12.744  13.427  69.969  1.00  0.00    -0.094 OA 
HETATM   37  H   UNL     5     -12.421  15.705  69.852  1.00  0.00     0.000 HD 
ENDBRANCH  29  32
ENDBRANCH  26  29
ENDBRANCH  23  26
ENDBRANCH   7  23
TORSDOF 8
ENDMDL
MODEL      164
REMARK 921   NORMALIZED FREE ENERGY PREDICTED BY IDOCK:   -5.61 KCAL/MOL
REMARK 922        TOTAL FREE ENERGY PREDICTED BY IDOCK:  -10.47 KCAL/MOL
REMARK 923 INTER-LIGAND FREE ENERGY PREDICTED BY IDOCK:   -8.03 KCAL/MOL
REMARK 924 INTRA-LIGAND FREE ENERGY PREDICTED BY IDOCK:   -2.45 KCAL/MOL
REMARK 927      BINDING AFFINITY PREDICTED BY RF-SCORE:    0.00 PKD
ROOT
HETATM    1 MG   UNL     3      -9.088  10.491  68.037  1.00  0.00    -0.126 Mg 
HETATM    2  O   UNL     4      -9.833   4.330  67.966  1.00  0.00    -0.131 OA 
HETATM    3  C   UNL     4     -10.359   5.609  67.669  1.00  0.00    -0.212 C  
HETATM    4  H   UNL     4      -9.520   3.870  67.196  1.00  0.00     0.000 HD 
HETATM    5  O   UNL     5     -12.041  16.155  72.329  1.00  0.00    -0.479 OA 
HETATM    6  H   UNL     5     -11.518  16.314  73.106  1.00  0.00     0.000 HD 
HETATM    7  C   UNL     5     -12.333  14.767  72.163  1.00  0.00    -0.328 C  
ENDROOT
BRANCH   3   8
HETATM    8  C   UNL     4     -10.864   6.353  68.914  1.00  0.00    -0.325 C  
HETATM    9  O   UNL     4     -10.750   5.498  70.067  1.00  0.00    -0.313 OA 
HETATM   10  H   UNL     4     -11.063   5.959  70.838  1.00  0.00     0.000 HD 
BRANCH   8  11
HETATM   11  C   UNL     4     -10.198   7.706  69.300  1.00  0.00    -0.210 C  
HETATM   12  O   UNL     4      -9.426   8.274  68.248  1.00  0.00    -0.138 OA 
HETATM   13  H   UNL     4      -9.020   9.100  68.484  1.00  0.00     0.000 HD 
BRANCH  11  14
HETATM   14  C   UNL     4     -11.079   8.778  69.999  1.00  0.00    -0.162 C  
HETATM   15  H   UNL     4     -10.714  10.447  70.946  1.00  0.00     0.000 HD 
HETATM   16  O   UNL     4     -10.175   9.791  70.519  1.00  0.00    -0.274 OA 
BRANCH  14  17
HETATM   17  C   UNL     4     -12.108   8.354  71.085  1.00  0.00    -0.249 C  
HETATM   18  C   UNL     4     -13.105   9.524  71.471  1.00  0.00    -0.389 C  
HETATM   19  H   UNL     4     -12.109   7.450  72.868  1.00  0.00     0.000 HD 
HETATM   20  O   UNL     4     -11.480   7.710  72.205  1.00  0.00    -0.269 OA 
HETATM   21  O   UNL     4     -13.466  10.259  70.458  1.00  0.00    -0.175 OA 
HETATM   22  O   UNL     4     -13.390   9.708  72.686  1.00  0.00    -0.311 OA 
ENDBRANCH  14  17
ENDBRANCH  11  14
ENDBRANCH   8  11
ENDBRANCH   3   8
BRANCH   7  23
HETATM   23  C   UNL     5     -13.181  14.508  70.902  1.00  0.00    -0.316 C  
HETATM   24  O   UNL     5     -14.246  15.461  70.875  1.00  0.00    -0.833 OA 
HETATM   25  H   UNL     5     -14.769  15.301  70.098  1.00  0.00     0.000 HD 
BRANCH  23  26
HETATM   26  C   UNL     5     -12.331  14.588  69.615  1.00  0.00    -0.241 C  
HETATM   27  O   UNL     5     -11.276  15.560  69.797  1.00  0.00    -0.255 OA 
HETATM   28  H   UNL     5     -10.753  15.609  69.006  1.00  0.00     0.000 HD 
BRANCH  26  29
HETATM   29  C   UNL     5     -11.750  13.264  69.045  1.00  0.00    -0.322 C  
HETATM   30  O   UNL     5     -11.233  12.402  70.058  1.00  0.00    -0.492 OA 
HETATM   31  H   UNL     5     -10.878  11.592  69.709  1.00  0.00     0.000 HD 
BRANCH  29  32
HETATM   32  C   UNL     5     -10.792  13.357  67.846  1.00  0.00    -0.247 C  
HETATM   33  C   UNL     5     -11.284  12.710  66.535  1.00  0.00    -0.296 C  
HETATM   34  O   UNL     5      -9.465  12.830  68.206  1.00  0.00    -0.214 OA 
HETATM   35  O   UNL     5     -12.527  12.762  66.295  1.00  0.00    -0.477 OA 
HETATM   36  O   UNL     5     -10.353  12.126  65.873  1.00  0.00    -0.241 OA 
HETATM   37  H   UNL     5      -8.873  12.887  67.466  1.00  0.00     0.000 HD 
ENDBRANCH  29  32
ENDBRANCH  26  29
ENDBRANCH  23  26
ENDBRANCH   7  23
TORSDOF 8
ENDMDL
MODEL      165
REMARK 921   NORMALIZED FREE ENERGY PREDICTED BY IDOCK:   -5.60 KCAL/MOL
REMARK 922        TOTAL FREE ENERGY PREDICTED BY IDOCK:  -10.46 KCAL/MOL
REMARK 923 INTER-LIGAND FREE ENERGY PREDICTED BY IDOCK:   -8.50 KCAL/MOL
REMARK 924 INTRA-LIGAND FREE ENERGY PREDICTED BY IDOCK:   -1.96 KCAL/MOL
REMARK 927      BINDING AFFINITY PREDICTED BY RF-SCORE:    0.00 PKD
ROOT
HETATM    1 MG   UNL     3      -8.405   9.802  71.296  1.00  0.00    -0.161 Mg 
HETATM    2  O   UNL     4      -9.831   4.231  68.960  1.00  0.00    -0.165 OA 
HETATM    3  C   UNL     4      -9.243   5.503  68.764  1.00  0.00    -0.122 C  
HETATM    4  H   UNL     4      -9.189   3.541  69.077  1.00  0.00     0.000 HD 
HETATM    5  O   UNL     5     -11.257  16.877  70.289  1.00  0.00    -0.423 OA 
HETATM    6  H   UNL     5     -11.964  17.060  70.896  1.00  0.00     0.000 HD 
HETATM    7  C   UNL     5     -11.435  15.623  69.631  1.00  0.00    -0.340 C  
ENDROOT
BRANCH   3   8
HETATM    8  C   UNL     4     -10.281   6.619  68.575  1.00  0.00    -0.171 C  
HETATM    9  O   UNL     4     -11.595   6.115  68.881  1.00  0.00    -0.382 OA 
HETATM   10  H   UNL     4     -12.237   6.806  68.763  1.00  0.00     0.000 HD 
BRANCH   8  11
HETATM   11  C   UNL     4     -10.117   7.941  69.382  1.00  0.00    -0.196 C  
HETATM   12  O   UNL     4      -9.457   7.760  70.630  1.00  0.00    -0.162 OA 
HETATM   13  H   UNL     4      -9.357   8.566  71.122  1.00  0.00     0.000 HD 
BRANCH  11  14
HETATM   14  C   UNL     4      -9.579   9.190  68.632  1.00  0.00    -0.152 C  
HETATM   15  H   UNL     4      -7.916  10.213  68.690  1.00  0.00     0.000 HD 
HETATM   16  O   UNL     4      -8.245   9.449  69.149  1.00  0.00    -0.104 OA 
BRANCH  14  17
HETATM   17  C   UNL     4     -10.417  10.500  68.599  1.00  0.00    -0.191 C  
HETATM   18  C   UNL     4     -11.342  10.665  69.875  1.00  0.00    -0.313 C  
HETATM   19  H   UNL     4     -11.603  11.481  67.323  1.00  0.00     0.000 HD 
HETATM   20  O   UNL     4     -11.092  10.680  67.344  1.00  0.00    -0.302 OA 
HETATM   21  O   UNL     4     -10.788  10.254  70.980  1.00  0.00    -0.146 OA 
HETATM   22  O   UNL     4     -12.525  11.077  69.723  1.00  0.00    -0.293 OA 
ENDBRANCH  14  17
ENDBRANCH  11  14
ENDBRANCH   8  11
ENDBRANCH   3   8
BRANCH   7  23
HETATM   23  C   UNL     5     -10.287  15.327  68.645  1.00  0.00    -0.232 C  
HETATM   24  O   UNL     5      -9.098  15.089  69.400  1.00  0.00    -0.352 OA 
HETATM   25  H   UNL     5      -8.391  14.907  68.792  1.00  0.00     0.000 HD 
BRANCH  23  26
HETATM   26  C   UNL     5     -10.615  14.127  67.730  1.00  0.00    -0.243 C  
HETATM   27  O   UNL     5     -11.991  13.731  67.935  1.00  0.00    -0.362 OA 
HETATM   28  H   UNL     5     -12.192  12.992  67.372  1.00  0.00     0.000 HD 
BRANCH  26  29
HETATM   29  C   UNL     5     -10.316  14.266  66.211  1.00  0.00    -0.294 C  
HETATM   30  O   UNL     5      -9.072  14.914  65.948  1.00  0.00    -0.495 OA 
HETATM   31  H   UNL     5      -8.888  14.999  65.019  1.00  0.00     0.000 HD 
BRANCH  29  32
HETATM   32  C   UNL     5     -11.432  14.808  65.305  1.00  0.00    -0.352 C  
HETATM   33  C   UNL     5     -12.340  13.750  64.643  1.00  0.00    -0.372 C  
HETATM   34  O   UNL     5     -10.874  15.708  64.283  1.00  0.00    -0.746 OA 
HETATM   35  O   UNL     5     -12.585  12.701  65.309  1.00  0.00    -0.630 OA 
HETATM   36  O   UNL     5     -12.681  14.048  63.443  1.00  0.00    -0.796 OA 
HETATM   37  H   UNL     5     -11.564  16.043  63.723  1.00  0.00     0.000 HD 
ENDBRANCH  29  32
ENDBRANCH  26  29
ENDBRANCH  23  26
ENDBRANCH   7  23
TORSDOF 8
ENDMDL
MODEL      166
REMARK 921   NORMALIZED FREE ENERGY PREDICTED BY IDOCK:   -5.60 KCAL/MOL
REMARK 922        TOTAL FREE ENERGY PREDICTED BY IDOCK:  -10.46 KCAL/MOL
REMARK 923 INTER-LIGAND FREE ENERGY PREDICTED BY IDOCK:   -8.44 KCAL/MOL
REMARK 924 INTRA-LIGAND FREE ENERGY PREDICTED BY IDOCK:   -2.02 KCAL/MOL
REMARK 927      BINDING AFFINITY PREDICTED BY RF-SCORE:    0.00 PKD
ROOT
HETATM    1 MG   UNL     3     -12.983  10.591  69.011  1.00  0.00    -0.522 Mg 
HETATM    2  O   UNL     4     -11.154  13.340  63.756  1.00  0.00    -0.559 OA 
HETATM    3  C   UNL     4     -11.534  12.152  64.422  1.00  0.00    -0.350 C  
HETATM    4  H   UNL     4     -11.837  13.683  63.191  1.00  0.00     0.000 HD 
HETATM    5  O   UNL     5      -9.488   6.005  74.107  1.00  0.00    -0.137 OA 
HETATM    6  H   UNL     5      -9.057   6.505  74.790  1.00  0.00     0.000 HD 
HETATM    7  C   UNL     5      -9.158   6.492  72.806  1.00  0.00    -0.136 C  
ENDROOT
BRANCH   3   8
HETATM    8  C   UNL     4     -10.429  11.598  65.335  1.00  0.00    -0.275 C  
HETATM    9  O   UNL     4      -9.243  11.346  64.559  1.00  0.00    -0.381 OA 
HETATM   10  H   UNL     4      -8.559  11.003  65.123  1.00  0.00     0.000 HD 
BRANCH   8  11
HETATM   11  C   UNL     4      -9.981  12.439  66.566  1.00  0.00    -0.230 C  
HETATM   12  O   UNL     4      -9.466  13.719  66.215  1.00  0.00    -0.373 OA 
HETATM   13  H   UNL     4      -9.193  14.231  66.967  1.00  0.00     0.000 HD 
BRANCH  11  14
HETATM   14  C   UNL     4     -10.949  12.529  67.777  1.00  0.00    -0.234 C  
HETATM   15  H   UNL     4     -12.804  12.004  68.093  1.00  0.00     0.000 HD 
HETATM   16  O   UNL     4     -12.212  11.948  67.352  1.00  0.00    -0.502 OA 
BRANCH  14  17
HETATM   17  C   UNL     4     -11.186  13.894  68.485  1.00  0.00    -0.270 C  
HETATM   18  C   UNL     4     -12.194  13.782  69.703  1.00  0.00    -0.305 C  
HETATM   19  H   UNL     4     -11.634  15.776  67.984  1.00  0.00     0.000 HD 
HETATM   20  O   UNL     4     -11.490  14.943  67.552  1.00  0.00    -0.336 OA 
HETATM   21  O   UNL     4     -12.062  12.685  70.393  1.00  0.00    -0.364 OA 
HETATM   22  O   UNL     4     -13.071  14.677  69.854  1.00  0.00     0.015 OA 
ENDBRANCH  14  17
ENDBRANCH  11  14
ENDBRANCH   8  11
ENDBRANCH   3   8
BRANCH   7  23
HETATM   23  C   UNL     5      -9.858   5.680  71.698  1.00  0.00    -0.170 C  
HETATM   24  O   UNL     5      -9.741   4.292  72.016  1.00  0.00    -0.148 OA 
HETATM   25  H   UNL     5     -10.172   3.793  71.333  1.00  0.00     0.000 HD 
BRANCH  23  26
HETATM   26  C   UNL     5     -11.338   6.091  71.537  1.00  0.00    -0.246 C  
HETATM   27  O   UNL     5     -12.000   6.009  72.819  1.00  0.00    -0.520 OA 
HETATM   28  H   UNL     5     -12.911   6.262  72.720  1.00  0.00     0.000 HD 
BRANCH  26  29
HETATM   29  C   UNL     5     -11.644   7.456  70.859  1.00  0.00    -0.291 C  
HETATM   30  O   UNL     5     -10.698   7.798  69.847  1.00  0.00    -0.243 OA 
HETATM   31  H   UNL     5     -10.886   8.633  69.432  1.00  0.00     0.000 HD 
BRANCH  29  32
HETATM   32  C   UNL     5     -11.950   8.657  71.769  1.00  0.00    -0.336 C  
HETATM   33  C   UNL     5     -13.441   9.021  71.930  1.00  0.00    -0.425 C  
HETATM   34  O   UNL     5     -11.184   9.838  71.336  1.00  0.00    -0.366 OA 
HETATM   35  O   UNL     5     -14.273   8.065  71.924  1.00  0.00    -0.396 OA 
HETATM   36  O   UNL     5     -13.656  10.284  71.982  1.00  0.00    -0.339 OA 
HETATM   37  H   UNL     5     -11.373  10.580  71.898  1.00  0.00     0.000 HD 
ENDBRANCH  29  32
ENDBRANCH  26  29
ENDBRANCH  23  26
ENDBRANCH   7  23
TORSDOF 8
ENDMDL
MODEL      167
REMARK 921   NORMALIZED FREE ENERGY PREDICTED BY IDOCK:   -5.58 KCAL/MOL
REMARK 922        TOTAL FREE ENERGY PREDICTED BY IDOCK:  -10.43 KCAL/MOL
REMARK 923 INTER-LIGAND FREE ENERGY PREDICTED BY IDOCK:   -8.41 KCAL/MOL
REMARK 924 INTRA-LIGAND FREE ENERGY PREDICTED BY IDOCK:   -2.03 KCAL/MOL
REMARK 927      BINDING AFFINITY PREDICTED BY RF-SCORE:    0.00 PKD
ROOT
HETATM    1 MG   UNL     3      -9.363  12.102  64.180  1.00  0.00    -0.363 Mg 
HETATM    2  O   UNL     4      -9.780   7.005  67.696  1.00  0.00    -0.132 OA 
HETATM    3  C   UNL     4     -10.400   8.171  67.189  1.00  0.00    -0.321 C  
HETATM    4  H   UNL     4     -10.076   6.211  67.266  1.00  0.00     0.000 HD 
HETATM    5  O   UNL     5      -8.668  19.603  65.751  1.00  0.00    -0.398 OA 
HETATM    6  H   UNL     5      -7.757  19.862  65.829  1.00  0.00     0.000 HD 
HETATM    7  C   UNL     5      -8.955  18.440  66.527  1.00  0.00    -0.286 C  
ENDROOT
BRANCH   3   8
HETATM    8  C   UNL     4      -9.920   9.454  67.884  1.00  0.00    -0.182 C  
HETATM    9  O   UNL     4      -9.660  10.470  66.898  1.00  0.00    -0.169 OA 
HETATM   10  H   UNL     4      -9.363  11.264  67.328  1.00  0.00     0.000 HD 
BRANCH   8  11
HETATM   11  C   UNL     4     -10.832  10.109  68.963  1.00  0.00    -0.224 C  
HETATM   12  O   UNL     4     -11.994  10.725  68.418  1.00  0.00    -0.752 OA 
HETATM   13  H   UNL     4     -12.550  11.124  69.077  1.00  0.00     0.000 HD 
BRANCH  11  14
HETATM   14  C   UNL     4     -11.172   9.279  70.231  1.00  0.00    -0.231 C  
HETATM   15  H   UNL     4     -11.899   9.705  71.993  1.00  0.00     0.000 HD 
HETATM   16  O   UNL     4     -11.691  10.212  71.217  1.00  0.00    -0.366 OA 
BRANCH  14  17
HETATM   17  C   UNL     4     -10.097   8.353  70.867  1.00  0.00    -0.194 C  
HETATM   18  C   UNL     4     -10.635   6.885  71.129  1.00  0.00    -0.222 C  
HETATM   19  H   UNL     4      -8.798   8.399  72.386  1.00  0.00     0.000 HD 
HETATM   20  O   UNL     4      -9.455   8.965  71.997  1.00  0.00    -0.295 OA 
HETATM   21  O   UNL     4     -11.429   6.444  70.196  1.00  0.00    -0.385 OA 
HETATM   22  O   UNL     4     -10.343   6.312  72.215  1.00  0.00    -0.187 OA 
ENDBRANCH  14  17
ENDBRANCH  11  14
ENDBRANCH   8  11
ENDBRANCH   3   8
BRANCH   7  23
HETATM   23  C   UNL     5     -10.434  18.020  66.402  1.00  0.00    -0.339 C  
HETATM   24  O   UNL     5     -10.867  18.299  65.070  1.00  0.00    -0.679 OA 
HETATM   25  H   UNL     5     -11.778  18.040  64.992  1.00  0.00     0.000 HD 
BRANCH  23  26
HETATM   26  C   UNL     5     -10.636  16.529  66.752  1.00  0.00    -0.224 C  
HETATM   27  O   UNL     5      -9.432  15.795  66.434  1.00  0.00    -0.250 OA 
HETATM   28  H   UNL     5      -9.556  14.878  66.649  1.00  0.00     0.000 HD 
BRANCH  26  29
HETATM   29  C   UNL     5     -11.116  16.178  68.188  1.00  0.00    -0.332 C  
HETATM   30  O   UNL     5     -10.119  16.414  69.181  1.00  0.00    -0.250 OA 
HETATM   31  H   UNL     5     -10.412  16.199  70.059  1.00  0.00     0.000 HD 
BRANCH  29  32
HETATM   32  C   UNL     5     -11.811  14.824  68.402  1.00  0.00    -0.286 C  
HETATM   33  C   UNL     5     -12.282  14.525  69.841  1.00  0.00    -0.328 C  
HETATM   34  O   UNL     5     -10.962  13.727  67.909  1.00  0.00    -0.244 OA 
HETATM   35  O   UNL     5     -12.690  15.507  70.530  1.00  0.00    -0.434 OA 
HETATM   36  O   UNL     5     -12.132  13.298  70.183  1.00  0.00    -0.336 OA 
HETATM   37  H   UNL     5     -11.391  12.890  68.041  1.00  0.00     0.000 HD 
ENDBRANCH  29  32
ENDBRANCH  26  29
ENDBRANCH  23  26
ENDBRANCH   7  23
TORSDOF 8
ENDMDL
MODEL      168
REMARK 921   NORMALIZED FREE ENERGY PREDICTED BY IDOCK:   -5.58 KCAL/MOL
REMARK 922        TOTAL FREE ENERGY PREDICTED BY IDOCK:  -10.43 KCAL/MOL
REMARK 923 INTER-LIGAND FREE ENERGY PREDICTED BY IDOCK:   -8.59 KCAL/MOL
REMARK 924 INTRA-LIGAND FREE ENERGY PREDICTED BY IDOCK:   -1.84 KCAL/MOL
REMARK 927      BINDING AFFINITY PREDICTED BY RF-SCORE:    0.00 PKD
ROOT
HETATM    1 MG   UNL     3      -8.603  10.606  70.131  1.00  0.00    -0.314 Mg 
HETATM    2  O   UNL     4      -9.257   6.088  65.926  1.00  0.00    -0.249 OA 
HETATM    3  C   UNL     4      -9.262   7.473  66.215  1.00  0.00    -0.146 C  
HETATM    4  H   UNL     4      -8.470   5.807  65.474  1.00  0.00     0.000 HD 
HETATM    5  O   UNL     5     -13.549  15.264  73.743  1.00  0.00    -0.493 OA 
HETATM    6  H   UNL     5     -13.871  14.877  74.548  1.00  0.00     0.000 HD 
HETATM    7  C   UNL     5     -13.647  14.359  72.644  1.00  0.00    -0.490 C  
ENDROOT
BRANCH   3   8
HETATM    8  C   UNL     4     -10.534   7.927  66.946  1.00  0.00    -0.318 C  
HETATM    9  O   UNL     4     -11.426   6.808  67.106  1.00  0.00    -0.756 OA 
HETATM   10  H   UNL     4     -12.213   7.089  67.559  1.00  0.00     0.000 HD 
BRANCH   8  11
HETATM   11  C   UNL     4     -10.397   8.586  68.350  1.00  0.00    -0.202 C  
HETATM   12  O   UNL     4     -11.305   9.663  68.557  1.00  0.00    -0.492 OA 
HETATM   13  H   UNL     4     -11.222  10.064  69.414  1.00  0.00     0.000 HD 
BRANCH  11  14
HETATM   14  C   UNL     4     -10.332   7.653  69.589  1.00  0.00    -0.213 C  
HETATM   15  H   UNL     4     -11.646   6.614  70.594  1.00  0.00     0.000 HD 
HETATM   16  O   UNL     4     -11.686   7.185  69.836  1.00  0.00    -0.129 OA 
BRANCH  14  17
HETATM   17  C   UNL     4      -9.678   8.154  70.909  1.00  0.00    -0.166 C  
HETATM   18  C   UNL     4      -9.442   6.986  71.954  1.00  0.00    -0.140 C  
HETATM   19  H   UNL     4      -9.948   9.613  72.247  1.00  0.00     0.000 HD 
HETATM   20  O   UNL     4     -10.348   9.307  71.442  1.00  0.00    -0.321 OA 
HETATM   21  O   UNL     4      -9.071   5.863  71.409  1.00  0.00    -0.140 OA 
HETATM   22  O   UNL     4      -9.706   7.193  73.171  1.00  0.00    -0.162 OA 
ENDBRANCH  14  17
ENDBRANCH  11  14
ENDBRANCH   8  11
ENDBRANCH   3   8
BRANCH   7  23
HETATM   23  C   UNL     5     -13.125  14.988  71.336  1.00  0.00    -0.389 C  
HETATM   24  O   UNL     5     -12.510  16.237  71.655  1.00  0.00    -0.575 OA 
HETATM   25  H   UNL     5     -12.189  16.625  70.849  1.00  0.00     0.000 HD 
BRANCH  23  26
HETATM   26  C   UNL     5     -12.137  14.051  70.607  1.00  0.00    -0.354 C  
HETATM   27  O   UNL     5     -12.655  12.701  70.624  1.00  0.00    -0.261 OA 
HETATM   28  H   UNL     5     -12.047  12.125  70.176  1.00  0.00     0.000 HD 
BRANCH  26  29
HETATM   29  C   UNL     5     -11.694  14.439  69.169  1.00  0.00    -0.317 C  
HETATM   30  O   UNL     5     -12.224  15.694  68.744  1.00  0.00    -0.578 OA 
HETATM   31  H   UNL     5     -11.953  15.932  67.864  1.00  0.00     0.000 HD 
BRANCH  29  32
HETATM   32  C   UNL     5     -11.819  13.376  68.066  1.00  0.00    -0.357 C  
HETATM   33  C   UNL     5     -10.494  12.875  67.455  1.00  0.00    -0.223 C  
HETATM   34  O   UNL     5     -12.724  13.842  67.003  1.00  0.00    -0.336 OA 
HETATM   35  O   UNL     5      -9.493  12.800  68.228  1.00  0.00    -0.214 OA 
HETATM   36  O   UNL     5     -10.563  12.659  66.193  1.00  0.00    -0.252 OA 
HETATM   37  H   UNL     5     -12.802  13.185  66.321  1.00  0.00     0.000 HD 
ENDBRANCH  29  32
ENDBRANCH  26  29
ENDBRANCH  23  26
ENDBRANCH   7  23
TORSDOF 8
ENDMDL
MODEL      169
REMARK 921   NORMALIZED FREE ENERGY PREDICTED BY IDOCK:   -5.57 KCAL/MOL
REMARK 922        TOTAL FREE ENERGY PREDICTED BY IDOCK:  -10.42 KCAL/MOL
REMARK 923 INTER-LIGAND FREE ENERGY PREDICTED BY IDOCK:   -8.03 KCAL/MOL
REMARK 924 INTRA-LIGAND FREE ENERGY PREDICTED BY IDOCK:   -2.39 KCAL/MOL
REMARK 927      BINDING AFFINITY PREDICTED BY RF-SCORE:    0.00 PKD
ROOT
HETATM    1 MG   UNL     3     -12.942  10.571  68.575  1.00  0.00    -0.308 Mg 
HETATM    2  O   UNL     4      -9.952  13.017  63.718  1.00  0.00    -0.744 OA 
HETATM    3  C   UNL     4     -10.494  11.870  64.343  1.00  0.00    -0.311 C  
HETATM    4  H   UNL     4     -10.488  13.336  63.001  1.00  0.00     0.000 HD 
HETATM    5  O   UNL     5     -10.743   6.227  74.534  1.00  0.00    -0.325 OA 
HETATM    6  H   UNL     5     -10.461   6.758  75.269  1.00  0.00     0.000 HD 
HETATM    7  C   UNL     5     -10.127   6.640  73.315  1.00  0.00    -0.212 C  
ENDROOT
BRANCH   3   8
HETATM    8  C   UNL     4      -9.627  11.354  65.501  1.00  0.00    -0.228 C  
HETATM    9  O   UNL     4      -8.296  11.080  65.025  1.00  0.00    -0.370 OA 
HETATM   10  H   UNL     4      -7.760  10.761  65.742  1.00  0.00     0.000 HD 
BRANCH   8  11
HETATM   11  C   UNL     4      -9.468  12.240  66.771  1.00  0.00    -0.222 C  
HETATM   12  O   UNL     4      -9.139  13.594  66.475  1.00  0.00    -0.397 OA 
HETATM   13  H   UNL     4      -9.042  14.134  67.250  1.00  0.00     0.000 HD 
BRANCH  11  14
HETATM   14  C   UNL     4     -10.565  12.150  67.866  1.00  0.00    -0.207 C  
HETATM   15  H   UNL     4     -12.480  11.763  67.858  1.00  0.00     0.000 HD 
HETATM   16  O   UNL     4     -11.809  11.818  67.189  1.00  0.00    -0.599 OA 
BRANCH  14  17
HETATM   17  C   UNL     4     -10.779  13.331  68.855  1.00  0.00    -0.184 C  
HETATM   18  C   UNL     4     -11.850  13.001  69.976  1.00  0.00    -0.285 C  
HETATM   19  H   UNL     4     -11.123  15.298  68.777  1.00  0.00     0.000 HD 
HETATM   20  O   UNL     4     -10.992  14.577  68.173  1.00  0.00    -0.241 OA 
HETATM   21  O   UNL     4     -11.798  11.772  70.404  1.00  0.00    -0.343 OA 
HETATM   22  O   UNL     4     -12.695  13.883  70.292  1.00  0.00    -0.296 OA 
ENDBRANCH  14  17
ENDBRANCH  11  14
ENDBRANCH   8  11
ENDBRANCH   3   8
BRANCH   7  23
HETATM   23  C   UNL     5     -10.585   5.778  72.122  1.00  0.00    -0.219 C  
HETATM   24  O   UNL     5     -11.232   4.612  72.634  1.00  0.00    -0.125 OA 
HETATM   25  H   UNL     5     -11.515   4.081  71.899  1.00  0.00     0.000 HD 
BRANCH  23  26
HETATM   26  C   UNL     5     -11.521   6.563  71.176  1.00  0.00    -0.326 C  
HETATM   27  O   UNL     5     -12.812   6.724  71.805  1.00  0.00    -0.385 OA 
HETATM   28  H   UNL     5     -13.388   7.207  71.223  1.00  0.00     0.000 HD 
BRANCH  26  29
HETATM   29  C   UNL     5     -11.018   7.925  70.622  1.00  0.00    -0.245 C  
HETATM   30  O   UNL     5     -11.959   8.982  70.808  1.00  0.00    -0.397 OA 
HETATM   31  H   UNL     5     -11.652   9.815  70.469  1.00  0.00     0.000 HD 
BRANCH  29  32
HETATM   32  C   UNL     5     -10.423   7.949  69.205  1.00  0.00    -0.209 C  
HETATM   33  C   UNL     5      -8.901   8.190  69.114  1.00  0.00    -0.144 C  
HETATM   34  O   UNL     5     -11.141   8.918  68.361  1.00  0.00    -0.455 OA 
HETATM   35  O   UNL     5      -8.184   7.711  70.042  1.00  0.00    -0.121 OA 
HETATM   36  O   UNL     5      -8.559   8.924  68.120  1.00  0.00    -0.128 OA 
HETATM   37  H   UNL     5     -10.773   8.933  67.485  1.00  0.00     0.000 HD 
ENDBRANCH  29  32
ENDBRANCH  26  29
ENDBRANCH  23  26
ENDBRANCH   7  23
TORSDOF 8
ENDMDL
MODEL      170
REMARK 921   NORMALIZED FREE ENERGY PREDICTED BY IDOCK:   -5.57 KCAL/MOL
REMARK 922        TOTAL FREE ENERGY PREDICTED BY IDOCK:  -10.42 KCAL/MOL
REMARK 923 INTER-LIGAND FREE ENERGY PREDICTED BY IDOCK:   -8.57 KCAL/MOL
REMARK 924 INTRA-LIGAND FREE ENERGY PREDICTED BY IDOCK:   -1.86 KCAL/MOL
REMARK 927      BINDING AFFINITY PREDICTED BY RF-SCORE:    0.00 PKD
ROOT
HETATM    1 MG   UNL     3     -10.674  13.523  69.473  1.00  0.00    -0.246 Mg 
HETATM    2  O   UNL     4     -12.212  14.601  63.558  1.00  0.00    -0.978 OA 
HETATM    3  C   UNL     4     -12.395  13.825  64.727  1.00  0.00    -0.386 C  
HETATM    4  H   UNL     4     -12.923  15.213  63.405  1.00  0.00     0.000 HD 
HETATM    5  O   UNL     5      -6.468   8.112  72.972  1.00  0.00    -0.074 OA 
HETATM    6  H   UNL     5      -5.551   8.357  73.019  1.00  0.00     0.000 HD 
HETATM    7  C   UNL     5      -6.992   8.276  71.654  1.00  0.00    -0.079 C  
ENDROOT
BRANCH   3   8
HETATM    8  C   UNL     4     -11.246  12.836  64.974  1.00  0.00    -0.298 C  
HETATM    9  O   UNL     4     -10.256  12.976  63.938  1.00  0.00    -0.594 OA 
HETATM   10  H   UNL     4      -9.545  12.364  64.091  1.00  0.00     0.000 HD 
BRANCH   8  11
HETATM   11  C   UNL     4     -10.481  12.899  66.328  1.00  0.00    -0.270 C  
HETATM   12  O   UNL     4      -9.648  11.767  66.557  1.00  0.00    -0.199 OA 
HETATM   13  H   UNL     4      -9.181  11.806  67.383  1.00  0.00     0.000 HD 
BRANCH  11  14
HETATM   14  C   UNL     4      -9.752  14.221  66.692  1.00  0.00    -0.287 C  
HETATM   15  H   UNL     4      -8.449  14.738  68.052  1.00  0.00     0.000 HD 
HETATM   16  O   UNL     4      -8.894  13.929  67.829  1.00  0.00    -0.170 OA 
BRANCH  14  17
HETATM   17  C   UNL     4     -10.571  15.519  66.943  1.00  0.00    -0.307 C  
HETATM   18  C   UNL     4      -9.702  16.832  66.770  1.00  0.00    -0.264 C  
HETATM   19  H   UNL     4     -11.824  16.249  68.319  1.00  0.00     0.000 HD 
HETATM   20  O   UNL     4     -11.323  15.456  68.166  1.00  0.00    -0.324 OA 
HETATM   21  O   UNL     4      -8.839  16.765  65.797  1.00  0.00    -0.505 OA 
HETATM   22  O   UNL     4      -9.836  17.768  67.606  1.00  0.00    -0.282 OA 
ENDBRANCH  14  17
ENDBRANCH  11  14
ENDBRANCH   8  11
ENDBRANCH   3   8
BRANCH   7  23
HETATM   23  C   UNL     5      -8.480   7.878  71.577  1.00  0.00    -0.114 C  
HETATM   24  O   UNL     5      -9.247   8.882  72.245  1.00  0.00    -0.376 OA 
HETATM   25  H   UNL     5     -10.164   8.637  72.197  1.00  0.00     0.000 HD 
BRANCH  23  26
HETATM   26  C   UNL     5      -8.948   7.699  70.117  1.00  0.00    -0.146 C  
HETATM   27  O   UNL     5      -8.749   6.325  69.715  1.00  0.00    -0.134 OA 
HETATM   28  H   UNL     5      -9.037   6.215  68.816  1.00  0.00     0.000 HD 
BRANCH  26  29
HETATM   29  C   UNL     5     -10.386   8.164  69.752  1.00  0.00    -0.216 C  
HETATM   30  O   UNL     5     -11.207   7.101  69.267  1.00  0.00    -0.446 OA 
HETATM   31  H   UNL     5     -12.086   7.385  69.044  1.00  0.00     0.000 HD 
BRANCH  29  32
HETATM   32  C   UNL     5     -10.536   9.426  68.887  1.00  0.00    -0.216 C  
HETATM   33  C   UNL     5     -11.441  10.536  69.462  1.00  0.00    -0.272 C  
HETATM   34  O   UNL     5     -10.973   9.069  67.527  1.00  0.00    -0.469 OA 
HETATM   35  O   UNL     5     -11.444  10.685  70.720  1.00  0.00    -0.327 OA 
HETATM   36  O   UNL     5     -12.144  11.134  68.572  1.00  0.00    -0.586 OA 
HETATM   37  H   UNL     5     -11.065   9.849  66.993  1.00  0.00     0.000 HD 
ENDBRANCH  29  32
ENDBRANCH  26  29
ENDBRANCH  23  26
ENDBRANCH   7  23
TORSDOF 8
ENDMDL
MODEL      171
REMARK 921   NORMALIZED FREE ENERGY PREDICTED BY IDOCK:   -5.57 KCAL/MOL
REMARK 922        TOTAL FREE ENERGY PREDICTED BY IDOCK:  -10.42 KCAL/MOL
REMARK 923 INTER-LIGAND FREE ENERGY PREDICTED BY IDOCK:   -8.94 KCAL/MOL
REMARK 924 INTRA-LIGAND FREE ENERGY PREDICTED BY IDOCK:   -1.47 KCAL/MOL
REMARK 927      BINDING AFFINITY PREDICTED BY RF-SCORE:    0.00 PKD
ROOT
HETATM    1 MG   UNL     3      -7.608  11.859  68.801  1.00  0.00    -0.091 Mg 
HETATM    2  O   UNL     4     -10.174  17.499  68.453  1.00  0.00    -0.327 OA 
HETATM    3  C   UNL     4     -10.076  16.261  69.131  1.00  0.00    -0.264 C  
HETATM    4  H   UNL     4      -9.721  18.204  68.901  1.00  0.00     0.000 HD 
HETATM    5  O   UNL     5     -10.156   4.756  67.296  1.00  0.00    -0.185 OA 
HETATM    6  H   UNL     5     -10.007   4.515  66.390  1.00  0.00     0.000 HD 
HETATM    7  C   UNL     5     -10.773   6.038  67.408  1.00  0.00    -0.310 C  
ENDROOT
BRANCH   3   8
HETATM    8  C   UNL     4     -10.808  15.122  68.406  1.00  0.00    -0.255 C  
HETATM    9  O   UNL     4     -12.208  15.439  68.296  1.00  0.00    -0.500 OA 
HETATM   10  H   UNL     4     -12.661  14.734  67.847  1.00  0.00     0.000 HD 
BRANCH   8  11
HETATM   11  C   UNL     4     -10.334  14.714  66.981  1.00  0.00    -0.263 C  
HETATM   12  O   UNL     4      -9.066  14.066  66.974  1.00  0.00    -0.227 OA 
HETATM   13  H   UNL     4      -8.778  13.816  66.104  1.00  0.00     0.000 HD 
BRANCH  11  14
HETATM   14  C   UNL     4     -11.348  13.986  66.057  1.00  0.00    -0.328 C  
HETATM   15  H   UNL     4     -12.750  12.656  66.339  1.00  0.00     0.000 HD 
HETATM   16  O   UNL     4     -12.130  13.101  66.904  1.00  0.00    -0.379 OA 
BRANCH  14  17
HETATM   17  C   UNL     4     -10.847  13.231  64.792  1.00  0.00    -0.360 C  
HETATM   18  C   UNL     4     -11.980  13.057  63.698  1.00  0.00    -0.539 C  
HETATM   19  H   UNL     4      -9.840  11.562  64.353  1.00  0.00     0.000 HD 
HETATM   20  O   UNL     4     -10.146  12.023  65.125  1.00  0.00    -0.259 OA 
HETATM   21  O   UNL     4     -12.769  14.088  63.592  1.00  0.00    -0.778 OA 
HETATM   22  O   UNL     4     -12.088  11.950  63.101  1.00  0.00    -0.411 OA 
ENDBRANCH  14  17
ENDBRANCH  11  14
ENDBRANCH   8  11
ENDBRANCH   3   8
BRANCH   7  23
HETATM   23  C   UNL     5     -11.016   6.429  68.880  1.00  0.00    -0.346 C  
HETATM   24  O   UNL     5     -10.323   5.497  69.711  1.00  0.00    -0.244 OA 
HETATM   25  H   UNL     5     -10.472   5.738  70.618  1.00  0.00     0.000 HD 
BRANCH  23  26
HETATM   26  C   UNL     5     -10.562   7.877  69.168  1.00  0.00    -0.173 C  
HETATM   27  O   UNL     5     -11.128   8.763  68.176  1.00  0.00    -0.463 OA 
HETATM   28  H   UNL     5     -10.849   9.654  68.354  1.00  0.00     0.000 HD 
BRANCH  26  29
HETATM   29  C   UNL     5     -10.802   8.443  70.596  1.00  0.00    -0.231 C  
HETATM   30  O   UNL     5      -9.809   8.026  71.533  1.00  0.00    -0.161 OA 
HETATM   31  H   UNL     5      -9.955   8.373  72.405  1.00  0.00     0.000 HD 
BRANCH  29  32
HETATM   32  C   UNL     5     -12.215   8.327  71.188  1.00  0.00    -0.233 C  
HETATM   33  C   UNL     5     -12.935   9.658  71.488  1.00  0.00    -0.395 C  
HETATM   34  O   UNL     5     -12.201   7.475  72.389  1.00  0.00    -0.473 OA 
HETATM   35  O   UNL     5     -12.707  10.627  70.705  1.00  0.00    -0.349 OA 
HETATM   36  O   UNL     5     -13.636   9.628  72.562  1.00  0.00    -0.400 OA 
HETATM   37  H   UNL     5     -13.074   7.403  72.755  1.00  0.00     0.000 HD 
ENDBRANCH  29  32
ENDBRANCH  26  29
ENDBRANCH  23  26
ENDBRANCH   7  23
TORSDOF 8
ENDMDL
MODEL      172
REMARK 921   NORMALIZED FREE ENERGY PREDICTED BY IDOCK:   -5.56 KCAL/MOL
REMARK 922        TOTAL FREE ENERGY PREDICTED BY IDOCK:  -10.41 KCAL/MOL
REMARK 923 INTER-LIGAND FREE ENERGY PREDICTED BY IDOCK:   -7.83 KCAL/MOL
REMARK 924 INTRA-LIGAND FREE ENERGY PREDICTED BY IDOCK:   -2.57 KCAL/MOL
REMARK 927      BINDING AFFINITY PREDICTED BY RF-SCORE:    0.00 PKD
ROOT
HETATM    1 MG   UNL     3      -8.756  10.665  70.046  1.00  0.00    -0.280 Mg 
HETATM    2  O   UNL     4     -12.476   6.251  72.324  1.00  0.00    -0.527 OA 
HETATM    3  C   UNL     4     -12.136   7.097  71.243  1.00  0.00    -0.348 C  
HETATM    4  H   UNL     4     -12.205   5.350  72.189  1.00  0.00     0.000 HD 
HETATM    5  O   UNL     5      -9.639  18.190  68.702  1.00  0.00    -0.318 OA 
HETATM    6  H   UNL     5      -9.408  18.711  69.462  1.00  0.00     0.000 HD 
HETATM    7  C   UNL     5     -10.524  17.123  69.040  1.00  0.00    -0.321 C  
ENDROOT
BRANCH   3   8
HETATM    8  C   UNL     4     -12.575   8.552  71.460  1.00  0.00    -0.316 C  
HETATM    9  O   UNL     4     -13.287   8.661  72.707  1.00  0.00    -0.658 OA 
HETATM   10  H   UNL     4     -13.559   9.562  72.841  1.00  0.00     0.000 HD 
BRANCH   8  11
HETATM   11  C   UNL     4     -11.491   9.669  71.472  1.00  0.00    -0.369 C  
HETATM   12  O   UNL     4     -10.177   9.176  71.715  1.00  0.00    -0.338 OA 
HETATM   13  H   UNL     4      -9.516   9.858  71.722  1.00  0.00     0.000 HD 
BRANCH  11  14
HETATM   14  C   UNL     4     -11.501  10.707  70.318  1.00  0.00    -0.337 C  
HETATM   15  H   UNL     4     -12.426  12.399  70.004  1.00  0.00     0.000 HD 
HETATM   16  O   UNL     4     -12.419  11.764  70.710  1.00  0.00    -0.357 OA 
BRANCH  14  17
HETATM   17  C   UNL     4     -11.787  10.248  68.859  1.00  0.00     0.127 C  
HETATM   18  C   UNL     4     -10.580   9.441  68.225  1.00  0.00    -0.210 C  
HETATM   19  H   UNL     4     -12.460  11.040  67.151  1.00  0.00     0.000 HD 
HETATM   20  O   UNL     4     -12.285  11.320  68.042  1.00  0.00    -0.621 OA 
HETATM   21  O   UNL     4      -9.978   8.651  69.068  1.00  0.00    -0.182 OA 
HETATM   22  O   UNL     4     -10.246   9.680  67.032  1.00  0.00    -0.215 OA 
ENDBRANCH  14  17
ENDBRANCH  11  14
ENDBRANCH   8  11
ENDBRANCH   3   8
BRANCH   7  23
HETATM   23  C   UNL     5     -10.898  16.277  67.807  1.00  0.00    -0.315 C  
HETATM   24  O   UNL     5      -9.968  16.571  66.763  1.00  0.00    -0.256 OA 
HETATM   25  H   UNL     5     -10.199  16.050  66.003  1.00  0.00     0.000 HD 
BRANCH  23  26
HETATM   26  C   UNL     5     -10.911  14.768  68.132  1.00  0.00    -0.268 C  
HETATM   27  O   UNL     5     -12.249  14.250  67.950  1.00  0.00    -0.573 OA 
HETATM   28  H   UNL     5     -12.257  13.321  68.150  1.00  0.00     0.000 HD 
BRANCH  26  29
HETATM   29  C   UNL     5      -9.879  13.859  67.408  1.00  0.00    -0.237 C  
HETATM   30  O   UNL     5     -10.492  12.890  66.557  1.00  0.00    -0.259 OA 
HETATM   31  H   UNL     5      -9.861  12.335  66.114  1.00  0.00     0.000 HD 
BRANCH  29  32
HETATM   32  C   UNL     5      -8.757  13.233  68.251  1.00  0.00    -0.168 C  
HETATM   33  C   UNL     5      -7.351  13.842  68.066  1.00  0.00    -0.141 C  
HETATM   34  O   UNL     5      -8.709  11.776  68.043  1.00  0.00    -0.152 OA 
HETATM   35  O   UNL     5      -7.287  15.087  67.839  1.00  0.00    -0.116 OA 
HETATM   36  O   UNL     5      -6.409  12.973  68.100  1.00  0.00    -0.078 OA 
HETATM   37  H   UNL     5      -8.015  11.389  68.564  1.00  0.00     0.000 HD 
ENDBRANCH  29  32
ENDBRANCH  26  29
ENDBRANCH  23  26
ENDBRANCH   7  23
TORSDOF 8
ENDMDL
MODEL      173
REMARK 921   NORMALIZED FREE ENERGY PREDICTED BY IDOCK:   -5.56 KCAL/MOL
REMARK 922        TOTAL FREE ENERGY PREDICTED BY IDOCK:  -10.40 KCAL/MOL
REMARK 923 INTER-LIGAND FREE ENERGY PREDICTED BY IDOCK:   -8.72 KCAL/MOL
REMARK 924 INTRA-LIGAND FREE ENERGY PREDICTED BY IDOCK:   -1.68 KCAL/MOL
REMARK 927      BINDING AFFINITY PREDICTED BY RF-SCORE:    0.00 PKD
ROOT
HETATM    1 MG   UNL     3     -11.938  13.506  70.032  1.00  0.00    -0.237 Mg 
HETATM    2  O   UNL     4     -12.324  14.684  63.951  1.00  0.00    -0.962 OA 
HETATM    3  C   UNL     4     -12.863  14.037  65.088  1.00  0.00    -0.334 C  
HETATM    4  H   UNL     4     -12.818  15.454  63.694  1.00  0.00     0.000 HD 
HETATM    5  O   UNL     5      -9.841   7.341  74.131  1.00  0.00    -0.397 OA 
HETATM    6  H   UNL     5      -8.907   7.337  74.306  1.00  0.00     0.000 HD 
HETATM    7  C   UNL     5     -10.120   7.578  72.752  1.00  0.00    -0.240 C  
ENDROOT
BRANCH   3   8
HETATM    8  C   UNL     4     -12.064  12.792  65.502  1.00  0.00    -0.465 C  
HETATM    9  O   UNL     4     -10.814  12.758  64.787  1.00  0.00    -0.284 OA 
HETATM   10  H   UNL     4     -10.320  11.988  65.043  1.00  0.00     0.000 HD 
BRANCH   8  11
HETATM   11  C   UNL     4     -11.716  12.591  67.006  1.00  0.00    -0.367 C  
HETATM   12  O   UNL     4     -11.723  11.225  67.407  1.00  0.00    -0.580 OA 
HETATM   13  H   UNL     4     -11.511  11.102  68.325  1.00  0.00     0.000 HD 
BRANCH  11  14
HETATM   14  C   UNL     4     -10.483  13.342  67.576  1.00  0.00    -0.236 C  
HETATM   15  H   UNL     4      -9.295  13.068  69.103  1.00  0.00     0.000 HD 
HETATM   16  O   UNL     4     -10.049  12.608  68.754  1.00  0.00    -0.165 OA 
BRANCH  14  17
HETATM   17  C   UNL     4     -10.570  14.865  67.882  1.00  0.00    -0.254 C  
HETATM   18  C   UNL     4      -9.772  15.745  66.832  1.00  0.00    -0.230 C  
HETATM   19  H   UNL     4     -10.328  16.089  69.443  1.00  0.00     0.000 HD 
HETATM   20  O   UNL     4     -10.274  15.159  69.256  1.00  0.00    -0.232 OA 
HETATM   21  O   UNL     4      -9.853  15.303  65.610  1.00  0.00    -0.333 OA 
HETATM   22  O   UNL     4      -9.074  16.709  67.250  1.00  0.00    -0.211 OA 
ENDBRANCH  14  17
ENDBRANCH  11  14
ENDBRANCH   8  11
ENDBRANCH   3   8
BRANCH   7  23
HETATM   23  C   UNL     5     -11.636   7.583  72.468  1.00  0.00    -0.303 C  
HETATM   24  O   UNL     5     -12.077   8.941  72.414  1.00  0.00    -0.349 OA 
HETATM   25  H   UNL     5     -13.010   8.945  72.240  1.00  0.00     0.000 HD 
BRANCH  23  26
HETATM   26  C   UNL     5     -11.974   6.836  71.159  1.00  0.00    -0.370 C  
HETATM   27  O   UNL     5     -13.295   7.222  70.716  1.00  0.00    -0.592 OA 
HETATM   28  H   UNL     5     -13.503   6.762  69.910  1.00  0.00     0.000 HD 
BRANCH  26  29
HETATM   29  C   UNL     5     -10.962   6.933  69.984  1.00  0.00    -0.279 C  
HETATM   30  O   UNL     5     -11.162   8.090  69.172  1.00  0.00    -0.424 OA 
HETATM   31  H   UNL     5     -10.543   8.149  68.453  1.00  0.00     0.000 HD 
BRANCH  29  32
HETATM   32  C   UNL     5     -10.736   5.678  69.125  1.00  0.00    -0.255 C  
HETATM   33  C   UNL     5      -9.594   4.745  69.578  1.00  0.00    -0.179 C  
HETATM   34  O   UNL     5     -10.559   6.048  67.711  1.00  0.00    -0.212 OA 
HETATM   35  O   UNL     5      -9.390   4.645  70.824  1.00  0.00    -0.131 OA 
HETATM   36  O   UNL     5      -8.938   4.231  68.603  1.00  0.00    -0.101 OA 
HETATM   37  H   UNL     5     -10.419   5.273  67.180  1.00  0.00     0.000 HD 
ENDBRANCH  29  32
ENDBRANCH  26  29
ENDBRANCH  23  26
ENDBRANCH   7  23
TORSDOF 8
ENDMDL
MODEL      174
REMARK 921   NORMALIZED FREE ENERGY PREDICTED BY IDOCK:   -5.54 KCAL/MOL
REMARK 922        TOTAL FREE ENERGY PREDICTED BY IDOCK:  -10.38 KCAL/MOL
REMARK 923 INTER-LIGAND FREE ENERGY PREDICTED BY IDOCK:   -8.07 KCAL/MOL
REMARK 924 INTRA-LIGAND FREE ENERGY PREDICTED BY IDOCK:   -2.31 KCAL/MOL
REMARK 927      BINDING AFFINITY PREDICTED BY RF-SCORE:    0.00 PKD
ROOT
HETATM    1 MG   UNL     3      -9.544   8.904  71.757  1.00  0.00    -0.161 Mg 
HETATM    2  O   UNL     4      -9.110   3.340  69.042  1.00  0.00    -0.117 OA 
HETATM    3  C   UNL     4      -8.626   4.665  69.155  1.00  0.00    -0.079 C  
HETATM    4  H   UNL     4      -8.544   2.702  69.461  1.00  0.00     0.000 HD 
HETATM    5  O   UNL     5     -12.203  15.749  69.456  1.00  0.00    -0.471 OA 
HETATM    6  H   UNL     5     -13.130  15.844  69.638  1.00  0.00     0.000 HD 
HETATM    7  C   UNL     5     -11.916  14.514  68.800  1.00  0.00    -0.280 C  
ENDROOT
BRANCH   3   8
HETATM    8  C   UNL     4      -9.540   5.696  68.478  1.00  0.00    -0.130 C  
HETATM    9  O   UNL     4     -10.476   6.219  69.440  1.00  0.00    -0.198 OA 
HETATM   10  H   UNL     4     -11.042   6.856  69.020  1.00  0.00     0.000 HD 
BRANCH   8  11
HETATM   11  C   UNL     4      -8.894   6.926  67.777  1.00  0.00    -0.119 C  
HETATM   12  O   UNL     4      -9.042   6.909  66.361  1.00  0.00    -0.155 OA 
HETATM   13  H   UNL     4      -8.648   7.660  65.934  1.00  0.00     0.000 HD 
BRANCH  11  14
HETATM   14  C   UNL     4      -9.187   8.334  68.361  1.00  0.00    -0.135 C  
HETATM   15  H   UNL     4      -8.774   9.233  70.045  1.00  0.00     0.000 HD 
HETATM   16  O   UNL     4      -8.595   8.372  69.688  1.00  0.00    -0.129 OA 
BRANCH  14  17
HETATM   17  C   UNL     4     -10.645   8.876  68.397  1.00  0.00    -0.143 C  
HETATM   18  C   UNL     4     -10.910   9.987  67.298  1.00  0.00    -0.217 C  
HETATM   19  H   UNL     4     -11.946   9.568  69.748  1.00  0.00     0.000 HD 
HETATM   20  O   UNL     4     -11.055   9.238  69.725  1.00  0.00    -0.227 OA 
HETATM   21  O   UNL     4     -10.311   9.757  66.165  1.00  0.00    -0.231 OA 
HETATM   22  O   UNL     4     -11.575  11.012  67.615  1.00  0.00    -0.526 OA 
ENDBRANCH  14  17
ENDBRANCH  11  14
ENDBRANCH   8  11
ENDBRANCH   3   8
BRANCH   7  23
HETATM   23  C   UNL     5     -10.411  14.360  68.503  1.00  0.00    -0.248 C  
HETATM   24  O   UNL     5     -10.012  13.041  68.882  1.00  0.00    -0.417 OA 
HETATM   25  H   UNL     5      -9.085  12.946  68.699  1.00  0.00     0.000 HD 
BRANCH  23  26
HETATM   26  C   UNL     5     -10.090  14.634  67.018  1.00  0.00    -0.249 C  
HETATM   27  O   UNL     5      -8.737  15.131  66.903  1.00  0.00    -0.225 OA 
HETATM   28  H   UNL     5      -8.540  15.299  65.989  1.00  0.00     0.000 HD 
BRANCH  26  29
HETATM   29  C   UNL     5     -10.330  13.485  65.998  1.00  0.00    -0.303 C  
HETATM   30  O   UNL     5      -9.270  12.529  65.980  1.00  0.00    -0.407 OA 
HETATM   31  H   UNL     5      -9.416  11.827  65.357  1.00  0.00     0.000 HD 
BRANCH  29  32
HETATM   32  C   UNL     5     -10.765  13.867  64.574  1.00  0.00    -0.366 C  
HETATM   33  C   UNL     5     -12.278  13.783  64.284  1.00  0.00    -0.400 C  
HETATM   34  O   UNL     5     -10.013  13.084  63.580  1.00  0.00    -0.650 OA 
HETATM   35  O   UNL     5     -13.065  14.072  65.233  1.00  0.00    -0.782 OA 
HETATM   36  O   UNL     5     -12.549  13.353  63.106  1.00  0.00    -0.710 OA 
HETATM   37  H   UNL     5     -10.282  13.319  62.700  1.00  0.00     0.000 HD 
ENDBRANCH  29  32
ENDBRANCH  26  29
ENDBRANCH  23  26
ENDBRANCH   7  23
TORSDOF 8
ENDMDL
MODEL      175
REMARK 921   NORMALIZED FREE ENERGY PREDICTED BY IDOCK:   -5.54 KCAL/MOL
REMARK 922        TOTAL FREE ENERGY PREDICTED BY IDOCK:  -10.37 KCAL/MOL
REMARK 923 INTER-LIGAND FREE ENERGY PREDICTED BY IDOCK:   -7.55 KCAL/MOL
REMARK 924 INTRA-LIGAND FREE ENERGY PREDICTED BY IDOCK:   -2.82 KCAL/MOL
REMARK 927      BINDING AFFINITY PREDICTED BY RF-SCORE:    0.00 PKD
ROOT
HETATM    1 MG   UNL     3      -8.214  11.074  69.904  1.00  0.00    -0.307 Mg 
HETATM    2  O   UNL     4      -7.948   5.833  73.218  1.00  0.00    -0.109 OA 
HETATM    3  C   UNL     4      -7.734   6.487  71.982  1.00  0.00    -0.098 C  
HETATM    4  H   UNL     4      -7.142   5.667  73.694  1.00  0.00     0.000 HD 
HETATM    5  O   UNL     5     -12.899  13.627  64.360  1.00  0.00    -0.638 OA 
HETATM    6  H   UNL     5     -13.648  14.089  64.719  1.00  0.00     0.000 HD 
HETATM    7  C   UNL     5     -12.698  12.367  64.999  1.00  0.00    -0.083 C  
ENDROOT
BRANCH   3   8
HETATM    8  C   UNL     4      -9.036   6.755  71.213  1.00  0.00    -0.150 C  
HETATM    9  O   UNL     4      -9.571   5.512  70.719  1.00  0.00    -0.160 OA 
HETATM   10  H   UNL     4     -10.377   5.678  70.243  1.00  0.00     0.000 HD 
BRANCH   8  11
HETATM   11  C   UNL     4     -10.205   7.477  71.945  1.00  0.00    -0.188 C  
HETATM   12  O   UNL     4      -9.777   8.249  73.063  1.00  0.00    -0.269 OA 
HETATM   13  H   UNL     4     -10.490   8.690  73.509  1.00  0.00     0.000 HD 
BRANCH  11  14
HETATM   14  C   UNL     4     -11.236   8.254  71.082  1.00  0.00    -0.258 C  
HETATM   15  H   UNL     4     -12.351   7.803  69.542  1.00  0.00     0.000 HD 
HETATM   16  O   UNL     4     -11.720   7.328  70.070  1.00  0.00    -0.127 OA 
BRANCH  14  17
HETATM   17  C   UNL     4     -10.846   9.614  70.437  1.00  0.00    -0.295 C  
HETATM   18  C   UNL     4     -12.029  10.668  70.475  1.00  0.00    -0.352 C  
HETATM   19  H   UNL     4      -9.997  10.278  68.754  1.00  0.00     0.000 HD 
HETATM   20  O   UNL     4     -10.235   9.447  69.148  1.00  0.00    -0.187 OA 
HETATM   21  O   UNL     4     -12.735  10.625  71.569  1.00  0.00    -0.391 OA 
HETATM   22  O   UNL     4     -12.250  11.376  69.453  1.00  0.00    -0.297 OA 
ENDBRANCH  14  17
ENDBRANCH  11  14
ENDBRANCH   8  11
ENDBRANCH   3   8
BRANCH   7  23
HETATM   23  C   UNL     5     -11.483  11.618  64.416  1.00  0.00    -0.224 C  
HETATM   24  O   UNL     5     -11.696  11.440  63.014  1.00  0.00    -0.887 OA 
HETATM   25  H   UNL     5     -10.947  10.979  62.655  1.00  0.00     0.000 HD 
BRANCH  23  26
HETATM   26  C   UNL     5     -10.163  12.373  64.687  1.00  0.00    -0.287 C  
HETATM   27  O   UNL     5     -10.224  13.680  64.073  1.00  0.00    -0.701 OA 
HETATM   28  H   UNL     5      -9.412  14.144  64.240  1.00  0.00     0.000 HD 
BRANCH  26  29
HETATM   29  C   UNL     5      -9.682  12.492  66.160  1.00  0.00    -0.254 C  
HETATM   30  O   UNL     5     -10.364  11.599  67.041  1.00  0.00    -0.208 OA 
HETATM   31  H   UNL     5     -10.070  11.671  67.942  1.00  0.00     0.000 HD 
BRANCH  29  32
HETATM   32  C   UNL     5      -9.568  13.899  66.768  1.00  0.00    -0.283 C  
HETATM   33  C   UNL     5      -9.121  13.965  68.243  1.00  0.00    -0.191 C  
HETATM   34  O   UNL     5     -10.826  14.642  66.585  1.00  0.00    -0.300 OA 
HETATM   35  O   UNL     5      -8.293  13.090  68.635  1.00  0.00    -0.094 OA 
HETATM   36  O   UNL     5      -9.715  14.881  68.916  1.00  0.00    -0.214 OA 
HETATM   37  H   UNL     5     -10.756  15.511  66.961  1.00  0.00     0.000 HD 
ENDBRANCH  29  32
ENDBRANCH  26  29
ENDBRANCH  23  26
ENDBRANCH   7  23
TORSDOF 8
ENDMDL
MODEL      176
REMARK 921   NORMALIZED FREE ENERGY PREDICTED BY IDOCK:   -5.52 KCAL/MOL
REMARK 922        TOTAL FREE ENERGY PREDICTED BY IDOCK:  -10.35 KCAL/MOL
REMARK 923 INTER-LIGAND FREE ENERGY PREDICTED BY IDOCK:   -8.26 KCAL/MOL
REMARK 924 INTRA-LIGAND FREE ENERGY PREDICTED BY IDOCK:   -2.09 KCAL/MOL
REMARK 927      BINDING AFFINITY PREDICTED BY RF-SCORE:    0.00 PKD
ROOT
HETATM    1 MG   UNL     3      -9.745  11.286  64.382  1.00  0.00    -0.199 Mg 
HETATM    2  O   UNL     4      -9.915   6.267  68.029  1.00  0.00    -0.127 OA 
HETATM    3  C   UNL     4     -10.541   7.458  67.592  1.00  0.00    -0.239 C  
HETATM    4  H   UNL     4     -10.311   5.485  67.663  1.00  0.00     0.000 HD 
HETATM    5  O   UNL     5      -8.445  18.759  65.679  1.00  0.00    -0.347 OA 
HETATM    6  H   UNL     5      -7.521  18.969  65.620  1.00  0.00     0.000 HD 
HETATM    7  C   UNL     5      -8.678  17.624  66.513  1.00  0.00    -0.263 C  
ENDROOT
BRANCH   3   8
HETATM    8  C   UNL     4      -9.901   8.723  68.184  1.00  0.00    -0.168 C  
HETATM    9  O   UNL     4      -9.310   9.505  67.129  1.00  0.00    -0.139 OA 
HETATM   10  H   UNL     4      -8.913  10.287  67.496  1.00  0.00     0.000 HD 
BRANCH   8  11
HETATM   11  C   UNL     4     -10.790   9.697  69.011  1.00  0.00    -0.183 C  
HETATM   12  O   UNL     4     -11.876  10.238  68.266  1.00  0.00    -0.734 OA 
HETATM   13  H   UNL     4     -12.418  10.832  68.771  1.00  0.00     0.000 HD 
BRANCH  11  14
HETATM   14  C   UNL     4     -11.243   9.247  70.426  1.00  0.00    -0.247 C  
HETATM   15  H   UNL     4     -11.952  10.168  71.996  1.00  0.00     0.000 HD 
HETATM   16  O   UNL     4     -11.675  10.443  71.130  1.00  0.00    -0.352 OA 
BRANCH  14  17
HETATM   17  C   UNL     4     -10.288   8.402  71.318  1.00  0.00    -0.214 C  
HETATM   18  C   UNL     4     -11.050   7.658  72.492  1.00  0.00    -0.336 C  
HETATM   19  H   UNL     4      -8.550   8.633  72.278  1.00  0.00     0.000 HD 
HETATM   20  O   UNL     4      -9.133   9.148  71.733  1.00  0.00    -0.346 OA 
HETATM   21  O   UNL     4     -12.222   7.204  72.151  1.00  0.00    -0.284 OA 
HETATM   22  O   UNL     4     -10.531   7.641  73.643  1.00  0.00    -0.316 OA 
ENDBRANCH  14  17
ENDBRANCH  11  14
ENDBRANCH   8  11
ENDBRANCH   3   8
BRANCH   7  23
HETATM   23  C   UNL     5     -10.179  17.283  66.608  1.00  0.00    -0.319 C  
HETATM   24  O   UNL     5     -10.660  17.006  65.292  1.00  0.00    -0.647 OA 
HETATM   25  H   UNL     5     -11.585  16.796  65.351  1.00  0.00     0.000 HD 
BRANCH  23  26
HETATM   26  C   UNL     5     -10.434  16.091  67.556  1.00  0.00    -0.297 C  
HETATM   27  O   UNL     5     -10.777  16.588  68.870  1.00  0.00    -0.294 OA 
HETATM   28  H   UNL     5     -10.934  15.854  69.453  1.00  0.00     0.000 HD 
BRANCH  26  29
HETATM   29  C   UNL     5     -11.456  15.010  67.106  1.00  0.00    -0.297 C  
HETATM   30  O   UNL     5     -12.408  14.689  68.120  1.00  0.00    -0.598 OA 
HETATM   31  H   UNL     5     -13.034  14.028  67.845  1.00  0.00     0.000 HD 
BRANCH  29  32
HETATM   32  C   UNL     5     -10.911  13.742  66.429  1.00  0.00    -0.287 C  
HETATM   33  C   UNL     5      -9.929  12.896  67.268  1.00  0.00    -0.224 C  
HETATM   34  O   UNL     5     -10.311  14.072  65.126  1.00  0.00    -0.362 OA 
HETATM   35  O   UNL     5     -10.126  12.853  68.518  1.00  0.00    -0.233 OA 
HETATM   36  O   UNL     5      -8.974  12.390  66.578  1.00  0.00    -0.207 OA 
HETATM   37  H   UNL     5      -9.973  13.289  64.708  1.00  0.00     0.000 HD 
ENDBRANCH  29  32
ENDBRANCH  26  29
ENDBRANCH  23  26
ENDBRANCH   7  23
TORSDOF 8
ENDMDL
MODEL      177
REMARK 921   NORMALIZED FREE ENERGY PREDICTED BY IDOCK:   -5.52 KCAL/MOL
REMARK 922        TOTAL FREE ENERGY PREDICTED BY IDOCK:  -10.34 KCAL/MOL
REMARK 923 INTER-LIGAND FREE ENERGY PREDICTED BY IDOCK:   -8.34 KCAL/MOL
REMARK 924 INTRA-LIGAND FREE ENERGY PREDICTED BY IDOCK:   -2.01 KCAL/MOL
REMARK 927      BINDING AFFINITY PREDICTED BY RF-SCORE:    0.00 PKD
ROOT
HETATM    1 MG   UNL     3      -8.538  10.942  70.293  1.00  0.00    -0.350 Mg 
HETATM    2  O   UNL     4     -11.155  14.847  66.240  1.00  0.00    -0.335 OA 
HETATM    3  C   UNL     4     -11.299  14.019  67.378  1.00  0.00    -0.329 C  
HETATM    4  H   UNL     4     -11.125  15.772  66.456  1.00  0.00     0.000 HD 
HETATM    5  O   UNL     5      -8.883   3.323  71.317  1.00  0.00    -0.078 OA 
HETATM    6  H   UNL     5      -8.222   2.871  70.806  1.00  0.00     0.000 HD 
HETATM    7  C   UNL     5      -9.612   4.261  70.526  1.00  0.00    -0.197 C  
ENDROOT
BRANCH   3   8
HETATM    8  C   UNL     4     -11.347  12.524  67.029  1.00  0.00    -0.328 C  
HETATM    9  O   UNL     4     -12.266  11.851  67.910  1.00  0.00    -0.508 OA 
HETATM   10  H   UNL     4     -12.296  10.926  67.694  1.00  0.00     0.000 HD 
BRANCH   8  11
HETATM   11  C   UNL     4     -11.736  12.104  65.581  1.00  0.00    -0.323 C  
HETATM   12  O   UNL     4     -12.929  12.726  65.116  1.00  0.00    -0.768 OA 
HETATM   13  H   UNL     4     -13.166  12.469  64.232  1.00  0.00     0.000 HD 
BRANCH  11  14
HETATM   14  C   UNL     4     -10.626  12.123  64.495  1.00  0.00    -0.310 C  
HETATM   15  H   UNL     4     -10.374  13.078  62.810  1.00  0.00     0.000 HD 
HETATM   16  O   UNL     4     -11.052  13.067  63.474  1.00  0.00    -0.338 OA 
BRANCH  14  17
HETATM   17  C   UNL     4     -10.149  10.793  63.845  1.00  0.00    -0.333 C  
HETATM   18  C   UNL     4      -9.127   9.999  64.759  1.00  0.00    -0.224 C  
HETATM   19  H   UNL     4      -9.427  10.165  62.090  1.00  0.00     0.000 HD 
HETATM   20  O   UNL     4      -9.719  10.978  62.487  1.00  0.00    -0.226 OA 
HETATM   21  O   UNL     4      -9.405  10.059  66.030  1.00  0.00    -0.156 OA 
HETATM   22  O   UNL     4      -8.114   9.469  64.225  1.00  0.00    -0.125 OA 
ENDBRANCH  14  17
ENDBRANCH  11  14
ENDBRANCH   8  11
ENDBRANCH   3   8
BRANCH   7  23
HETATM   23  C   UNL     5     -10.686   4.995  71.355  1.00  0.00    -0.029 C  
HETATM   24  O   UNL     5     -10.346   4.872  72.737  1.00  0.00    -0.175 OA 
HETATM   25  H   UNL     5     -11.007   5.325  73.247  1.00  0.00     0.000 HD 
BRANCH  23  26
HETATM   26  C   UNL     5     -10.810   6.478  70.942  1.00  0.00    -0.253 C  
HETATM   27  O   UNL     5     -11.923   6.630  70.031  1.00  0.00    -0.630 OA 
HETATM   28  H   UNL     5     -11.999   7.542  69.777  1.00  0.00     0.000 HD 
BRANCH  26  29
HETATM   29  C   UNL     5     -10.890   7.543  72.071  1.00  0.00    -0.233 C  
HETATM   30  O   UNL     5     -12.143   7.535  72.755  1.00  0.00    -0.556 OA 
HETATM   31  H   UNL     5     -12.192   8.186  73.446  1.00  0.00     0.000 HD 
BRANCH  29  32
HETATM   32  C   UNL     5     -10.443   8.976  71.740  1.00  0.00    -0.348 C  
HETATM   33  C   UNL     5     -11.403   9.798  70.855  1.00  0.00    -0.365 C  
HETATM   34  O   UNL     5      -9.092   8.971  71.155  1.00  0.00    -0.226 OA 
HETATM   35  O   UNL     5     -12.644   9.593  71.004  1.00  0.00    -0.312 OA 
HETATM   36  O   UNL     5     -10.800  10.553  70.011  1.00  0.00    -0.279 OA 
HETATM   37  H   UNL     5      -8.815   9.856  70.950  1.00  0.00     0.000 HD 
ENDBRANCH  29  32
ENDBRANCH  26  29
ENDBRANCH  23  26
ENDBRANCH   7  23
TORSDOF 8
ENDMDL
MODEL      178
REMARK 921   NORMALIZED FREE ENERGY PREDICTED BY IDOCK:   -5.52 KCAL/MOL
REMARK 922        TOTAL FREE ENERGY PREDICTED BY IDOCK:  -10.34 KCAL/MOL
REMARK 923 INTER-LIGAND FREE ENERGY PREDICTED BY IDOCK:   -9.12 KCAL/MOL
REMARK 924 INTRA-LIGAND FREE ENERGY PREDICTED BY IDOCK:   -1.22 KCAL/MOL
REMARK 927      BINDING AFFINITY PREDICTED BY RF-SCORE:    0.00 PKD
ROOT
HETATM    1 MG   UNL     3      -8.200   6.492  67.935  1.00  0.00    -0.104 Mg 
HETATM    2  O   UNL     4      -7.003   9.177  62.469  1.00  0.00    -0.094 OA 
HETATM    3  C   UNL     4      -7.182   9.318  63.865  1.00  0.00    -0.098 C  
HETATM    4  H   UNL     4      -6.091   9.224  62.206  1.00  0.00     0.000 HD 
HETATM    5  O   UNL     5     -14.356   6.338  72.548  1.00  0.00    -0.692 OA 
HETATM    6  H   UNL     5     -14.940   5.621  72.330  1.00  0.00     0.000 HD 
HETATM    7  C   UNL     5     -13.989   7.093  71.394  1.00  0.00    -0.255 C  
ENDROOT
BRANCH   3   8
HETATM    8  C   UNL     4      -8.655   9.241  64.291  1.00  0.00    -0.193 C  
HETATM    9  O   UNL     4      -8.824   8.192  65.262  1.00  0.00    -0.351 OA 
HETATM   10  H   UNL     4      -9.736   8.144  65.525  1.00  0.00     0.000 HD 
BRANCH   8  11
HETATM   11  C   UNL     4      -9.330  10.510  64.890  1.00  0.00    -0.232 C  
HETATM   12  O   UNL     4      -8.401  11.426  65.458  1.00  0.00    -0.376 OA 
HETATM   13  H   UNL     4      -8.814  12.200  65.823  1.00  0.00     0.000 HD 
BRANCH  11  14
HETATM   14  C   UNL     4     -10.396  11.242  64.030  1.00  0.00    -0.371 C  
HETATM   15  H   UNL     4     -10.430  11.976  62.220  1.00  0.00     0.000 HD 
HETATM   16  O   UNL     4      -9.778  11.528  62.746  1.00  0.00    -0.340 OA 
BRANCH  14  17
HETATM   17  C   UNL     4     -11.111  12.507  64.586  1.00  0.00    -0.306 C  
HETATM   18  C   UNL     4     -12.400  12.896  63.750  1.00  0.00    -0.417 C  
HETATM   19  H   UNL     4     -10.633  14.363  65.154  1.00  0.00     0.000 HD 
HETATM   20  O   UNL     4     -10.196  13.590  64.814  1.00  0.00    -0.379 OA 
HETATM   21  O   UNL     4     -13.085  11.869  63.335  1.00  0.00    -0.710 OA 
HETATM   22  O   UNL     4     -12.608  14.111  63.480  1.00  0.00    -0.834 OA 
ENDBRANCH  14  17
ENDBRANCH  11  14
ENDBRANCH   8  11
ENDBRANCH   3   8
BRANCH   7  23
HETATM   23  C   UNL     5     -13.041   8.256  71.749  1.00  0.00    -0.344 C  
HETATM   24  O   UNL     5     -13.592   8.958  72.865  1.00  0.00    -0.824 OA 
HETATM   25  H   UNL     5     -13.008   9.674  73.084  1.00  0.00     0.000 HD 
BRANCH  23  26
HETATM   26  C   UNL     5     -11.613   7.755  72.057  1.00  0.00    -0.300 C  
HETATM   27  O   UNL     5     -11.685   6.611  72.938  1.00  0.00    -0.485 OA 
HETATM   28  H   UNL     5     -10.807   6.304  73.127  1.00  0.00     0.000 HD 
BRANCH  26  29
HETATM   29  C   UNL     5     -10.674   7.451  70.856  1.00  0.00    -0.235 C  
HETATM   30  O   UNL     5     -11.128   8.034  69.635  1.00  0.00    -0.422 OA 
HETATM   31  H   UNL     5     -10.554   7.848  68.900  1.00  0.00     0.000 HD 
BRANCH  29  32
HETATM   32  C   UNL     5     -10.221   5.997  70.648  1.00  0.00    -0.205 C  
HETATM   33  C   UNL     5      -8.719   5.791  70.359  1.00  0.00    -0.134 C  
HETATM   34  O   UNL     5     -11.032   5.350  69.604  1.00  0.00    -0.232 OA 
HETATM   35  O   UNL     5      -7.908   6.581  70.927  1.00  0.00    -0.102 OA 
HETATM   36  O   UNL     5      -8.487   4.865  69.503  1.00  0.00    -0.082 OA 
HETATM   37  H   UNL     5     -10.753   4.451  69.476  1.00  0.00     0.000 HD 
ENDBRANCH  29  32
ENDBRANCH  26  29
ENDBRANCH  23  26
ENDBRANCH   7  23
TORSDOF 8
ENDMDL
MODEL      179
REMARK 921   NORMALIZED FREE ENERGY PREDICTED BY IDOCK:   -5.51 KCAL/MOL
REMARK 922        TOTAL FREE ENERGY PREDICTED BY IDOCK:  -10.34 KCAL/MOL
REMARK 923 INTER-LIGAND FREE ENERGY PREDICTED BY IDOCK:   -8.16 KCAL/MOL
REMARK 924 INTRA-LIGAND FREE ENERGY PREDICTED BY IDOCK:   -2.18 KCAL/MOL
REMARK 927      BINDING AFFINITY PREDICTED BY RF-SCORE:    0.00 PKD
ROOT
HETATM    1 MG   UNL     3     -13.647  14.269  70.720  1.00  0.00    -0.353 Mg 
HETATM    2  O   UNL     4     -12.931   8.164  71.575  1.00  0.00    -0.318 OA 
HETATM    3  C   UNL     4     -12.392   9.466  71.694  1.00  0.00    -0.385 C  
HETATM    4  H   UNL     4     -13.230   7.809  72.404  1.00  0.00     0.000 HD 
HETATM    5  O   UNL     5     -10.752  19.306  65.674  1.00  0.00    -0.458 OA 
HETATM    6  H   UNL     5     -11.289  19.368  64.893  1.00  0.00     0.000 HD 
HETATM    7  C   UNL     5     -10.463  17.950  66.012  1.00  0.00    -0.293 C  
ENDROOT
BRANCH   3   8
HETATM    8  C   UNL     4     -11.909  10.039  70.353  1.00  0.00    -0.262 C  
HETATM    9  O   UNL     4     -11.424  11.381  70.547  1.00  0.00    -0.475 OA 
HETATM   10  H   UNL     4     -11.125  11.735  69.717  1.00  0.00     0.000 HD 
BRANCH   8  11
HETATM   11  C   UNL     4     -10.800   9.278  69.568  1.00  0.00    -0.195 C  
HETATM   12  O   UNL     4     -11.032   9.237  68.164  1.00  0.00    -0.461 OA 
HETATM   13  H   UNL     4     -10.356   8.773  67.686  1.00  0.00     0.000 HD 
BRANCH  11  14
HETATM   14  C   UNL     4      -9.319   9.615  69.889  1.00  0.00    -0.228 C  
HETATM   15  H   UNL     4      -7.914  10.621  68.978  1.00  0.00     0.000 HD 
HETATM   16  O   UNL     4      -8.820  10.415  68.782  1.00  0.00    -0.139 OA 
BRANCH  14  17
HETATM   17  C   UNL     4      -8.317   8.476  70.235  1.00  0.00    -0.125 C  
HETATM   18  C   UNL     4      -7.936   8.446  71.773  1.00  0.00    -0.133 C  
HETATM   19  H   UNL     4      -6.583   7.757  69.550  1.00  0.00     0.000 HD 
HETATM   20  O   UNL     4      -7.194   8.452  69.339  1.00  0.00    -0.057 OA 
HETATM   21  O   UNL     4      -8.932   8.723  72.565  1.00  0.00    -0.386 OA 
HETATM   22  O   UNL     4      -6.732   8.256  72.100  1.00  0.00    -0.069 OA 
ENDBRANCH  14  17
ENDBRANCH  11  14
ENDBRANCH   8  11
ENDBRANCH   3   8
BRANCH   7  23
HETATM   23  C   UNL     5      -9.591  17.850  67.280  1.00  0.00    -0.273 C  
HETATM   24  O   UNL     5     -10.051  18.825  68.218  1.00  0.00    -0.349 OA 
HETATM   25  H   UNL     5      -9.514  18.764  68.999  1.00  0.00     0.000 HD 
BRANCH  23  26
HETATM   26  C   UNL     5      -9.629  16.432  67.889  1.00  0.00    -0.228 C  
HETATM   27  O   UNL     5      -9.416  16.517  69.317  1.00  0.00    -0.238 OA 
HETATM   28  H   UNL     5      -9.439  15.644  69.691  1.00  0.00     0.000 HD 
BRANCH  26  29
HETATM   29  C   UNL     5     -10.864  15.540  67.582  1.00  0.00    -0.306 C  
HETATM   30  O   UNL     5     -11.977  15.822  68.429  1.00  0.00    -0.455 OA 
HETATM   31  H   UNL     5     -12.733  15.277  68.241  1.00  0.00     0.000 HD 
BRANCH  29  32
HETATM   32  C   UNL     5     -10.640  14.026  67.436  1.00  0.00    -0.278 C  
HETATM   33  C   UNL     5     -11.862  13.202  66.979  1.00  0.00    -0.379 C  
HETATM   34  O   UNL     5     -10.088  13.466  68.681  1.00  0.00    -0.304 OA 
HETATM   35  O   UNL     5     -12.660  13.756  66.165  1.00  0.00    -0.438 OA 
HETATM   36  O   UNL     5     -11.949  12.058  67.550  1.00  0.00    -0.572 OA 
HETATM   37  H   UNL     5      -9.949  12.531  68.591  1.00  0.00     0.000 HD 
ENDBRANCH  29  32
ENDBRANCH  26  29
ENDBRANCH  23  26
ENDBRANCH   7  23
TORSDOF 8
ENDMDL
MODEL      180
REMARK 921   NORMALIZED FREE ENERGY PREDICTED BY IDOCK:   -5.49 KCAL/MOL
REMARK 922        TOTAL FREE ENERGY PREDICTED BY IDOCK:  -10.31 KCAL/MOL
REMARK 923 INTER-LIGAND FREE ENERGY PREDICTED BY IDOCK:   -8.51 KCAL/MOL
REMARK 924 INTRA-LIGAND FREE ENERGY PREDICTED BY IDOCK:   -1.79 KCAL/MOL
REMARK 927      BINDING AFFINITY PREDICTED BY RF-SCORE:    0.00 PKD
ROOT
HETATM    1 MG   UNL     3     -10.947  13.533  68.968  1.00  0.00    -0.212 Mg 
HETATM    2  O   UNL     4     -10.298   8.002  66.229  1.00  0.00    -0.461 OA 
HETATM    3  C   UNL     4      -9.684   9.135  66.812  1.00  0.00    -0.210 C  
HETATM    4  H   UNL     4     -10.287   7.241  66.798  1.00  0.00     0.000 HD 
HETATM    5  O   UNL     5      -9.864  20.784  66.630  1.00  0.00    -0.622 OA 
HETATM    6  H   UNL     5     -10.649  21.145  66.235  1.00  0.00     0.000 HD 
HETATM    7  C   UNL     5      -9.544  19.500  66.094  1.00  0.00    -0.362 C  
ENDROOT
BRANCH   3   8
HETATM    8  C   UNL     4      -9.702  10.365  65.892  1.00  0.00    -0.217 C  
HETATM    9  O   UNL     4     -10.250  10.003  64.611  1.00  0.00    -0.335 OA 
HETATM   10  H   UNL     4     -10.262  10.764  64.042  1.00  0.00     0.000 HD 
BRANCH   8  11
HETATM   11  C   UNL     4     -10.469  11.638  66.357  1.00  0.00    -0.244 C  
HETATM   12  O   UNL     4     -10.363  11.879  67.756  1.00  0.00    -0.192 OA 
HETATM   13  H   UNL     4     -10.831  12.656  68.039  1.00  0.00     0.000 HD 
BRANCH  11  14
HETATM   14  C   UNL     4     -10.276  12.944  65.540  1.00  0.00    -0.287 C  
HETATM   15  H   UNL     4     -10.629  14.836  65.875  1.00  0.00     0.000 HD 
HETATM   16  O   UNL     4     -10.747  14.037  66.375  1.00  0.00    -0.276 OA 
BRANCH  14  17
HETATM   17  C   UNL     4     -10.863  13.060  64.104  1.00  0.00    -0.405 C  
HETATM   18  C   UNL     4     -12.398  12.670  64.040  1.00  0.00    -0.443 C  
HETATM   19  H   UNL     4     -10.397  12.477  62.250  1.00  0.00     0.000 HD 
HETATM   20  O   UNL     4     -10.039  12.405  63.127  1.00  0.00    -0.359 OA 
HETATM   21  O   UNL     4     -13.083  13.063  65.075  1.00  0.00    -0.761 OA 
HETATM   22  O   UNL     4     -12.808  11.960  63.081  1.00  0.00    -0.636 OA 
ENDBRANCH  14  17
ENDBRANCH  11  14
ENDBRANCH   8  11
ENDBRANCH   3   8
BRANCH   7  23
HETATM   23  C   UNL     5      -8.271  18.914  66.735  1.00  0.00    -0.279 C  
HETATM   24  O   UNL     5      -7.954  19.689  67.892  1.00  0.00    -0.287 OA 
HETATM   25  H   UNL     5      -7.169  19.328  68.287  1.00  0.00     0.000 HD 
BRANCH  23  26
HETATM   26  C   UNL     5      -8.448  17.423  67.096  1.00  0.00    -0.211 C  
HETATM   27  O   UNL     5      -8.858  16.690  65.919  1.00  0.00    -0.486 OA 
HETATM   28  H   UNL     5      -8.967  15.773  66.141  1.00  0.00     0.000 HD 
BRANCH  26  29
HETATM   29  C   UNL     5      -7.265  16.698  67.796  1.00  0.00    -0.138 C  
HETATM   30  O   UNL     5      -6.028  17.397  67.662  1.00  0.00    -0.131 OA 
HETATM   31  H   UNL     5      -5.304  16.954  68.090  1.00  0.00     0.000 HD 
BRANCH  29  32
HETATM   32  C   UNL     5      -7.089  15.193  67.536  1.00  0.00    -0.198 C  
HETATM   33  C   UNL     5      -7.875  14.249  68.470  1.00  0.00    -0.143 C  
HETATM   34  O   UNL     5      -5.661  14.835  67.537  1.00  0.00    -0.334 OA 
HETATM   35  O   UNL     5      -9.010  14.644  68.869  1.00  0.00    -0.181 OA 
HETATM   36  O   UNL     5      -7.228  13.187  68.784  1.00  0.00    -0.102 OA 
HETATM   37  H   UNL     5      -5.552  13.905  67.377  1.00  0.00     0.000 HD 
ENDBRANCH  29  32
ENDBRANCH  26  29
ENDBRANCH  23  26
ENDBRANCH   7  23
TORSDOF 8
ENDMDL
MODEL      181
REMARK 921   NORMALIZED FREE ENERGY PREDICTED BY IDOCK:   -5.48 KCAL/MOL
REMARK 922        TOTAL FREE ENERGY PREDICTED BY IDOCK:  -10.29 KCAL/MOL
REMARK 923 INTER-LIGAND FREE ENERGY PREDICTED BY IDOCK:   -8.15 KCAL/MOL
REMARK 924 INTRA-LIGAND FREE ENERGY PREDICTED BY IDOCK:   -2.15 KCAL/MOL
REMARK 927      BINDING AFFINITY PREDICTED BY RF-SCORE:    0.00 PKD
ROOT
HETATM    1 MG   UNL     3     -10.960  10.110  63.787  1.00  0.00    -0.407 Mg 
HETATM    2  O   UNL     4     -10.208   4.580  66.502  1.00  0.00    -0.243 OA 
HETATM    3  C   UNL     4     -10.866   5.832  66.485  1.00  0.00    -0.153 C  
HETATM    4  H   UNL     4     -10.754   3.870  66.186  1.00  0.00     0.000 HD 
HETATM    5  O   UNL     5      -8.819  17.270  65.622  1.00  0.00    -0.476 OA 
HETATM    6  H   UNL     5      -7.958  17.476  65.278  1.00  0.00     0.000 HD 
HETATM    7  C   UNL     5      -8.828  16.020  66.311  1.00  0.00    -0.344 C  
ENDROOT
BRANCH   3   8
HETATM    8  C   UNL     4      -9.983   6.980  66.996  1.00  0.00    -0.210 C  
HETATM    9  O   UNL     4      -9.984   8.055  66.037  1.00  0.00    -0.457 OA 
HETATM   10  H   UNL     4      -9.437   8.765  66.353  1.00  0.00     0.000 HD 
BRANCH   8  11
HETATM   11  C   UNL     4     -10.310   7.620  68.376  1.00  0.00    -0.194 C  
HETATM   12  O   UNL     4     -10.977   8.874  68.272  1.00  0.00    -0.460 OA 
HETATM   13  H   UNL     4     -11.177   9.264  69.115  1.00  0.00     0.000 HD 
BRANCH  11  14
HETATM   14  C   UNL     4     -10.962   6.720  69.461  1.00  0.00    -0.279 C  
HETATM   15  H   UNL     4     -12.058   7.055  71.043  1.00  0.00     0.000 HD 
HETATM   16  O   UNL     4     -11.659   7.606  70.380  1.00  0.00    -0.231 OA 
BRANCH  14  17
HETATM   17  C   UNL     4     -10.098   5.691  70.243  1.00  0.00    -0.222 C  
HETATM   18  C   UNL     4      -8.709   6.293  70.714  1.00  0.00    -0.136 C  
HETATM   19  H   UNL     4      -9.475   3.803  70.037  1.00  0.00     0.000 HD 
HETATM   20  O   UNL     4     -10.002   4.432  69.559  1.00  0.00    -0.211 OA 
HETATM   21  O   UNL     4      -8.781   7.536  71.099  1.00  0.00    -0.134 OA 
HETATM   22  O   UNL     4      -7.668   5.589  70.600  1.00  0.00    -0.086 OA 
ENDBRANCH  14  17
ENDBRANCH  11  14
ENDBRANCH   8  11
ENDBRANCH   3   8
BRANCH   7  23
HETATM   23  C   UNL     5     -10.226  15.684  66.868  1.00  0.00    -0.281 C  
HETATM   24  O   UNL     5     -10.762  16.863  67.472  1.00  0.00    -0.329 OA 
HETATM   25  H   UNL     5     -11.624  16.656  67.815  1.00  0.00     0.000 HD 
BRANCH  23  26
HETATM   26  C   UNL     5     -11.166  15.146  65.766  1.00  0.00    -0.287 C  
HETATM   27  O   UNL     5     -10.375  14.602  64.686  1.00  0.00    -0.517 OA 
HETATM   28  H   UNL     5     -10.953  14.271  64.008  1.00  0.00     0.000 HD 
BRANCH  26  29
HETATM   29  C   UNL     5     -12.274  14.139  66.183  1.00  0.00    -0.442 C  
HETATM   30  O   UNL     5     -12.651  14.264  67.554  1.00  0.00    -0.513 OA 
HETATM   31  H   UNL     5     -13.329  13.648  67.809  1.00  0.00     0.000 HD 
BRANCH  29  32
HETATM   32  C   UNL     5     -12.092  12.666  65.784  1.00  0.00    -0.423 C  
HETATM   33  C   UNL     5     -11.043  11.871  66.589  1.00  0.00    -0.310 C  
HETATM   34  O   UNL     5     -11.817  12.553  64.342  1.00  0.00    -0.345 OA 
HETATM   35  O   UNL     5     -10.910  12.166  67.814  1.00  0.00    -0.210 OA 
HETATM   36  O   UNL     5     -10.375  11.039  65.877  1.00  0.00    -0.249 OA 
HETATM   37  H   UNL     5     -11.705  11.643  64.096  1.00  0.00     0.000 HD 
ENDBRANCH  29  32
ENDBRANCH  26  29
ENDBRANCH  23  26
ENDBRANCH   7  23
TORSDOF 8
ENDMDL
MODEL      182
REMARK 921   NORMALIZED FREE ENERGY PREDICTED BY IDOCK:   -5.48 KCAL/MOL
REMARK 922        TOTAL FREE ENERGY PREDICTED BY IDOCK:  -10.29 KCAL/MOL
REMARK 923 INTER-LIGAND FREE ENERGY PREDICTED BY IDOCK:   -8.29 KCAL/MOL
REMARK 924 INTRA-LIGAND FREE ENERGY PREDICTED BY IDOCK:   -2.00 KCAL/MOL
REMARK 927      BINDING AFFINITY PREDICTED BY RF-SCORE:    0.00 PKD
ROOT
HETATM    1 MG   UNL     3     -12.135  11.404  68.607  1.00  0.00    -0.249 Mg 
HETATM    2  O   UNL     4     -12.428  13.676  62.839  1.00  0.00    -0.960 OA 
HETATM    3  C   UNL     4     -12.251  12.554  63.683  1.00  0.00    -0.550 C  
HETATM    4  H   UNL     4     -13.287  13.701  62.432  1.00  0.00     0.000 HD 
HETATM    5  O   UNL     5      -6.361   8.975  73.077  1.00  0.00    -0.296 OA 
HETATM    6  H   UNL     5      -5.989   9.686  73.586  1.00  0.00     0.000 HD 
HETATM    7  C   UNL     5      -6.483   9.319  71.697  1.00  0.00     0.036 C  
ENDROOT
BRANCH   3   8
HETATM    8  C   UNL     4     -10.864  12.514  64.341  1.00  0.00    -0.342 C  
HETATM    9  O   UNL     4      -9.853  12.343  63.330  1.00  0.00    -0.608 OA 
HETATM   10  H   UNL     4      -8.995  12.318  63.738  1.00  0.00     0.000 HD 
BRANCH   8  11
HETATM   11  C   UNL     4     -10.413  13.721  65.215  1.00  0.00    -0.363 C  
HETATM   12  O   UNL     4     -10.404  14.956  64.507  1.00  0.00    -0.489 OA 
HETATM   13  H   UNL     4     -10.129  15.692  65.041  1.00  0.00     0.000 HD 
BRANCH  11  14
HETATM   14  C   UNL     4     -11.050  13.879  66.622  1.00  0.00    -0.306 C  
HETATM   15  H   UNL     4     -12.875  14.104  67.284  1.00  0.00     0.000 HD 
HETATM   16  O   UNL     4     -12.485  14.007  66.423  1.00  0.00    -0.452 OA 
BRANCH  14  17
HETATM   17  C   UNL     4     -10.533  14.979  67.593  1.00  0.00    -0.247 C  
HETATM   18  C   UNL     4     -11.221  14.906  69.019  1.00  0.00    -0.264 C  
HETATM   19  H   UNL     4     -10.227  16.954  67.583  1.00  0.00     0.000 HD 
HETATM   20  O   UNL     4     -10.543  16.282  66.990  1.00  0.00    -0.314 OA 
HETATM   21  O   UNL     4     -11.432  13.691  69.438  1.00  0.00    -0.270 OA 
HETATM   22  O   UNL     4     -11.581  15.979  69.579  1.00  0.00    -0.330 OA 
ENDBRANCH  14  17
ENDBRANCH  11  14
ENDBRANCH   8  11
ENDBRANCH   3   8
BRANCH   7  23
HETATM   23  C   UNL     5      -7.087   8.165  70.872  1.00  0.00    -0.050 C  
HETATM   24  O   UNL     5      -6.476   6.944  71.295  1.00  0.00    -0.041 OA 
HETATM   25  H   UNL     5      -6.848   6.234  70.786  1.00  0.00     0.000 HD 
BRANCH  23  26
HETATM   26  C   UNL     5      -8.622   8.100  71.020  1.00  0.00    -0.137 C  
HETATM   27  O   UNL     5      -9.026   8.876  72.171  1.00  0.00    -0.381 OA 
HETATM   28  H   UNL     5      -9.971   8.836  72.262  1.00  0.00     0.000 HD 
BRANCH  26  29
HETATM   29  C   UNL     5      -9.489   8.475  69.786  1.00  0.00    -0.166 C  
HETATM   30  O   UNL     5      -9.188   9.771  69.270  1.00  0.00    -0.168 OA 
HETATM   31  H   UNL     5      -9.718  10.001  68.515  1.00  0.00     0.000 HD 
BRANCH  29  32
HETATM   32  C   UNL     5     -11.007   8.247  69.877  1.00  0.00    -0.166 C  
HETATM   33  C   UNL     5     -11.794   9.264  70.731  1.00  0.00    -0.243 C  
HETATM   34  O   UNL     5     -11.294   6.876  70.328  1.00  0.00    -0.293 OA 
HETATM   35  O   UNL     5     -11.381  10.462  70.729  1.00  0.00    -0.330 OA 
HETATM   36  O   UNL     5     -12.748   8.734  71.404  1.00  0.00    -0.313 OA 
HETATM   37  H   UNL     5     -12.232   6.735  70.384  1.00  0.00     0.000 HD 
ENDBRANCH  29  32
ENDBRANCH  26  29
ENDBRANCH  23  26
ENDBRANCH   7  23
TORSDOF 8
ENDMDL
MODEL      183
REMARK 921   NORMALIZED FREE ENERGY PREDICTED BY IDOCK:   -5.48 KCAL/MOL
REMARK 922        TOTAL FREE ENERGY PREDICTED BY IDOCK:  -10.28 KCAL/MOL
REMARK 923 INTER-LIGAND FREE ENERGY PREDICTED BY IDOCK:   -8.97 KCAL/MOL
REMARK 924 INTRA-LIGAND FREE ENERGY PREDICTED BY IDOCK:   -1.32 KCAL/MOL
REMARK 927      BINDING AFFINITY PREDICTED BY RF-SCORE:    0.00 PKD
ROOT
HETATM    1 MG   UNL     3     -10.776  14.769  71.049  1.00  0.00    -0.399 Mg 
HETATM    2  O   UNL     4     -11.681   8.668  70.357  1.00  0.00    -0.459 OA 
HETATM    3  C   UNL     4     -10.799   9.770  70.270  1.00  0.00    -0.301 C  
HETATM    4  H   UNL     4     -11.518   8.121  71.117  1.00  0.00     0.000 HD 
HETATM    5  O   UNL     5     -10.064  20.631  66.115  1.00  0.00    -0.508 OA 
HETATM    6  H   UNL     5     -10.907  21.014  65.902  1.00  0.00     0.000 HD 
HETATM    7  C   UNL     5     -10.081  19.209  65.985  1.00  0.00    -0.373 C  
ENDROOT
BRANCH   3   8
HETATM    8  C   UNL     4     -11.064  10.653  69.042  1.00  0.00    -0.254 C  
HETATM    9  O   UNL     4     -11.222  12.023  69.455  1.00  0.00    -0.386 OA 
HETATM   10  H   UNL     4     -11.386  12.569  68.695  1.00  0.00     0.000 HD 
BRANCH   8  11
HETATM   11  C   UNL     4     -10.023  10.659  67.884  1.00  0.00    -0.166 C  
HETATM   12  O   UNL     4      -8.905   9.811  68.128  1.00  0.00    -0.119 OA 
HETATM   13  H   UNL     4      -8.271   9.815  67.421  1.00  0.00     0.000 HD 
BRANCH  11  14
HETATM   14  C   UNL     4     -10.548  10.501  66.432  1.00  0.00    -0.149 C  
HETATM   15  H   UNL     4     -10.465   9.083  65.090  1.00  0.00     0.000 HD 
HETATM   16  O   UNL     4     -10.144   9.179  65.979  1.00  0.00    -0.284 OA 
BRANCH  14  17
HETATM   17  C   UNL     4     -10.208  11.574  65.358  1.00  0.00    -0.264 C  
HETATM   18  C   UNL     4     -11.499  12.277  64.768  1.00  0.00    -0.329 C  
HETATM   19  H   UNL     4      -9.083  11.735  63.714  1.00  0.00     0.000 HD 
HETATM   20  O   UNL     4      -9.291  11.079  64.369  1.00  0.00    -0.208 OA 
HETATM   21  O   UNL     4     -12.431  12.489  65.652  1.00  0.00    -0.648 OA 
HETATM   22  O   UNL     4     -11.567  12.486  63.525  1.00  0.00    -0.456 OA 
ENDBRANCH  14  17
ENDBRANCH  11  14
ENDBRANCH   8  11
ENDBRANCH   3   8
BRANCH   7  23
HETATM   23  C   UNL     5      -8.713  18.588  66.331  1.00  0.00    -0.260 C  
HETATM   24  O   UNL     5      -7.710  19.593  66.169  1.00  0.00    -0.294 OA 
HETATM   25  H   UNL     5      -6.867  19.210  66.382  1.00  0.00     0.000 HD 
BRANCH  23  26
HETATM   26  C   UNL     5      -8.694  18.008  67.762  1.00  0.00    -0.251 C  
HETATM   27  O   UNL     5      -7.729  18.731  68.559  1.00  0.00    -0.305 OA 
HETATM   28  H   UNL     5      -7.717  18.374  69.440  1.00  0.00     0.000 HD 
BRANCH  26  29
HETATM   29  C   UNL     5     -10.046  17.900  68.521  1.00  0.00    -0.391 C  
HETATM   30  O   UNL     5     -10.245  18.961  69.454  1.00  0.00    -0.471 OA 
HETATM   31  H   UNL     5     -11.072  18.895  69.918  1.00  0.00     0.000 HD 
BRANCH  29  32
HETATM   32  C   UNL     5     -10.421  16.539  69.131  1.00  0.00    -0.317 C  
HETATM   33  C   UNL     5     -11.187  15.571  68.205  1.00  0.00    -0.343 C  
HETATM   34  O   UNL     5     -11.159  16.727  70.391  1.00  0.00    -0.446 OA 
HETATM   35  O   UNL     5     -10.896  15.599  66.972  1.00  0.00    -0.318 OA 
HETATM   36  O   UNL     5     -12.092  14.894  68.811  1.00  0.00    -0.265 OA 
HETATM   37  H   UNL     5     -11.391  15.887  70.767  1.00  0.00     0.000 HD 
ENDBRANCH  29  32
ENDBRANCH  26  29
ENDBRANCH  23  26
ENDBRANCH   7  23
TORSDOF 8
ENDMDL
MODEL      184
REMARK 921   NORMALIZED FREE ENERGY PREDICTED BY IDOCK:   -5.47 KCAL/MOL
REMARK 922        TOTAL FREE ENERGY PREDICTED BY IDOCK:  -10.27 KCAL/MOL
REMARK 923 INTER-LIGAND FREE ENERGY PREDICTED BY IDOCK:   -8.56 KCAL/MOL
REMARK 924 INTRA-LIGAND FREE ENERGY PREDICTED BY IDOCK:   -1.71 KCAL/MOL
REMARK 927      BINDING AFFINITY PREDICTED BY RF-SCORE:    0.00 PKD
ROOT
HETATM    1 MG   UNL     3      -8.386  12.063  68.199  1.00  0.00    -0.115 Mg 
HETATM    2  O   UNL     4     -11.702  16.469  71.046  1.00  0.00    -0.596 OA 
HETATM    3  C   UNL     4     -11.071  15.205  71.116  1.00  0.00    -0.225 C  
HETATM    4  H   UNL     4     -11.214  17.152  71.492  1.00  0.00     0.000 HD 
HETATM    5  O   UNL     5     -10.093   5.106  65.388  1.00  0.00    -0.384 OA 
HETATM    6  H   UNL     5     -10.376   5.154  64.482  1.00  0.00     0.000 HD 
HETATM    7  C   UNL     5     -10.780   6.051  66.208  1.00  0.00     0.085 C  
ENDROOT
BRANCH   3   8
HETATM    8  C   UNL     4     -11.860  14.102  70.396  1.00  0.00    -0.297 C  
HETATM    9  O   UNL     4     -13.225  14.523  70.214  1.00  0.00    -0.512 OA 
HETATM   10  H   UNL     4     -13.713  13.840  69.768  1.00  0.00     0.000 HD 
BRANCH   8  11
HETATM   11  C   UNL     4     -11.361  13.608  69.006  1.00  0.00    -0.287 C  
HETATM   12  O   UNL     4     -12.139  12.540  68.476  1.00  0.00    -0.266 OA 
HETATM   13  H   UNL     4     -11.835  12.239  67.628  1.00  0.00     0.000 HD 
BRANCH  11  14
HETATM   14  C   UNL     4     -11.052  14.675  67.922  1.00  0.00    -0.291 C  
HETATM   15  H   UNL     4     -11.670  16.495  67.573  1.00  0.00     0.000 HD 
HETATM   16  O   UNL     4     -11.860  15.842  68.237  1.00  0.00    -0.277 OA 
BRANCH  14  17
HETATM   17  C   UNL     4     -11.176  14.314  66.414  1.00  0.00    -0.337 C  
HETATM   18  C   UNL     4     -10.378  15.315  65.479  1.00  0.00    -0.383 C  
HETATM   19  H   UNL     4     -12.616  13.868  65.101  1.00  0.00     0.000 HD 
HETATM   20  O   UNL     4     -12.540  14.089  66.022  1.00  0.00    -0.481 OA 
HETATM   21  O   UNL     4      -9.241  15.706  65.981  1.00  0.00    -0.329 OA 
HETATM   22  O   UNL     4     -10.917  15.713  64.410  1.00  0.00    -0.335 OA 
ENDBRANCH  14  17
ENDBRANCH  11  14
ENDBRANCH   8  11
ENDBRANCH   3   8
BRANCH   7  23
HETATM   23  C   UNL     5     -10.320   5.973  67.678  1.00  0.00    -0.206 C  
HETATM   24  O   UNL     5      -8.989   5.453  67.704  1.00  0.00    -0.110 OA 
HETATM   25  H   UNL     5      -8.706   5.405  68.609  1.00  0.00     0.000 HD 
BRANCH  23  26
HETATM   26  C   UNL     5     -10.394   7.350  68.373  1.00  0.00    -0.194 C  
HETATM   27  O   UNL     5     -11.003   8.307  67.477  1.00  0.00    -0.500 OA 
HETATM   28  H   UNL     5     -11.048   9.154  67.905  1.00  0.00     0.000 HD 
BRANCH  26  29
HETATM   29  C   UNL     5     -11.062   7.423  69.774  1.00  0.00    -0.152 C  
HETATM   30  O   UNL     5     -12.277   6.677  69.849  1.00  0.00    -0.598 OA 
HETATM   31  H   UNL     5     -12.686   6.722  70.706  1.00  0.00     0.000 HD 
BRANCH  29  32
HETATM   32  C   UNL     5     -11.213   8.806  70.428  1.00  0.00    -0.223 C  
HETATM   33  C   UNL     5     -11.974   8.841  71.770  1.00  0.00    -0.349 C  
HETATM   34  O   UNL     5     -11.811   9.760  69.480  1.00  0.00    -0.452 OA 
HETATM   35  O   UNL     5     -11.836   7.843  72.538  1.00  0.00    -0.354 OA 
HETATM   36  O   UNL     5     -12.721   9.874  71.906  1.00  0.00    -0.394 OA 
HETATM   37  H   UNL     5     -11.904  10.615  69.884  1.00  0.00     0.000 HD 
ENDBRANCH  29  32
ENDBRANCH  26  29
ENDBRANCH  23  26
ENDBRANCH   7  23
TORSDOF 8
ENDMDL
MODEL      185
REMARK 921   NORMALIZED FREE ENERGY PREDICTED BY IDOCK:   -5.46 KCAL/MOL
REMARK 922        TOTAL FREE ENERGY PREDICTED BY IDOCK:  -10.26 KCAL/MOL
REMARK 923 INTER-LIGAND FREE ENERGY PREDICTED BY IDOCK:   -8.32 KCAL/MOL
REMARK 924 INTRA-LIGAND FREE ENERGY PREDICTED BY IDOCK:   -1.94 KCAL/MOL
REMARK 927      BINDING AFFINITY PREDICTED BY RF-SCORE:    0.00 PKD
ROOT
HETATM    1 MG   UNL     3     -12.720  11.416  68.683  1.00  0.00    -0.279 Mg 
HETATM    2  O   UNL     4     -12.392  13.803  62.964  1.00  0.00    -1.089 OA 
HETATM    3  C   UNL     4     -12.722  12.704  63.792  1.00  0.00    -0.241 C  
HETATM    4  H   UNL     4     -13.155  14.275  62.652  1.00  0.00     0.000 HD 
HETATM    5  O   UNL     5      -8.551   6.209  72.519  1.00  0.00    -0.122 OA 
HETATM    6  H   UNL     5      -7.824   6.612  72.978  1.00  0.00     0.000 HD 
HETATM    7  C   UNL     5      -8.617   6.632  71.157  1.00  0.00    -0.130 C  
ENDROOT
BRANCH   3   8
HETATM    8  C   UNL     4     -11.487  11.943  64.296  1.00  0.00    -0.346 C  
HETATM    9  O   UNL     4     -10.871  11.240  63.200  1.00  0.00    -0.746 OA 
HETATM   10  H   UNL     4     -10.108  10.768  63.512  1.00  0.00     0.000 HD 
BRANCH   8  11
HETATM   11  C   UNL     4     -10.352  12.739  65.003  1.00  0.00    -0.303 C  
HETATM   12  O   UNL     4     -10.044  13.971  64.360  1.00  0.00    -0.706 OA 
HETATM   13  H   UNL     4      -9.351  14.457  64.792  1.00  0.00     0.000 HD 
BRANCH  11  14
HETATM   14  C   UNL     4     -10.432  12.908  66.544  1.00  0.00    -0.265 C  
HETATM   15  H   UNL     4     -11.204  11.860  68.001  1.00  0.00     0.000 HD 
HETATM   16  O   UNL     4     -11.155  11.756  67.058  1.00  0.00    -0.271 OA 
BRANCH  14  17
HETATM   17  C   UNL     4     -10.994  14.223  67.156  1.00  0.00    -0.302 C  
HETATM   18  C   UNL     4      -9.850  15.211  67.634  1.00  0.00    -0.219 C  
HETATM   19  H   UNL     4     -12.358  14.775  68.509  1.00  0.00     0.000 HD 
HETATM   20  O   UNL     4     -12.014  13.972  68.135  1.00  0.00    -0.357 OA 
HETATM   21  O   UNL     4      -8.813  15.231  66.847  1.00  0.00    -0.217 OA 
HETATM   22  O   UNL     4      -9.982  15.810  68.737  1.00  0.00    -0.201 OA 
ENDBRANCH  14  17
ENDBRANCH  11  14
ENDBRANCH   8  11
ENDBRANCH   3   8
BRANCH   7  23
HETATM   23  C   UNL     5      -9.797   5.978  70.411  1.00  0.00    -0.179 C  
HETATM   24  O   UNL     5     -10.423   5.045  71.294  1.00  0.00    -0.208 OA 
HETATM   25  H   UNL     5     -11.150   4.642  70.835  1.00  0.00     0.000 HD 
BRANCH  23  26
HETATM   26  C   UNL     5     -10.808   7.031  69.907  1.00  0.00    -0.251 C  
HETATM   27  O   UNL     5     -11.636   7.468  71.009  1.00  0.00    -0.274 OA 
HETATM   28  H   UNL     5     -12.258   8.115  70.699  1.00  0.00     0.000 HD 
BRANCH  26  29
HETATM   29  C   UNL     5     -10.254   8.258  69.131  1.00  0.00    -0.218 C  
HETATM   30  O   UNL     5     -11.211   9.308  68.996  1.00  0.00    -0.444 OA 
HETATM   31  H   UNL     5     -10.873  10.059  68.521  1.00  0.00     0.000 HD 
BRANCH  29  32
HETATM   32  C   UNL     5      -9.517   7.998  67.807  1.00  0.00    -0.145 C  
HETATM   33  C   UNL     5     -10.129   6.915  66.893  1.00  0.00    -0.218 C  
HETATM   34  O   UNL     5      -8.096   7.707  68.058  1.00  0.00    -0.120 OA 
HETATM   35  O   UNL     5     -11.391   6.807  66.891  1.00  0.00    -0.318 OA 
HETATM   36  O   UNL     5      -9.251   6.201  66.291  1.00  0.00    -0.153 OA 
HETATM   37  H   UNL     5      -7.641   7.547  67.240  1.00  0.00     0.000 HD 
ENDBRANCH  29  32
ENDBRANCH  26  29
ENDBRANCH  23  26
ENDBRANCH   7  23
TORSDOF 8
ENDMDL
MODEL      186
REMARK 921   NORMALIZED FREE ENERGY PREDICTED BY IDOCK:   -5.46 KCAL/MOL
REMARK 922        TOTAL FREE ENERGY PREDICTED BY IDOCK:  -10.25 KCAL/MOL
REMARK 923 INTER-LIGAND FREE ENERGY PREDICTED BY IDOCK:   -7.93 KCAL/MOL
REMARK 924 INTRA-LIGAND FREE ENERGY PREDICTED BY IDOCK:   -2.32 KCAL/MOL
REMARK 927      BINDING AFFINITY PREDICTED BY RF-SCORE:    0.00 PKD
ROOT
HETATM    1 MG   UNL     3     -10.224   8.752  62.593  1.00  0.00    -0.131 Mg 
HETATM    2  O   UNL     4      -8.256   3.986  66.047  1.00  0.00    -0.104 OA 
HETATM    3  C   UNL     4      -9.276   4.923  65.760  1.00  0.00    -0.154 C  
HETATM    4  H   UNL     4      -8.453   3.114  65.726  1.00  0.00     0.000 HD 
HETATM    5  O   UNL     5     -11.038  16.290  63.904  1.00  0.00    -1.111 OA 
HETATM    6  H   UNL     5     -10.244  16.769  63.699  1.00  0.00     0.000 HD 
HETATM    7  C   UNL     5     -10.774  15.154  64.726  1.00  0.00    -0.319 C  
ENDROOT
BRANCH   3   8
HETATM    8  C   UNL     4      -8.956   6.333  66.279  1.00  0.00    -0.155 C  
HETATM    9  O   UNL     4      -8.568   7.178  65.179  1.00  0.00    -0.318 OA 
HETATM   10  H   UNL     4      -8.370   8.050  65.501  1.00  0.00     0.000 HD 
BRANCH   8  11
HETATM   11  C   UNL     4     -10.052   7.109  67.066  1.00  0.00    -0.238 C  
HETATM   12  O   UNL     4     -11.367   6.886  66.568  1.00  0.00    -0.405 OA 
HETATM   13  H   UNL     4     -12.036   7.360  67.048  1.00  0.00     0.000 HD 
BRANCH  11  14
HETATM   14  C   UNL     4     -10.017   7.049  68.617  1.00  0.00    -0.156 C  
HETATM   15  H   UNL     4     -11.204   6.325  69.989  1.00  0.00     0.000 HD 
HETATM   16  O   UNL     4     -11.226   6.362  69.040  1.00  0.00    -0.347 OA 
BRANCH  14  17
HETATM   17  C   UNL     4      -9.809   8.350  69.444  1.00  0.00    -0.185 C  
HETATM   18  C   UNL     4      -9.458   8.059  70.962  1.00  0.00    -0.157 C  
HETATM   19  H   UNL     4     -10.748  10.087  69.751  1.00  0.00     0.000 HD 
HETATM   20  O   UNL     4     -10.875   9.292  69.247  1.00  0.00    -0.221 OA 
HETATM   21  O   UNL     4      -8.680   7.029  71.131  1.00  0.00    -0.135 OA 
HETATM   22  O   UNL     4     -10.006   8.756  71.860  1.00  0.00    -0.290 OA 
ENDBRANCH  14  17
ENDBRANCH  11  14
ENDBRANCH   8  11
ENDBRANCH   3   8
BRANCH   7  23
HETATM   23  C   UNL     5     -12.063  14.376  65.059  1.00  0.00    -0.415 C  
HETATM   24  O   UNL     5     -12.337  13.481  63.980  1.00  0.00    -0.604 OA 
HETATM   25  H   UNL     5     -13.131  13.002  64.185  1.00  0.00     0.000 HD 
BRANCH  23  26
HETATM   26  C   UNL     5     -11.942  13.615  66.397  1.00  0.00    -0.426 C  
HETATM   27  O   UNL     5     -13.113  13.875  67.204  1.00  0.00     0.157 OA 
HETATM   28  H   UNL     5     -13.038  13.407  68.027  1.00  0.00     0.000 HD 
BRANCH  26  29
HETATM   29  C   UNL     5     -11.654  12.089  66.342  1.00  0.00    -0.313 C  
HETATM   30  O   UNL     5     -12.100  11.397  67.508  1.00  0.00    -0.592 OA 
HETATM   31  H   UNL     5     -11.924  10.464  67.475  1.00  0.00     0.000 HD 
BRANCH  29  32
HETATM   32  C   UNL     5     -10.244  11.638  65.928  1.00  0.00    -0.238 C  
HETATM   33  C   UNL     5     -10.148  10.843  64.609  1.00  0.00    -0.328 C  
HETATM   34  O   UNL     5      -9.602  10.887  67.020  1.00  0.00    -0.170 OA 
HETATM   35  O   UNL     5     -10.956  11.157  63.685  1.00  0.00    -0.349 OA 
HETATM   36  O   UNL     5      -9.284   9.895  64.645  1.00  0.00    -0.225 OA 
HETATM   37  H   UNL     5      -8.731  10.608  66.765  1.00  0.00     0.000 HD 
ENDBRANCH  29  32
ENDBRANCH  26  29
ENDBRANCH  23  26
ENDBRANCH   7  23
TORSDOF 8
ENDMDL
MODEL      187
REMARK 921   NORMALIZED FREE ENERGY PREDICTED BY IDOCK:   -5.45 KCAL/MOL
REMARK 922        TOTAL FREE ENERGY PREDICTED BY IDOCK:  -10.24 KCAL/MOL
REMARK 923 INTER-LIGAND FREE ENERGY PREDICTED BY IDOCK:   -8.18 KCAL/MOL
REMARK 924 INTRA-LIGAND FREE ENERGY PREDICTED BY IDOCK:   -2.06 KCAL/MOL
REMARK 927      BINDING AFFINITY PREDICTED BY RF-SCORE:    0.00 PKD
ROOT
HETATM    1 MG   UNL     3     -11.444  12.968  69.196  1.00  0.00    -0.205 Mg 
HETATM    2  O   UNL     4     -11.641  16.170  63.883  1.00  0.00    -1.369 OA 
HETATM    3  C   UNL     4     -12.145  15.103  64.664  1.00  0.00    -0.257 C  
HETATM    4  H   UNL     4     -12.228  16.917  63.854  1.00  0.00     0.000 HD 
HETATM    5  O   UNL     5      -8.704   6.043  71.131  1.00  0.00    -0.131 OA 
HETATM    6  H   UNL     5      -7.792   6.088  71.393  1.00  0.00     0.000 HD 
HETATM    7  C   UNL     5      -8.934   6.719  69.895  1.00  0.00    -0.144 C  
ENDROOT
BRANCH   3   8
HETATM    8  C   UNL     4     -11.197  13.896  64.710  1.00  0.00    -0.369 C  
HETATM    9  O   UNL     4      -9.923  14.259  64.145  1.00  0.00    -0.409 OA 
HETATM   10  H   UNL     4      -9.336  13.512  64.173  1.00  0.00     0.000 HD 
BRANCH   8  11
HETATM   11  C   UNL     4     -10.896  13.230  66.084  1.00  0.00    -0.280 C  
HETATM   12  O   UNL     4     -11.557  13.864  67.173  1.00  0.00    -0.325 OA 
HETATM   13  H   UNL     4     -11.374  13.457  68.012  1.00  0.00     0.000 HD 
BRANCH  11  14
HETATM   14  C   UNL     4     -10.998  11.684  66.182  1.00  0.00    -0.288 C  
HETATM   15  H   UNL     4     -11.952  10.444  67.352  1.00  0.00     0.000 HD 
HETATM   16  O   UNL     4     -11.889  11.390  67.292  1.00  0.00    -0.594 OA 
BRANCH  14  17
HETATM   17  C   UNL     4      -9.706  10.821  66.275  1.00  0.00    -0.205 C  
HETATM   18  C   UNL     4      -9.401  10.035  64.933  1.00  0.00    -0.266 C  
HETATM   19  H   UNL     4      -8.890   9.486  67.519  1.00  0.00     0.000 HD 
HETATM   20  O   UNL     4      -9.679  10.013  67.462  1.00  0.00    -0.154 OA 
HETATM   21  O   UNL     4      -9.676  10.711  63.855  1.00  0.00    -0.270 OA 
HETATM   22  O   UNL     4      -9.018   8.834  65.003  1.00  0.00    -0.165 OA 
ENDBRANCH  14  17
ENDBRANCH  11  14
ENDBRANCH   8  11
ENDBRANCH   3   8
BRANCH   7  23
HETATM   23  C   UNL     5     -10.414   6.647  69.471  1.00  0.00    -0.218 C  
HETATM   24  O   UNL     5     -10.922   7.980  69.385  1.00  0.00    -0.408 OA 
HETATM   25  H   UNL     5     -11.834   7.935  69.124  1.00  0.00     0.000 HD 
BRANCH  23  26
HETATM   26  C   UNL     5     -10.588   5.898  68.131  1.00  0.00    -0.244 C  
HETATM   27  O   UNL     5     -11.612   6.551  67.347  1.00  0.00    -0.719 OA 
HETATM   28  H   UNL     5     -11.719   6.090  66.523  1.00  0.00     0.000 HD 
BRANCH  26  29
HETATM   29  C   UNL     5      -9.321   5.652  67.265  1.00  0.00    -0.113 C  
HETATM   30  O   UNL     5      -9.428   6.207  65.955  1.00  0.00    -0.344 OA 
HETATM   31  H   UNL     5      -8.653   6.057  65.425  1.00  0.00     0.000 HD 
BRANCH  29  32
HETATM   32  C   UNL     5      -8.743   4.228  67.226  1.00  0.00    -0.106 C  
HETATM   33  C   UNL     5      -7.631   3.979  66.185  1.00  0.00    -0.089 C  
HETATM   34  O   UNL     5      -9.821   3.239  67.063  1.00  0.00    -0.376 OA 
HETATM   35  O   UNL     5      -6.840   4.938  65.944  1.00  0.00    -0.058 OA 
HETATM   36  O   UNL     5      -7.697   2.822  65.635  1.00  0.00    -0.075 OA 
HETATM   37  H   UNL     5      -9.464   2.360  67.038  1.00  0.00     0.000 HD 
ENDBRANCH  29  32
ENDBRANCH  26  29
ENDBRANCH  23  26
ENDBRANCH   7  23
TORSDOF 8
ENDMDL
MODEL      188
REMARK 921   NORMALIZED FREE ENERGY PREDICTED BY IDOCK:   -5.45 KCAL/MOL
REMARK 922        TOTAL FREE ENERGY PREDICTED BY IDOCK:  -10.24 KCAL/MOL
REMARK 923 INTER-LIGAND FREE ENERGY PREDICTED BY IDOCK:   -8.07 KCAL/MOL
REMARK 924 INTRA-LIGAND FREE ENERGY PREDICTED BY IDOCK:   -2.17 KCAL/MOL
REMARK 927      BINDING AFFINITY PREDICTED BY RF-SCORE:    0.00 PKD
ROOT
HETATM    1 MG   UNL     3      -8.058  11.481  70.014  1.00  0.00    -0.344 Mg 
HETATM    2  O   UNL     4     -10.901  16.324  67.370  1.00  0.00    -0.313 OA 
HETATM    3  C   UNL     4     -10.689  15.538  68.528  1.00  0.00    -0.259 C  
HETATM    4  H   UNL     4     -10.444  17.157  67.400  1.00  0.00     0.000 HD 
HETATM    5  O   UNL     5     -10.397   4.479  72.185  1.00  0.00    -0.192 OA 
HETATM    6  H   UNL     5     -10.315   3.848  71.481  1.00  0.00     0.000 HD 
HETATM    7  C   UNL     5     -11.060   5.668  71.757  1.00  0.00    -0.199 C  
ENDROOT
BRANCH   3   8
HETATM    8  C   UNL     4     -11.427  14.192  68.480  1.00  0.00    -0.300 C  
HETATM    9  O   UNL     4     -12.683  14.304  69.174  1.00  0.00    -0.467 OA 
HETATM   10  H   UNL     4     -13.140  13.471  69.145  1.00  0.00     0.000 HD 
BRANCH   8  11
HETATM   11  C   UNL     4     -11.743  13.558  67.094  1.00  0.00    -0.379 C  
HETATM   12  O   UNL     4     -12.729  14.276  66.359  1.00  0.00    -0.524 OA 
HETATM   13  H   UNL     4     -12.921  13.890  65.513  1.00  0.00     0.000 HD 
BRANCH  11  14
HETATM   14  C   UNL     4     -10.549  13.149  66.190  1.00  0.00    -0.279 C  
HETATM   15  H   UNL     4     -10.250  13.080  64.260  1.00  0.00     0.000 HD 
HETATM   16  O   UNL     4     -10.981  13.330  64.813  1.00  0.00    -0.316 OA 
BRANCH  14  17
HETATM   17  C   UNL     4      -9.872  11.761  66.373  1.00  0.00    -0.214 C  
HETATM   18  C   UNL     4      -8.373  11.874  66.875  1.00  0.00    -0.169 C  
HETATM   19  H   UNL     4      -9.643  10.065  65.339  1.00  0.00     0.000 HD 
HETATM   20  O   UNL     4     -10.056  10.914  65.227  1.00  0.00    -0.248 OA 
HETATM   21  O   UNL     4      -8.181  12.829  67.739  1.00  0.00    -0.150 OA 
HETATM   22  O   UNL     4      -7.498  11.127  66.358  1.00  0.00    -0.144 OA 
ENDBRANCH  14  17
ENDBRANCH  11  14
ENDBRANCH   8  11
ENDBRANCH   3   8
BRANCH   7  23
HETATM   23  C   UNL     5     -11.194   6.693  72.901  1.00  0.00    -0.191 C  
HETATM   24  O   UNL     5     -10.545   6.160  74.058  1.00  0.00    -0.337 OA 
HETATM   25  H   UNL     5     -10.628   6.791  74.763  1.00  0.00     0.000 HD 
BRANCH  23  26
HETATM   26  C   UNL     5     -10.601   8.064  72.512  1.00  0.00    -0.329 C  
HETATM   27  O   UNL     5      -9.431   7.864  71.686  1.00  0.00    -0.144 OA 
HETATM   28  H   UNL     5      -9.066   8.708  71.447  1.00  0.00     0.000 HD 
BRANCH  26  29
HETATM   29  C   UNL     5     -11.548   9.108  71.859  1.00  0.00    -0.360 C  
HETATM   30  O   UNL     5     -12.925   8.746  71.956  1.00  0.00    -0.341 OA 
HETATM   31  H   UNL     5     -13.505   9.385  71.557  1.00  0.00     0.000 HD 
BRANCH  29  32
HETATM   32  C   UNL     5     -11.200   9.612  70.449  1.00  0.00    -0.283 C  
HETATM   33  C   UNL     5     -12.004  10.830  69.948  1.00  0.00    -0.342 C  
HETATM   34  O   UNL     5     -11.286   8.512  69.474  1.00  0.00    -0.439 OA 
HETATM   35  O   UNL     5     -12.341  11.694  70.811  1.00  0.00    -0.376 OA 
HETATM   36  O   UNL     5     -12.293  10.773  68.700  1.00  0.00    -0.430 OA 
HETATM   37  H   UNL     5     -11.071   8.823  68.603  1.00  0.00     0.000 HD 
ENDBRANCH  29  32
ENDBRANCH  26  29
ENDBRANCH  23  26
ENDBRANCH   7  23
TORSDOF 8
ENDMDL
MODEL      189
REMARK 921   NORMALIZED FREE ENERGY PREDICTED BY IDOCK:   -5.43 KCAL/MOL
REMARK 922        TOTAL FREE ENERGY PREDICTED BY IDOCK:  -10.22 KCAL/MOL
REMARK 923 INTER-LIGAND FREE ENERGY PREDICTED BY IDOCK:   -8.14 KCAL/MOL
REMARK 924 INTRA-LIGAND FREE ENERGY PREDICTED BY IDOCK:   -2.08 KCAL/MOL
REMARK 927      BINDING AFFINITY PREDICTED BY RF-SCORE:    0.00 PKD
ROOT
HETATM    1 MG   UNL     3     -12.593  10.584  68.494  1.00  0.00    -0.452 Mg 
HETATM    2  O   UNL     4     -11.942  13.158  62.884  1.00  0.00    -0.788 OA 
HETATM    3  C   UNL     4     -11.969  11.984  63.673  1.00  0.00    -0.515 C  
HETATM    4  H   UNL     4     -12.735  13.280  62.374  1.00  0.00     0.000 HD 
HETATM    5  O   UNL     5      -7.672   7.428  73.498  1.00  0.00    -0.094 OA 
HETATM    6  H   UNL     5      -7.313   8.076  74.092  1.00  0.00     0.000 HD 
HETATM    7  C   UNL     5      -7.584   7.849  72.137  1.00  0.00    -0.089 C  
ENDROOT
BRANCH   3   8
HETATM    8  C   UNL     4     -10.688  11.788  64.497  1.00  0.00    -0.315 C  
HETATM    9  O   UNL     4      -9.632  12.599  63.951  1.00  0.00    -0.653 OA 
HETATM   10  H   UNL     4      -8.839  12.477  64.460  1.00  0.00     0.000 HD 
BRANCH   8  11
HETATM   11  C   UNL     4     -10.726  12.083  66.025  1.00  0.00    -0.279 C  
HETATM   12  O   UNL     4     -12.030  11.973  66.587  1.00  0.00    -0.614 OA 
HETATM   13  H   UNL     4     -12.052  12.153  67.519  1.00  0.00     0.000 HD 
BRANCH  11  14
HETATM   14  C   UNL     4      -9.662  11.400  66.925  1.00  0.00    -0.192 C  
HETATM   15  H   UNL     4      -9.712  10.003  68.290  1.00  0.00     0.000 HD 
HETATM   16  O   UNL     4     -10.363  10.420  67.739  1.00  0.00    -0.182 OA 
BRANCH  14  17
HETATM   17  C   UNL     4      -8.715  12.265  67.806  1.00  0.00    -0.174 C  
HETATM   18  C   UNL     4      -9.389  13.620  68.277  1.00  0.00    -0.204 C  
HETATM   19  H   UNL     4      -6.836  12.945  67.754  1.00  0.00     0.000 HD 
HETATM   20  O   UNL     4      -7.414  12.417  67.216  1.00  0.00    -0.147 OA 
HETATM   21  O   UNL     4     -10.652  13.503  68.570  1.00  0.00    -0.238 OA 
HETATM   22  O   UNL     4      -8.709  14.683  68.246  1.00  0.00    -0.160 OA 
ENDBRANCH  14  17
ENDBRANCH  11  14
ENDBRANCH   8  11
ENDBRANCH   3   8
BRANCH   7  23
HETATM   23  C   UNL     5      -8.168   6.797  71.173  1.00  0.00    -0.119 C  
HETATM   24  O   UNL     5      -8.907   5.846  71.943  1.00  0.00    -0.138 OA 
HETATM   25  H   UNL     5      -9.267   5.198  71.349  1.00  0.00     0.000 HD 
BRANCH  23  26
HETATM   26  C   UNL     5      -9.055   7.446  70.089  1.00  0.00    -0.148 C  
HETATM   27  O   UNL     5      -8.734   6.872  68.801  1.00  0.00    -0.129 OA 
HETATM   28  H   UNL     5      -9.280   7.272  68.133  1.00  0.00     0.000 HD 
BRANCH  26  29
HETATM   29  C   UNL     5     -10.593   7.444  70.310  1.00  0.00    -0.231 C  
HETATM   30  O   UNL     5     -11.326   7.180  69.114  1.00  0.00    -0.471 OA 
HETATM   31  H   UNL     5     -12.267   7.178  69.249  1.00  0.00     0.000 HD 
BRANCH  29  32
HETATM   32  C   UNL     5     -11.208   8.612  71.097  1.00  0.00    -0.272 C  
HETATM   33  C   UNL     5     -11.635   8.301  72.547  1.00  0.00    -0.385 C  
HETATM   34  O   UNL     5     -12.334   9.199  70.352  1.00  0.00    -0.476 OA 
HETATM   35  O   UNL     5     -10.929   7.469  73.191  1.00  0.00    -0.376 OA 
HETATM   36  O   UNL     5     -12.719   8.890  72.898  1.00  0.00    -0.301 OA 
HETATM   37  H   UNL     5     -12.714   9.921  70.838  1.00  0.00     0.000 HD 
ENDBRANCH  29  32
ENDBRANCH  26  29
ENDBRANCH  23  26
ENDBRANCH   7  23
TORSDOF 8
ENDMDL
MODEL      190
REMARK 921   NORMALIZED FREE ENERGY PREDICTED BY IDOCK:   -5.43 KCAL/MOL
REMARK 922        TOTAL FREE ENERGY PREDICTED BY IDOCK:  -10.21 KCAL/MOL
REMARK 923 INTER-LIGAND FREE ENERGY PREDICTED BY IDOCK:   -7.70 KCAL/MOL
REMARK 924 INTRA-LIGAND FREE ENERGY PREDICTED BY IDOCK:   -2.51 KCAL/MOL
REMARK 927      BINDING AFFINITY PREDICTED BY RF-SCORE:    0.00 PKD
ROOT
HETATM    1 MG   UNL     3     -11.845  16.189  66.679  1.00  0.00     0.023 Mg 
HETATM    2  O   UNL     4      -9.501  11.791  62.981  1.00  0.00    -0.510 OA 
HETATM    3  C   UNL     4     -10.540  12.207  63.846  1.00  0.00    -0.415 C  
HETATM    4  H   UNL     4      -9.747  11.827  62.063  1.00  0.00     0.000 HD 
HETATM    5  O   UNL     5     -12.408  16.971  74.314  1.00  0.00    -0.529 OA 
HETATM    6  H   UNL     5     -11.642  17.396  74.680  1.00  0.00     0.000 HD 
HETATM    7  C   UNL     5     -12.053  15.899  73.441  1.00  0.00    -0.482 C  
ENDROOT
BRANCH   3   8
HETATM    8  C   UNL     4     -10.142  12.149  65.329  1.00  0.00    -0.265 C  
HETATM    9  O   UNL     4      -8.798  11.646  65.450  1.00  0.00    -0.400 OA 
HETATM   10  H   UNL     4      -8.553  11.610  66.367  1.00  0.00     0.000 HD 
BRANCH   8  11
HETATM   11  C   UNL     4     -10.203  13.455  66.173  1.00  0.00    -0.301 C  
HETATM   12  O   UNL     4     -11.520  13.789  66.598  1.00  0.00    -0.320 OA 
HETATM   13  H   UNL     4     -11.557  14.586  67.114  1.00  0.00     0.000 HD 
BRANCH  11  14
HETATM   14  C   UNL     4      -9.175  13.626  67.325  1.00  0.00    -0.232 C  
HETATM   15  H   UNL     4      -8.866  12.727  69.031  1.00  0.00     0.000 HD 
HETATM   16  O   UNL     4      -9.494  12.622  68.327  1.00  0.00    -0.213 OA 
BRANCH  14  17
HETATM   17  C   UNL     4      -8.974  15.018  67.989  1.00  0.00    -0.173 C  
HETATM   18  C   UNL     4      -7.612  15.118  68.794  1.00  0.00    -0.136 C  
HETATM   19  H   UNL     4     -10.012  16.291  69.128  1.00  0.00     0.000 HD 
HETATM   20  O   UNL     4     -10.134  15.441  68.723  1.00  0.00    -0.200 OA 
HETATM   21  O   UNL     4      -6.618  14.502  68.221  1.00  0.00    -0.098 OA 
HETATM   22  O   UNL     4      -7.610  15.682  69.923  1.00  0.00    -0.104 OA 
ENDBRANCH  14  17
ENDBRANCH  11  14
ENDBRANCH   8  11
ENDBRANCH   3   8
BRANCH   7  23
HETATM   23  C   UNL     5     -13.297  15.209  72.846  1.00  0.00    -0.502 C  
HETATM   24  O   UNL     5     -13.700  15.935  71.683  1.00  0.00    -0.413 OA 
HETATM   25  H   UNL     5     -14.466  15.510  71.317  1.00  0.00     0.000 HD 
BRANCH  23  26
HETATM   26  C   UNL     5     -13.023  13.727  72.510  1.00  0.00    -0.336 C  
HETATM   27  O   UNL     5     -14.280  13.035  72.334  1.00  0.00    -0.504 OA 
HETATM   28  H   UNL     5     -14.111  12.123  72.127  1.00  0.00     0.000 HD 
BRANCH  26  29
HETATM   29  C   UNL     5     -12.066  13.415  71.325  1.00  0.00     0.104 C  
HETATM   30  O   UNL     5     -11.168  14.486  71.040  1.00  0.00    -0.519 OA 
HETATM   31  H   UNL     5     -10.583  14.296  70.316  1.00  0.00     0.000 HD 
BRANCH  29  32
HETATM   32  C   UNL     5     -12.680  12.840  70.038  1.00  0.00     0.310 C  
HETATM   33  C   UNL     5     -12.295  11.386  69.696  1.00  0.00    -0.170 C  
HETATM   34  O   UNL     5     -12.395  13.723  68.895  1.00  0.00    -0.409 OA 
HETATM   35  O   UNL     5     -12.122  10.591  70.667  1.00  0.00    -0.296 OA 
HETATM   36  O   UNL     5     -12.129  11.183  68.441  1.00  0.00    -0.605 OA 
HETATM   37  H   UNL     5     -12.774  13.368  68.099  1.00  0.00     0.000 HD 
ENDBRANCH  29  32
ENDBRANCH  26  29
ENDBRANCH  23  26
ENDBRANCH   7  23
TORSDOF 8
ENDMDL
MODEL      191
REMARK 921   NORMALIZED FREE ENERGY PREDICTED BY IDOCK:   -5.42 KCAL/MOL
REMARK 922        TOTAL FREE ENERGY PREDICTED BY IDOCK:  -10.21 KCAL/MOL
REMARK 923 INTER-LIGAND FREE ENERGY PREDICTED BY IDOCK:   -8.46 KCAL/MOL
REMARK 924 INTRA-LIGAND FREE ENERGY PREDICTED BY IDOCK:   -1.74 KCAL/MOL
REMARK 927      BINDING AFFINITY PREDICTED BY RF-SCORE:    0.00 PKD
ROOT
HETATM    1 MG   UNL     3      -8.837   6.742  66.901  1.00  0.00    -0.109 Mg 
HETATM    2  O   UNL     4      -7.011  10.526  62.334  1.00  0.00    -0.139 OA 
HETATM    3  C   UNL     4      -7.026  10.231  63.717  1.00  0.00    -0.059 C  
HETATM    4  H   UNL     4      -6.177  10.330  61.922  1.00  0.00     0.000 HD 
HETATM    5  O   UNL     5     -14.216   7.234  72.382  1.00  0.00    -0.561 OA 
HETATM    6  H   UNL     5     -15.053   6.899  72.082  1.00  0.00     0.000 HD 
HETATM    7  C   UNL     5     -13.650   8.154  71.449  1.00  0.00    -0.222 C  
ENDROOT
BRANCH   3   8
HETATM    8  C   UNL     4      -8.374  10.548  64.381  1.00  0.00    -0.097 C  
HETATM    9  O   UNL     4      -8.148  11.155  65.668  1.00  0.00    -0.348 OA 
HETATM   10  H   UNL     4      -8.982  11.351  66.079  1.00  0.00     0.000 HD 
BRANCH   8  11
HETATM   11  C   UNL     4      -9.382  11.466  63.631  1.00  0.00    -0.131 C  
HETATM   12  O   UNL     4     -10.123  10.784  62.625  1.00  0.00    -0.701 OA 
HETATM   13  H   UNL     4     -10.739  11.345  62.167  1.00  0.00     0.000 HD 
BRANCH  11  14
HETATM   14  C   UNL     4     -10.297  12.390  64.480  1.00  0.00    -0.325 C  
HETATM   15  H   UNL     4     -11.259  12.191  66.169  1.00  0.00     0.000 HD 
HETATM   16  O   UNL     4     -10.699  11.625  65.650  1.00  0.00    -0.266 OA 
BRANCH  14  17
HETATM   17  C   UNL     4     -11.530  13.080  63.828  1.00  0.00    -0.429 C  
HETATM   18  C   UNL     4     -11.930  14.429  64.556  1.00  0.00    -0.472 C  
HETATM   19  H   UNL     4     -13.370  12.585  63.226  1.00  0.00     0.000 HD 
HETATM   20  O   UNL     4     -12.618  12.164  63.625  1.00  0.00    -0.623 OA 
HETATM   21  O   UNL     4     -10.908  15.129  64.959  1.00  0.00    -0.388 OA 
HETATM   22  O   UNL     4     -13.150  14.672  64.765  1.00  0.00    -0.405 OA 
ENDBRANCH  14  17
ENDBRANCH  11  14
ENDBRANCH   8  11
ENDBRANCH   3   8
BRANCH   7  23
HETATM   23  C   UNL     5     -12.291   8.698  71.936  1.00  0.00    -0.354 C  
HETATM   24  O   UNL     5     -11.974   8.065  73.177  1.00  0.00    -0.646 OA 
HETATM   25  H   UNL     5     -11.137   8.400  73.477  1.00  0.00     0.000 HD 
BRANCH  23  26
HETATM   26  C   UNL     5     -11.177   8.466  70.892  1.00  0.00    -0.262 C  
HETATM   27  O   UNL     5     -11.042   7.048  70.642  1.00  0.00    -0.249 OA 
HETATM   28  H   UNL     5     -10.356   6.906  70.000  1.00  0.00     0.000 HD 
BRANCH  26  29
HETATM   29  C   UNL     5     -11.264   9.243  69.549  1.00  0.00     0.004 C  
HETATM   30  O   UNL     5     -10.896   8.449  68.422  1.00  0.00    -0.428 OA 
HETATM   31  H   UNL     5     -10.949   8.924  67.601  1.00  0.00     0.000 HD 
BRANCH  29  32
HETATM   32  C   UNL     5     -10.624  10.639  69.484  1.00  0.00    -0.230 C  
HETATM   33  C   UNL     5     -11.573  11.831  69.726  1.00  0.00    -0.299 C  
HETATM   34  O   UNL     5      -9.903  10.815  68.212  1.00  0.00    -0.157 OA 
HETATM   35  O   UNL     5     -12.517  11.659  70.553  1.00  0.00    -0.308 OA 
HETATM   36  O   UNL     5     -11.317  12.847  68.986  1.00  0.00    -0.261 OA 
HETATM   37  H   UNL     5      -9.507  11.678  68.172  1.00  0.00     0.000 HD 
ENDBRANCH  29  32
ENDBRANCH  26  29
ENDBRANCH  23  26
ENDBRANCH   7  23
TORSDOF 8
ENDMDL
MODEL      192
REMARK 921   NORMALIZED FREE ENERGY PREDICTED BY IDOCK:   -5.42 KCAL/MOL
REMARK 922        TOTAL FREE ENERGY PREDICTED BY IDOCK:  -10.19 KCAL/MOL
REMARK 923 INTER-LIGAND FREE ENERGY PREDICTED BY IDOCK:   -9.24 KCAL/MOL
REMARK 924 INTRA-LIGAND FREE ENERGY PREDICTED BY IDOCK:   -0.96 KCAL/MOL
REMARK 927      BINDING AFFINITY PREDICTED BY RF-SCORE:    0.00 PKD
ROOT
HETATM    1 MG   UNL     3     -10.010  14.436  69.184  1.00  0.00    -0.201 Mg 
HETATM    2  O   UNL     4     -12.533  15.216  63.568  1.00  0.00    -0.851 OA 
HETATM    3  C   UNL     4     -12.697  14.817  64.915  1.00  0.00     0.052 C  
HETATM    4  H   UNL     4     -12.916  16.066  63.384  1.00  0.00     0.000 HD 
HETATM    5  O   UNL     5      -7.792   8.261  73.205  1.00  0.00    -0.185 OA 
HETATM    6  H   UNL     5      -6.889   8.029  73.021  1.00  0.00     0.000 HD 
HETATM    7  C   UNL     5      -8.542   8.459  72.007  1.00  0.00    -0.191 C  
ENDROOT
BRANCH   3   8
HETATM    8  C   UNL     4     -12.078  13.443  65.211  1.00  0.00    -0.413 C  
HETATM    9  O   UNL     4     -12.826  12.418  64.529  1.00  0.00    -0.680 OA 
HETATM   10  H   UNL     4     -12.443  11.568  64.713  1.00  0.00     0.000 HD 
BRANCH   8  11
HETATM   11  C   UNL     4     -10.581  13.203  64.860  1.00  0.00    -0.349 C  
HETATM   12  O   UNL     4      -9.803  14.395  64.868  1.00  0.00    -0.512 OA 
HETATM   13  H   UNL     4      -8.889  14.248  64.654  1.00  0.00     0.000 HD 
BRANCH  11  14
HETATM   14  C   UNL     4      -9.842  12.040  65.576  1.00  0.00    -0.229 C  
HETATM   15  H   UNL     4      -9.983  10.092  65.532  1.00  0.00     0.000 HD 
HETATM   16  O   UNL     4     -10.435  10.803  65.094  1.00  0.00    -0.285 OA 
BRANCH  14  17
HETATM   17  C   UNL     4      -9.731  12.024  67.128  1.00  0.00    -0.197 C  
HETATM   18  C   UNL     4     -11.142  11.897  67.839  1.00  0.00    -0.242 C  
HETATM   19  H   UNL     4      -8.838  13.081  68.570  1.00  0.00     0.000 HD 
HETATM   20  O   UNL     4      -8.906  13.090  67.623  1.00  0.00    -0.169 OA 
HETATM   21  O   UNL     4     -11.971  11.106  67.220  1.00  0.00    -0.452 OA 
HETATM   22  O   UNL     4     -11.381  12.609  68.853  1.00  0.00    -0.260 OA 
ENDBRANCH  14  17
ENDBRANCH  11  14
ENDBRANCH   8  11
ENDBRANCH   3   8
BRANCH   7  23
HETATM   23  C   UNL     5     -10.007   8.835  72.305  1.00  0.00    -0.232 C  
HETATM   24  O   UNL     5     -10.426   9.804  71.341  1.00  0.00    -0.208 OA 
HETATM   25  H   UNL     5     -11.329  10.035  71.525  1.00  0.00     0.000 HD 
BRANCH  23  26
HETATM   26  C   UNL     5     -10.930   7.597  72.286  1.00  0.00    -0.279 C  
HETATM   27  O   UNL     5     -11.286   7.245  73.642  1.00  0.00    -0.570 OA 
HETATM   28  H   UNL     5     -11.854   6.483  73.631  1.00  0.00     0.000 HD 
BRANCH  26  29
HETATM   29  C   UNL     5     -12.200   7.649  71.393  1.00  0.00    -0.326 C  
HETATM   30  O   UNL     5     -11.898   7.796  70.005  1.00  0.00    -0.461 OA 
HETATM   31  H   UNL     5     -12.675   7.828  69.459  1.00  0.00     0.000 HD 
BRANCH  29  32
HETATM   32  C   UNL     5     -13.341   8.587  71.820  1.00  0.00    -0.367 C  
HETATM   33  C   UNL     5     -13.268  10.031  71.281  1.00  0.00    -0.383 C  
HETATM   34  O   UNL     5     -13.476   8.598  73.285  1.00  0.00    -0.835 OA 
HETATM   35  O   UNL     5     -12.782  10.191  70.122  1.00  0.00    -0.133 OA 
HETATM   36  O   UNL     5     -13.656  10.912  72.129  1.00  0.00    -0.280 OA 
HETATM   37  H   UNL     5     -14.181   9.177  73.550  1.00  0.00     0.000 HD 
ENDBRANCH  29  32
ENDBRANCH  26  29
ENDBRANCH  23  26
ENDBRANCH   7  23
TORSDOF 8
ENDMDL
MODEL      193
REMARK 921   NORMALIZED FREE ENERGY PREDICTED BY IDOCK:   -5.41 KCAL/MOL
REMARK 922        TOTAL FREE ENERGY PREDICTED BY IDOCK:  -10.18 KCAL/MOL
REMARK 923 INTER-LIGAND FREE ENERGY PREDICTED BY IDOCK:   -8.54 KCAL/MOL
REMARK 924 INTRA-LIGAND FREE ENERGY PREDICTED BY IDOCK:   -1.64 KCAL/MOL
REMARK 927      BINDING AFFINITY PREDICTED BY RF-SCORE:    0.00 PKD
ROOT
HETATM    1 MG   UNL     3     -10.591   8.954  65.990  1.00  0.00    -0.287 Mg 
HETATM    2  O   UNL     4     -12.425  14.236  63.297  1.00  0.00    -1.133 OA 
HETATM    3  C   UNL     4     -11.556  13.588  64.205  1.00  0.00    -0.397 C  
HETATM    4  H   UNL     4     -12.000  14.471  62.480  1.00  0.00     0.000 HD 
HETATM    5  O   UNL     5     -11.513   5.974  73.025  1.00  0.00    -0.457 OA 
HETATM    6  H   UNL     5     -12.308   5.459  73.085  1.00  0.00     0.000 HD 
HETATM    7  C   UNL     5     -11.754   7.254  72.440  1.00  0.00    -0.239 C  
ENDROOT
BRANCH   3   8
HETATM    8  C   UNL     4     -12.244  13.209  65.525  1.00  0.00    -0.461 C  
HETATM    9  O   UNL     4     -11.869  11.869  65.899  1.00  0.00    -0.466 OA 
HETATM   10  H   UNL     4     -12.295  11.635  66.715  1.00  0.00     0.000 HD 
BRANCH   8  11
HETATM   11  C   UNL     4     -12.004  14.100  66.779  1.00  0.00    -0.447 C  
HETATM   12  O   UNL     4     -12.052  13.374  68.002  1.00  0.00    -0.342 OA 
HETATM   13  H   UNL     4     -11.906  13.918  68.767  1.00  0.00     0.000 HD 
BRANCH  11  14
HETATM   14  C   UNL     4     -10.807  15.088  66.752  1.00  0.00    -0.318 C  
HETATM   15  H   UNL     4      -8.868  14.897  66.895  1.00  0.00     0.000 HD 
HETATM   16  O   UNL     4      -9.601  14.292  66.911  1.00  0.00    -0.242 OA 
BRANCH  14  17
HETATM   17  C   UNL     4     -10.785  16.312  67.711  1.00  0.00    -0.325 C  
HETATM   18  C   UNL     4      -9.669  17.369  67.326  1.00  0.00    -0.267 C  
HETATM   19  H   UNL     4     -10.770  16.666  69.679  1.00  0.00     0.000 HD 
HETATM   20  O   UNL     4     -10.783  15.918  69.093  1.00  0.00    -0.226 OA 
HETATM   21  O   UNL     4      -9.515  17.524  66.041  1.00  0.00    -0.475 OA 
HETATM   22  O   UNL     4      -8.979  17.892  68.244  1.00  0.00    -0.262 OA 
ENDBRANCH  14  17
ENDBRANCH  11  14
ENDBRANCH   8  11
ENDBRANCH   3   8
BRANCH   7  23
HETATM   23  C   UNL     5     -10.463   8.091  72.342  1.00  0.00    -0.301 C  
HETATM   24  O   UNL     5      -9.382   7.308  72.852  1.00  0.00    -0.141 OA 
HETATM   25  H   UNL     5      -8.586   7.823  72.791  1.00  0.00     0.000 HD 
BRANCH  23  26
HETATM   26  C   UNL     5     -10.186   8.545  70.892  1.00  0.00    -0.200 C  
HETATM   27  O   UNL     5      -9.563   9.850  70.910  1.00  0.00    -0.272 OA 
HETATM   28  H   UNL     5      -9.392  10.129  70.018  1.00  0.00     0.000 HD 
BRANCH  26  29
HETATM   29  C   UNL     5      -9.391   7.582  69.967  1.00  0.00    -0.154 C  
HETATM   30  O   UNL     5      -8.051   8.014  69.735  1.00  0.00    -0.110 OA 
HETATM   31  H   UNL     5      -7.564   7.425  69.169  1.00  0.00     0.000 HD 
BRANCH  29  32
HETATM   32  C   UNL     5     -10.063   7.117  68.665  1.00  0.00    -0.173 C  
HETATM   33  C   UNL     5      -9.114   6.637  67.548  1.00  0.00    -0.116 C  
HETATM   34  O   UNL     5     -10.965   8.161  68.151  1.00  0.00    -0.450 OA 
HETATM   35  O   UNL     5      -8.057   6.038  67.906  1.00  0.00    -0.104 OA 
HETATM   36  O   UNL     5      -9.496   6.976  66.372  1.00  0.00    -0.175 OA 
HETATM   37  H   UNL     5     -11.380   7.874  67.347  1.00  0.00     0.000 HD 
ENDBRANCH  29  32
ENDBRANCH  26  29
ENDBRANCH  23  26
ENDBRANCH   7  23
TORSDOF 8
ENDMDL
MODEL      194
REMARK 921   NORMALIZED FREE ENERGY PREDICTED BY IDOCK:   -5.40 KCAL/MOL
REMARK 922        TOTAL FREE ENERGY PREDICTED BY IDOCK:  -10.17 KCAL/MOL
REMARK 923 INTER-LIGAND FREE ENERGY PREDICTED BY IDOCK:   -8.27 KCAL/MOL
REMARK 924 INTRA-LIGAND FREE ENERGY PREDICTED BY IDOCK:   -1.90 KCAL/MOL
REMARK 927      BINDING AFFINITY PREDICTED BY RF-SCORE:    0.00 PKD
ROOT
HETATM    1 MG   UNL     3     -12.967  15.429  70.955  1.00  0.00    -0.301 Mg 
HETATM    2  O   UNL     4     -13.190   9.229  70.802  1.00  0.00    -0.538 OA 
HETATM    3  C   UNL     4     -12.421  10.401  70.995  1.00  0.00    -0.388 C  
HETATM    4  H   UNL     4     -13.404   8.788  71.616  1.00  0.00     0.000 HD 
HETATM    5  O   UNL     5     -10.124  20.766  66.195  1.00  0.00    -0.438 OA 
HETATM    6  H   UNL     5     -10.765  21.035  65.548  1.00  0.00     0.000 HD 
HETATM    7  C   UNL     5     -10.023  19.345  66.281  1.00  0.00    -0.430 C  
ENDROOT
BRANCH   3   8
HETATM    8  C   UNL     4     -12.076  11.113  69.679  1.00  0.00    -0.336 C  
HETATM    9  O   UNL     4     -11.344  12.321  69.961  1.00  0.00    -0.511 OA 
HETATM   10  H   UNL     4     -11.131  12.762  69.146  1.00  0.00     0.000 HD 
BRANCH   8  11
HETATM   11  C   UNL     4     -11.259  10.343  68.601  1.00  0.00    -0.248 C  
HETATM   12  O   UNL     4     -10.804  11.175  67.540  1.00  0.00    -0.219 OA 
HETATM   13  H   UNL     4     -10.305  10.705  66.882  1.00  0.00     0.000 HD 
BRANCH  11  14
HETATM   14  C   UNL     4     -10.143   9.378  69.084  1.00  0.00    -0.195 C  
HETATM   15  H   UNL     4      -8.198   9.334  68.907  1.00  0.00     0.000 HD 
HETATM   16  O   UNL     4      -8.881   9.925  68.612  1.00  0.00    -0.122 OA 
BRANCH  14  17
HETATM   17  C   UNL     4     -10.234   7.858  68.766  1.00  0.00    -0.205 C  
HETATM   18  C   UNL     4     -10.552   7.572  67.240  1.00  0.00    -0.324 C  
HETATM   19  H   UNL     4     -11.135   6.232  69.501  1.00  0.00     0.000 HD 
HETATM   20  O   UNL     4     -11.079   7.161  69.695  1.00  0.00    -0.239 OA 
HETATM   21  O   UNL     4      -9.961   8.392  66.419  1.00  0.00    -0.263 OA 
HETATM   22  O   UNL     4     -11.388   6.673  66.949  1.00  0.00    -0.333 OA 
ENDBRANCH  14  17
ENDBRANCH  11  14
ENDBRANCH   8  11
ENDBRANCH   3   8
BRANCH   7  23
HETATM   23  C   UNL     5      -8.982  18.908  67.332  1.00  0.00    -0.276 C  
HETATM   24  O   UNL     5      -9.183  19.688  68.512  1.00  0.00    -0.344 OA 
HETATM   25  H   UNL     5      -8.542  19.419  69.159  1.00  0.00     0.000 HD 
BRANCH  23  26
HETATM   26  C   UNL     5      -9.081  17.398  67.639  1.00  0.00    -0.234 C  
HETATM   27  O   UNL     5      -8.336  17.104  68.844  1.00  0.00    -0.252 OA 
HETATM   28  H   UNL     5      -8.396  16.175  69.033  1.00  0.00     0.000 HD 
BRANCH  26  29
HETATM   29  C   UNL     5     -10.497  16.761  67.714  1.00  0.00    -0.335 C  
HETATM   30  O   UNL     5     -10.929  16.523  69.053  1.00  0.00    -0.309 OA 
HETATM   31  H   UNL     5     -11.795  16.134  69.099  1.00  0.00     0.000 HD 
BRANCH  29  32
HETATM   32  C   UNL     5     -10.791  15.554  66.808  1.00  0.00    -0.291 C  
HETATM   33  C   UNL     5     -10.043  14.250  67.154  1.00  0.00    -0.254 C  
HETATM   34  O   UNL     5     -10.570  15.906  65.395  1.00  0.00    -0.378 OA 
HETATM   35  O   UNL     5      -9.820  14.020  68.380  1.00  0.00    -0.224 OA 
HETATM   36  O   UNL     5      -9.674  13.583  66.122  1.00  0.00    -0.284 OA 
HETATM   37  H   UNL     5     -10.752  15.161  64.835  1.00  0.00     0.000 HD 
ENDBRANCH  29  32
ENDBRANCH  26  29
ENDBRANCH  23  26
ENDBRANCH   7  23
TORSDOF 8
ENDMDL
MODEL      195
REMARK 921   NORMALIZED FREE ENERGY PREDICTED BY IDOCK:   -5.40 KCAL/MOL
REMARK 922        TOTAL FREE ENERGY PREDICTED BY IDOCK:  -10.17 KCAL/MOL
REMARK 923 INTER-LIGAND FREE ENERGY PREDICTED BY IDOCK:   -9.22 KCAL/MOL
REMARK 924 INTRA-LIGAND FREE ENERGY PREDICTED BY IDOCK:   -0.95 KCAL/MOL
REMARK 927      BINDING AFFINITY PREDICTED BY RF-SCORE:    0.00 PKD
ROOT
HETATM    1 MG   UNL     3      -8.122  10.452  69.683  1.00  0.00    -0.102 Mg 
HETATM    2  O   UNL     4      -9.526   4.429  69.162  1.00  0.00    -0.142 OA 
HETATM    3  C   UNL     4      -9.741   5.756  68.724  1.00  0.00    -0.132 C  
HETATM    4  H   UNL     4      -9.004   3.918  68.554  1.00  0.00     0.000 HD 
HETATM    5  O   UNL     5     -11.768  16.518  72.702  1.00  0.00    -0.500 OA 
HETATM    6  H   UNL     5     -11.562  16.628  73.623  1.00  0.00     0.000 HD 
HETATM    7  C   UNL     5     -12.142  15.175  72.399  1.00  0.00    -0.387 C  
ENDROOT
BRANCH   3   8
HETATM    8  C   UNL     4     -10.585   6.581  69.707  1.00  0.00    -0.235 C  
HETATM    9  O   UNL     4     -11.941   6.666  69.229  1.00  0.00    -0.545 OA 
HETATM   10  H   UNL     4     -12.463   7.176  69.837  1.00  0.00     0.000 HD 
BRANCH   8  11
HETATM   11  C   UNL     4     -10.669   6.122  71.192  1.00  0.00    -0.256 C  
HETATM   12  O   UNL     4      -9.419   5.692  71.720  1.00  0.00    -0.148 OA 
HETATM   13  H   UNL     4      -9.470   5.412  72.626  1.00  0.00     0.000 HD 
BRANCH  11  14
HETATM   14  C   UNL     4     -11.423   7.035  72.196  1.00  0.00    -0.274 C  
HETATM   15  H   UNL     4     -13.298   7.511  72.475  1.00  0.00     0.000 HD 
HETATM   16  O   UNL     4     -12.836   6.952  71.862  1.00  0.00    -0.333 OA 
BRANCH  14  17
HETATM   17  C   UNL     4     -10.991   8.519  72.377  1.00  0.00    -0.320 C  
HETATM   18  C   UNL     4     -11.715   9.494  71.359  1.00  0.00    -0.393 C  
HETATM   19  H   UNL     4      -9.299   9.569  72.544  1.00  0.00     0.000 HD 
HETATM   20  O   UNL     4      -9.563   8.664  72.433  1.00  0.00    -0.288 OA 
HETATM   21  O   UNL     4     -12.959   9.184  71.131  1.00  0.00    -0.279 OA 
HETATM   22  O   UNL     4     -11.040  10.401  70.798  1.00  0.00    -0.304 OA 
ENDBRANCH  14  17
ENDBRANCH  11  14
ENDBRANCH   8  11
ENDBRANCH   3   8
BRANCH   7  23
HETATM   23  C   UNL     5     -12.475  14.997  70.904  1.00  0.00    -0.345 C  
HETATM   24  O   UNL     5     -13.791  15.503  70.675  1.00  0.00    -0.864 OA 
HETATM   25  H   UNL     5     -13.997  15.394  69.754  1.00  0.00     0.000 HD 
BRANCH  23  26
HETATM   26  C   UNL     5     -11.442  15.705  70.001  1.00  0.00    -0.344 C  
HETATM   27  O   UNL     5     -10.107  15.373  70.447  1.00  0.00    -0.439 OA 
HETATM   28  H   UNL     5      -9.472  15.809  69.891  1.00  0.00     0.000 HD 
BRANCH  26  29
HETATM   29  C   UNL     5     -11.561  15.505  68.464  1.00  0.00    -0.368 C  
HETATM   30  O   UNL     5     -12.414  14.417  68.110  1.00  0.00    -0.579 OA 
HETATM   31  H   UNL     5     -12.487  14.295  67.170  1.00  0.00     0.000 HD 
BRANCH  29  32
HETATM   32  C   UNL     5     -10.264  15.491  67.638  1.00  0.00    -0.255 C  
HETATM   33  C   UNL     5     -10.000  16.740  66.772  1.00  0.00    -0.282 C  
HETATM   34  O   UNL     5     -10.195  14.275  66.810  1.00  0.00    -0.264 OA 
HETATM   35  O   UNL     5     -10.388  17.855  67.233  1.00  0.00    -0.343 OA 
HETATM   36  O   UNL     5      -9.469  16.471  65.636  1.00  0.00    -0.497 OA 
HETATM   37  H   UNL     5      -9.394  14.267  66.300  1.00  0.00     0.000 HD 
ENDBRANCH  29  32
ENDBRANCH  26  29
ENDBRANCH  23  26
ENDBRANCH   7  23
TORSDOF 8
ENDMDL
MODEL      196
REMARK 921   NORMALIZED FREE ENERGY PREDICTED BY IDOCK:   -5.40 KCAL/MOL
REMARK 922        TOTAL FREE ENERGY PREDICTED BY IDOCK:  -10.17 KCAL/MOL
REMARK 923 INTER-LIGAND FREE ENERGY PREDICTED BY IDOCK:   -9.56 KCAL/MOL
REMARK 924 INTRA-LIGAND FREE ENERGY PREDICTED BY IDOCK:   -0.61 KCAL/MOL
REMARK 927      BINDING AFFINITY PREDICTED BY RF-SCORE:    0.00 PKD
ROOT
HETATM    1 MG   UNL     3      -7.068  11.389  68.604  1.00  0.00    -0.062 Mg 
HETATM    2  O   UNL     4      -9.728   5.957  69.997  1.00  0.00    -0.159 OA 
HETATM    3  C   UNL     4      -9.401   6.919  69.012  1.00  0.00    -0.135 C  
HETATM    4  H   UNL     4      -9.173   5.187  69.960  1.00  0.00     0.000 HD 
HETATM    5  O   UNL     5      -9.815  18.365  66.871  1.00  0.00    -0.307 OA 
HETATM    6  H   UNL     5      -9.947  18.892  67.650  1.00  0.00     0.000 HD 
HETATM    7  C   UNL     5     -10.392  17.067  67.006  1.00  0.00    -0.304 C  
ENDROOT
BRANCH   3   8
HETATM    8  C   UNL     4     -10.298   8.165  69.072  1.00  0.00    -0.218 C  
HETATM    9  O   UNL     4     -11.213   8.156  67.960  1.00  0.00    -0.319 OA 
HETATM   10  H   UNL     4     -11.768   8.927  67.997  1.00  0.00     0.000 HD 
BRANCH   8  11
HETATM   11  C   UNL     4     -11.156   8.411  70.348  1.00  0.00    -0.231 C  
HETATM   12  O   UNL     4     -12.142   7.408  70.565  1.00  0.00    -0.513 OA 
HETATM   13  H   UNL     4     -12.665   7.558  71.344  1.00  0.00     0.000 HD 
BRANCH  11  14
HETATM   14  C   UNL     4     -10.416   8.774  71.664  1.00  0.00    -0.317 C  
HETATM   15  H   UNL     4      -8.596   9.331  72.105  1.00  0.00     0.000 HD 
HETATM   16  O   UNL     4      -9.049   9.109  71.300  1.00  0.00    -0.234 OA 
BRANCH  14  17
HETATM   17  C   UNL     4     -10.436   7.788  72.867  1.00  0.00    -0.350 C  
HETATM   18  C   UNL     4      -9.071   7.781  73.672  1.00  0.00    -0.286 C  
HETATM   19  H   UNL     4     -10.929   5.885  73.228  1.00  0.00     0.000 HD 
HETATM   20  O   UNL     4     -10.916   6.487  72.493  1.00  0.00    -0.229 OA 
HETATM   21  O   UNL     4      -8.521   8.956  73.781  1.00  0.00    -0.190 OA 
HETATM   22  O   UNL     4      -8.591   6.677  74.052  1.00  0.00    -0.128 OA 
ENDBRANCH  14  17
ENDBRANCH  11  14
ENDBRANCH   8  11
ENDBRANCH   3   8
BRANCH   7  23
HETATM   23  C   UNL     5     -10.177  16.210  65.742  1.00  0.00    -0.374 C  
HETATM   24  O   UNL     5      -9.457  15.034  66.115  1.00  0.00    -0.286 OA 
HETATM   25  H   UNL     5      -9.324  14.507  65.337  1.00  0.00     0.000 HD 
BRANCH  23  26
HETATM   26  C   UNL     5     -11.515  15.851  65.061  1.00  0.00    -0.079 C  
HETATM   27  O   UNL     5     -11.529  16.388  63.719  1.00  0.00    -1.590 OA 
HETATM   28  H   UNL     5     -12.353  16.167  63.299  1.00  0.00     0.000 HD 
BRANCH  26  29
HETATM   29  C   UNL     5     -11.947  14.358  65.048  1.00  0.00    -0.412 C  
HETATM   30  O   UNL     5     -11.810  13.729  66.322  1.00  0.00    -0.357 OA 
HETATM   31  H   UNL     5     -12.074  12.816  66.314  1.00  0.00     0.000 HD 
BRANCH  29  32
HETATM   32  C   UNL     5     -11.407  13.463  63.920  1.00  0.00    -0.260 C  
HETATM   33  C   UNL     5     -12.069  12.076  63.782  1.00  0.00    -0.499 C  
HETATM   34  O   UNL     5      -9.946  13.320  64.033  1.00  0.00    -0.762 OA 
HETATM   35  O   UNL     5     -13.304  11.996  64.051  1.00  0.00    -0.703 OA 
HETATM   36  O   UNL     5     -11.243  11.146  63.469  1.00  0.00    -0.253 OA 
HETATM   37  H   UNL     5      -9.612  12.767  63.337  1.00  0.00     0.000 HD 
ENDBRANCH  29  32
ENDBRANCH  26  29
ENDBRANCH  23  26
ENDBRANCH   7  23
TORSDOF 8
ENDMDL
MODEL      197
REMARK 921   NORMALIZED FREE ENERGY PREDICTED BY IDOCK:   -5.40 KCAL/MOL
REMARK 922        TOTAL FREE ENERGY PREDICTED BY IDOCK:  -10.16 KCAL/MOL
REMARK 923 INTER-LIGAND FREE ENERGY PREDICTED BY IDOCK:   -8.50 KCAL/MOL
REMARK 924 INTRA-LIGAND FREE ENERGY PREDICTED BY IDOCK:   -1.66 KCAL/MOL
REMARK 927      BINDING AFFINITY PREDICTED BY RF-SCORE:    0.00 PKD
ROOT
HETATM    1 MG   UNL     3     -12.530  10.226  68.271  1.00  0.00    -0.446 Mg 
HETATM    2  O   UNL     4     -12.488  14.025  63.364  1.00  0.00    -1.108 OA 
HETATM    3  C   UNL     4     -12.318  12.716  63.873  1.00  0.00    -0.459 C  
HETATM    4  H   UNL     4     -13.311  14.140  62.903  1.00  0.00     0.000 HD 
HETATM    5  O   UNL     5      -7.007   6.799  72.389  1.00  0.00    -0.066 OA 
HETATM    6  H   UNL     5      -6.714   7.347  73.107  1.00  0.00     0.000 HD 
HETATM    7  C   UNL     5      -7.037   7.514  71.155  1.00  0.00    -0.058 C  
ENDROOT
BRANCH   3   8
HETATM    8  C   UNL     4     -10.987  12.531  64.617  1.00  0.00    -0.310 C  
HETATM    9  O   UNL     4      -9.936  13.206  63.902  1.00  0.00    -0.760 OA 
HETATM   10  H   UNL     4      -9.112  13.091  64.362  1.00  0.00     0.000 HD 
BRANCH   8  11
HETATM   11  C   UNL     4     -10.884  12.999  66.098  1.00  0.00    -0.279 C  
HETATM   12  O   UNL     4     -10.708  11.925  67.016  1.00  0.00    -0.223 OA 
HETATM   13  H   UNL     4     -10.645  12.211  67.920  1.00  0.00     0.000 HD 
BRANCH  11  14
HETATM   14  C   UNL     4      -9.935  14.184  66.423  1.00  0.00    -0.293 C  
HETATM   15  H   UNL     4      -8.432  14.441  67.644  1.00  0.00     0.000 HD 
HETATM   16  O   UNL     4      -9.012  13.716  67.445  1.00  0.00    -0.197 OA 
BRANCH  14  17
HETATM   17  C   UNL     4     -10.524  15.570  66.812  1.00  0.00    -0.295 C  
HETATM   18  C   UNL     4     -10.581  16.574  65.587  1.00  0.00    -0.304 C  
HETATM   19  H   UNL     4     -10.271  16.952  68.234  1.00  0.00     0.000 HD 
HETATM   20  O   UNL     4      -9.911  16.106  67.996  1.00  0.00    -0.232 OA 
HETATM   21  O   UNL     4     -10.899  16.006  64.459  1.00  0.00    -0.588 OA 
HETATM   22  O   UNL     4     -10.241  17.776  65.766  1.00  0.00    -0.566 OA 
ENDBRANCH  14  17
ENDBRANCH  11  14
ENDBRANCH   8  11
ENDBRANCH   3   8
BRANCH   7  23
HETATM   23  C   UNL     5      -7.513   6.624  69.989  1.00  0.00    -0.094 C  
HETATM   24  O   UNL     5      -6.456   5.723  69.653  1.00  0.00    -0.038 OA 
HETATM   25  H   UNL     5      -6.749   5.174  68.935  1.00  0.00     0.000 HD 
BRANCH  23  26
HETATM   26  C   UNL     5      -8.805   5.857  70.347  1.00  0.00    -0.143 C  
HETATM   27  O   UNL     5      -8.464   4.667  71.095  1.00  0.00    -0.103 OA 
HETATM   28  H   UNL     5      -9.259   4.195  71.315  1.00  0.00     0.000 HD 
BRANCH  26  29
HETATM   29  C   UNL     5      -9.939   6.638  71.067  1.00  0.00    -0.183 C  
HETATM   30  O   UNL     5     -10.842   5.786  71.770  1.00  0.00    -0.241 OA 
HETATM   31  H   UNL     5     -11.535   6.263  72.210  1.00  0.00     0.000 HD 
BRANCH  29  32
HETATM   32  C   UNL     5     -10.693   7.712  70.265  1.00  0.00    -0.239 C  
HETATM   33  C   UNL     5     -10.719   9.125  70.883  1.00  0.00    -0.275 C  
HETATM   34  O   UNL     5     -12.064   7.263  69.967  1.00  0.00    -0.522 OA 
HETATM   35  O   UNL     5      -9.692   9.491  71.530  1.00  0.00    -0.195 OA 
HETATM   36  O   UNL     5     -11.834   9.736  70.716  1.00  0.00    -0.287 OA 
HETATM   37  H   UNL     5     -12.530   7.926  69.472  1.00  0.00     0.000 HD 
ENDBRANCH  29  32
ENDBRANCH  26  29
ENDBRANCH  23  26
ENDBRANCH   7  23
TORSDOF 8
ENDMDL
MODEL      198
REMARK 921   NORMALIZED FREE ENERGY PREDICTED BY IDOCK:   -5.40 KCAL/MOL
REMARK 922        TOTAL FREE ENERGY PREDICTED BY IDOCK:  -10.16 KCAL/MOL
REMARK 923 INTER-LIGAND FREE ENERGY PREDICTED BY IDOCK:   -8.50 KCAL/MOL
REMARK 924 INTRA-LIGAND FREE ENERGY PREDICTED BY IDOCK:   -1.67 KCAL/MOL
REMARK 927      BINDING AFFINITY PREDICTED BY RF-SCORE:    0.00 PKD
ROOT
HETATM    1 MG   UNL     3      -7.275  14.031  66.430  1.00  0.00    -0.221 Mg 
HETATM    2  O   UNL     4     -10.937  18.752  64.751  1.00  0.00    -0.283 OA 
HETATM    3  C   UNL     4     -10.631  17.744  65.695  1.00  0.00    -0.123 C  
HETATM    4  H   UNL     4     -10.676  19.620  65.038  1.00  0.00     0.000 HD 
HETATM    5  O   UNL     5      -8.161   6.388  66.520  1.00  0.00    -0.107 OA 
HETATM    6  H   UNL     5      -7.899   5.995  65.695  1.00  0.00     0.000 HD 
HETATM    7  C   UNL     5      -9.040   7.495  66.323  1.00  0.00    -0.157 C  
ENDROOT
BRANCH   3   8
HETATM    8  C   UNL     4     -11.053  16.342  65.232  1.00  0.00    -0.113 C  
HETATM    9  O   UNL     4     -11.538  16.406  63.877  1.00  0.00    -1.564 OA 
HETATM   10  H   UNL     4     -11.799  15.538  63.590  1.00  0.00     0.000 HD 
BRANCH   8  11
HETATM   11  C   UNL     4     -10.005  15.192  65.272  1.00  0.00    -0.290 C  
HETATM   12  O   UNL     4      -8.869  15.493  66.075  1.00  0.00    -0.399 OA 
HETATM   13  H   UNL     4      -8.230  14.791  66.099  1.00  0.00     0.000 HD 
BRANCH  11  14
HETATM   14  C   UNL     4     -10.517  13.749  65.532  1.00  0.00    -0.318 C  
HETATM   15  H   UNL     4     -10.109  12.367  66.851  1.00  0.00     0.000 HD 
HETATM   16  O   UNL     4      -9.796  13.249  66.692  1.00  0.00    -0.261 OA 
BRANCH  14  17
HETATM   17  C   UNL     4     -10.503  12.698  64.385  1.00  0.00    -0.373 C  
HETATM   18  C   UNL     4     -11.889  12.613  63.620  1.00  0.00    -0.530 C  
HETATM   19  H   UNL     4      -9.971  10.790  64.117  1.00  0.00     0.000 HD 
HETATM   20  O   UNL     4      -9.979  11.432  64.817  1.00  0.00    -0.241 OA 
HETATM   21  O   UNL     4     -12.472  13.766  63.462  1.00  0.00    -0.780 OA 
HETATM   22  O   UNL     4     -12.349  11.478  63.316  1.00  0.00    -0.346 OA 
ENDBRANCH  14  17
ENDBRANCH  11  14
ENDBRANCH   8  11
ENDBRANCH   3   8
BRANCH   7  23
HETATM   23  C   UNL     5      -9.464   8.132  67.662  1.00  0.00    -0.145 C  
HETATM   24  O   UNL     5      -9.904   9.467  67.403  1.00  0.00    -0.155 OA 
HETATM   25  H   UNL     5     -10.165   9.859  68.228  1.00  0.00     0.000 HD 
BRANCH  23  26
HETATM   26  C   UNL     5     -10.566   7.308  68.363  1.00  0.00    -0.170 C  
HETATM   27  O   UNL     5     -11.306   6.559  67.373  1.00  0.00    -0.694 OA 
HETATM   28  H   UNL     5     -11.985   6.052  67.804  1.00  0.00     0.000 HD 
BRANCH  26  29
HETATM   29  C   UNL     5     -10.146   6.381  69.537  1.00  0.00    -0.170 C  
HETATM   30  O   UNL     5     -11.247   5.986  70.355  1.00  0.00    -0.337 OA 
HETATM   31  H   UNL     5     -10.990   5.419  71.073  1.00  0.00     0.000 HD 
BRANCH  29  32
HETATM   32  C   UNL     5      -8.938   6.803  70.389  1.00  0.00    -0.152 C  
HETATM   33  C   UNL     5      -9.037   8.187  71.064  1.00  0.00    -0.152 C  
HETATM   34  O   UNL     5      -7.696   6.708  69.605  1.00  0.00    -0.102 OA 
HETATM   35  O   UNL     5     -10.184   8.562  71.449  1.00  0.00    -0.201 OA 
HETATM   36  O   UNL     5      -7.925   8.826  71.085  1.00  0.00    -0.114 OA 
HETATM   37  H   UNL     5      -6.950   6.969  70.131  1.00  0.00     0.000 HD 
ENDBRANCH  29  32
ENDBRANCH  26  29
ENDBRANCH  23  26
ENDBRANCH   7  23
TORSDOF 8
ENDMDL
MODEL      199
REMARK 921   NORMALIZED FREE ENERGY PREDICTED BY IDOCK:   -5.38 KCAL/MOL
REMARK 922        TOTAL FREE ENERGY PREDICTED BY IDOCK:  -10.15 KCAL/MOL
REMARK 923 INTER-LIGAND FREE ENERGY PREDICTED BY IDOCK:   -9.26 KCAL/MOL
REMARK 924 INTRA-LIGAND FREE ENERGY PREDICTED BY IDOCK:   -0.89 KCAL/MOL
REMARK 927      BINDING AFFINITY PREDICTED BY RF-SCORE:    0.00 PKD
ROOT
HETATM    1 MG   UNL     3      -9.979   9.090  62.916  1.00  0.00    -0.472 Mg 
HETATM    2  O   UNL     4      -8.843   4.438  66.864  1.00  0.00    -0.111 OA 
HETATM    3  C   UNL     4      -9.779   5.339  66.304  1.00  0.00    -0.169 C  
HETATM    4  H   UNL     4      -8.929   3.556  66.522  1.00  0.00     0.000 HD 
HETATM    5  O   UNL     5     -11.298  16.618  63.808  1.00  0.00    -1.457 OA 
HETATM    6  H   UNL     5     -10.490  17.119  63.803  1.00  0.00     0.000 HD 
HETATM    7  C   UNL     5     -11.225  15.503  64.696  1.00  0.00    -0.371 C  
ENDROOT
BRANCH   3   8
HETATM    8  C   UNL     4      -9.640   6.766  66.857  1.00  0.00    -0.160 C  
HETATM    9  O   UNL     4      -9.693   7.712  65.773  1.00  0.00    -0.393 OA 
HETATM   10  H   UNL     4      -9.607   8.594  66.115  1.00  0.00     0.000 HD 
BRANCH   8  11
HETATM   11  C   UNL     4     -10.661   7.259  67.923  1.00  0.00    -0.202 C  
HETATM   12  O   UNL     4     -11.742   6.356  68.128  1.00  0.00    -0.469 OA 
HETATM   13  H   UNL     4     -12.364   6.658  68.779  1.00  0.00     0.000 HD 
BRANCH  11  14
HETATM   14  C   UNL     4     -10.105   7.793  69.272  1.00  0.00    -0.199 C  
HETATM   15  H   UNL     4      -9.782   9.571  70.014  1.00  0.00     0.000 HD 
HETATM   16  O   UNL     4     -10.122   9.244  69.189  1.00  0.00    -0.186 OA 
BRANCH  14  17
HETATM   17  C   UNL     4      -8.731   7.291  69.802  1.00  0.00    -0.142 C  
HETATM   18  C   UNL     4      -8.854   6.525  71.184  1.00  0.00    -0.138 C  
HETATM   19  H   UNL     4      -6.893   8.016  70.100  1.00  0.00     0.000 HD 
HETATM   20  O   UNL     4      -7.732   8.322  69.776  1.00  0.00    -0.093 OA 
HETATM   21  O   UNL     4      -9.919   5.781  71.277  1.00  0.00    -0.180 OA 
HETATM   22  O   UNL     4      -8.001   6.752  72.086  1.00  0.00    -0.096 OA 
ENDBRANCH  14  17
ENDBRANCH  11  14
ENDBRANCH   8  11
ENDBRANCH   3   8
BRANCH   7  23
HETATM   23  C   UNL     5     -12.536  14.691  64.703  1.00  0.00    -0.286 C  
HETATM   24  O   UNL     5     -12.640  13.998  63.458  1.00  0.00    -0.989 OA 
HETATM   25  H   UNL     5     -13.448  13.498  63.463  1.00  0.00     0.000 HD 
BRANCH  23  26
HETATM   26  C   UNL     5     -12.592  13.709  65.894  1.00  0.00    -0.425 C  
HETATM   27  O   UNL     5     -12.557  12.352  65.397  1.00  0.00    -0.637 OA 
HETATM   28  H   UNL     5     -12.592  11.748  66.130  1.00  0.00     0.000 HD 
BRANCH  26  29
HETATM   29  C   UNL     5     -11.556  13.892  67.037  1.00  0.00    -0.369 C  
HETATM   30  O   UNL     5     -10.712  12.754  67.209  1.00  0.00    -0.234 OA 
HETATM   31  H   UNL     5     -10.078  12.865  67.908  1.00  0.00     0.000 HD 
BRANCH  29  32
HETATM   32  C   UNL     5     -12.062  14.422  68.388  1.00  0.00    -0.243 C  
HETATM   33  C   UNL     5     -11.310  15.641  68.962  1.00  0.00    -0.330 C  
HETATM   34  O   UNL     5     -12.104  13.338  69.384  1.00  0.00    -0.300 OA 
HETATM   35  O   UNL     5     -10.864  16.488  68.131  1.00  0.00    -0.328 OA 
HETATM   36  O   UNL     5     -11.170  15.603  70.236  1.00  0.00    -0.281 OA 
HETATM   37  H   UNL     5     -12.416  13.665  70.218  1.00  0.00     0.000 HD 
ENDBRANCH  29  32
ENDBRANCH  26  29
ENDBRANCH  23  26
ENDBRANCH   7  23
TORSDOF 8
ENDMDL
MODEL      200
REMARK 921   NORMALIZED FREE ENERGY PREDICTED BY IDOCK:   -5.38 KCAL/MOL
REMARK 922        TOTAL FREE ENERGY PREDICTED BY IDOCK:  -10.15 KCAL/MOL
REMARK 923 INTER-LIGAND FREE ENERGY PREDICTED BY IDOCK:   -9.13 KCAL/MOL
REMARK 924 INTRA-LIGAND FREE ENERGY PREDICTED BY IDOCK:   -1.02 KCAL/MOL
REMARK 927      BINDING AFFINITY PREDICTED BY RF-SCORE:    0.00 PKD
ROOT
HETATM    1 MG   UNL     3     -13.643  14.487  66.328  1.00  0.00    -0.555 Mg 
HETATM    2  O   UNL     4      -9.913  11.452  62.404  1.00  0.00    -0.510 OA 
HETATM    3  C   UNL     4     -10.761  11.407  63.536  1.00  0.00    -0.381 C  
HETATM    4  H   UNL     4     -10.317  11.088  61.624  1.00  0.00     0.000 HD 
HETATM    5  O   UNL     5     -12.905  16.841  73.617  1.00  0.00    -0.299 OA 
HETATM    6  H   UNL     5     -12.527  17.710  73.667  1.00  0.00     0.000 HD 
HETATM    7  C   UNL     5     -12.150  15.984  72.760  1.00  0.00    -0.531 C  
ENDROOT
BRANCH   3   8
HETATM    8  C   UNL     4     -10.108  11.995  64.795  1.00  0.00    -0.257 C  
HETATM    9  O   UNL     4      -9.711  13.357  64.544  1.00  0.00    -0.586 OA 
HETATM   10  H   UNL     4      -9.307  13.721  65.323  1.00  0.00     0.000 HD 
BRANCH   8  11
HETATM   11  C   UNL     4     -10.920  12.011  66.123  1.00  0.00    -0.302 C  
HETATM   12  O   UNL     4     -12.218  12.578  65.983  1.00  0.00    -0.605 OA 
HETATM   13  H   UNL     4     -12.713  12.587  66.793  1.00  0.00     0.000 HD 
BRANCH  11  14
HETATM   14  C   UNL     4     -10.959  10.709  66.968  1.00  0.00    -0.208 C  
HETATM   15  H   UNL     4     -12.023  10.090  68.485  1.00  0.00     0.000 HD 
HETATM   16  O   UNL     4     -12.000  10.886  67.968  1.00  0.00    -0.586 OA 
BRANCH  14  17
HETATM   17  C   UNL     4      -9.657  10.165  67.624  1.00  0.00    -0.148 C  
HETATM   18  C   UNL     4      -9.627   8.583  67.700  1.00  0.00    -0.153 C  
HETATM   19  H   UNL     4      -8.562  10.498  69.263  1.00  0.00     0.000 HD 
HETATM   20  O   UNL     4      -9.357  10.829  68.862  1.00  0.00    -0.176 OA 
HETATM   21  O   UNL     4     -10.143   7.999  66.656  1.00  0.00    -0.268 OA 
HETATM   22  O   UNL     4      -9.210   8.030  68.755  1.00  0.00    -0.144 OA 
ENDBRANCH  14  17
ENDBRANCH  11  14
ENDBRANCH   8  11
ENDBRANCH   3   8
BRANCH   7  23
HETATM   23  C   UNL     5     -12.764  14.572  72.678  1.00  0.00    -0.357 C  
HETATM   24  O   UNL     5     -14.045  14.603  73.311  1.00  0.00    -0.204 OA 
HETATM   25  H   UNL     5     -14.424  13.734  73.260  1.00  0.00     0.000 HD 
BRANCH  23  26
HETATM   26  C   UNL     5     -12.877  14.082  71.218  1.00  0.00    -0.358 C  
HETATM   27  O   UNL     5     -14.097  14.592  70.634  1.00  0.00    -0.412 OA 
HETATM   28  H   UNL     5     -14.166  14.291  69.735  1.00  0.00     0.000 HD 
BRANCH  26  29
HETATM   29  C   UNL     5     -11.675  14.344  70.268  1.00  0.00    -0.288 C  
HETATM   30  O   UNL     5     -10.527  14.848  70.950  1.00  0.00    -0.478 OA 
HETATM   31  H   UNL     5      -9.792  15.008  70.370  1.00  0.00     0.000 HD 
BRANCH  29  32
HETATM   32  C   UNL     5     -11.941  15.123  68.970  1.00  0.00    -0.265 C  
HETATM   33  C   UNL     5     -10.712  15.388  68.075  1.00  0.00    -0.279 C  
HETATM   34  O   UNL     5     -12.638  16.387  69.262  1.00  0.00    -0.244 OA 
HETATM   35  O   UNL     5      -9.815  14.494  68.048  1.00  0.00    -0.214 OA 
HETATM   36  O   UNL     5     -10.727  16.541  67.515  1.00  0.00    -0.321 OA 
HETATM   37  H   UNL     5     -12.802  16.868  68.460  1.00  0.00     0.000 HD 
ENDBRANCH  29  32
ENDBRANCH  26  29
ENDBRANCH  23  26
ENDBRANCH   7  23
TORSDOF 8
ENDMDL
MODEL      201
REMARK 921   NORMALIZED FREE ENERGY PREDICTED BY IDOCK:   -5.38 KCAL/MOL
REMARK 922        TOTAL FREE ENERGY PREDICTED BY IDOCK:  -10.13 KCAL/MOL
REMARK 923 INTER-LIGAND FREE ENERGY PREDICTED BY IDOCK:   -8.17 KCAL/MOL
REMARK 924 INTRA-LIGAND FREE ENERGY PREDICTED BY IDOCK:   -1.97 KCAL/MOL
REMARK 927      BINDING AFFINITY PREDICTED BY RF-SCORE:    0.00 PKD
ROOT
HETATM    1 MG   UNL     3      -7.828  12.730  69.499  1.00  0.00    -0.314 Mg 
HETATM    2  O   UNL     4      -7.486   7.434  72.717  1.00  0.00    -0.074 OA 
HETATM    3  C   UNL     4      -7.267   8.117  71.498  1.00  0.00    -0.077 C  
HETATM    4  H   UNL     4      -6.686   7.280  73.205  1.00  0.00     0.000 HD 
HETATM    5  O   UNL     5     -12.475  15.268  63.916  1.00  0.00    -0.964 OA 
HETATM    6  H   UNL     5     -13.242  15.703  64.269  1.00  0.00     0.000 HD 
HETATM    7  C   UNL     5     -12.253  14.001  64.534  1.00  0.00    -0.434 C  
ENDROOT
BRANCH   3   8
HETATM    8  C   UNL     4      -8.561   8.366  70.710  1.00  0.00    -0.145 C  
HETATM    9  O   UNL     4      -9.216   9.545  71.214  1.00  0.00    -0.311 OA 
HETATM   10  H   UNL     4     -10.017   9.698  70.727  1.00  0.00     0.000 HD 
BRANCH   8  11
HETATM   11  C   UNL     4      -8.478   8.535  69.164  1.00  0.00    -0.125 C  
HETATM   12  O   UNL     4      -7.218   8.150  68.623  1.00  0.00    -0.080 OA 
HETATM   13  H   UNL     4      -7.168   8.253  67.680  1.00  0.00     0.000 HD 
BRANCH  11  14
HETATM   14  C   UNL     4      -9.653   7.990  68.308  1.00  0.00    -0.146 C  
HETATM   15  H   UNL     4     -11.535   8.469  68.101  1.00  0.00     0.000 HD 
HETATM   16  O   UNL     4     -10.817   8.802  68.625  1.00  0.00    -0.115 OA 
BRANCH  14  17
HETATM   17  C   UNL     4     -10.014   6.478  68.350  1.00  0.00    -0.141 C  
HETATM   18  C   UNL     4      -9.896   5.783  66.930  1.00  0.00    -0.157 C  
HETATM   19  H   UNL     4     -11.474   5.312  69.060  1.00  0.00     0.000 HD 
HETATM   20  O   UNL     4     -11.253   6.236  69.033  1.00  0.00    -0.375 OA 
HETATM   21  O   UNL     4      -8.892   6.211  66.219  1.00  0.00    -0.137 OA 
HETATM   22  O   UNL     4     -10.794   4.972  66.571  1.00  0.00    -0.226 OA 
ENDBRANCH  14  17
ENDBRANCH  11  14
ENDBRANCH   8  11
ENDBRANCH   3   8
BRANCH   7  23
HETATM   23  C   UNL     5     -11.007  13.295  63.961  1.00  0.00    -0.287 C  
HETATM   24  O   UNL     5      -9.874  13.683  64.740  1.00  0.00    -0.616 OA 
HETATM   25  H   UNL     5      -9.107  13.248  64.386  1.00  0.00     0.000 HD 
BRANCH  23  26
HETATM   26  C   UNL     5     -11.176  11.760  63.949  1.00  0.00    -0.414 C  
HETATM   27  O   UNL     5     -12.260  11.404  63.061  1.00  0.00    -0.946 OA 
HETATM   28  H   UNL     5     -12.363  10.460  63.054  1.00  0.00     0.000 HD 
BRANCH  26  29
HETATM   29  C   UNL     5      -9.923  10.894  63.643  1.00  0.00    -0.359 C  
HETATM   30  O   UNL     5      -9.948  10.322  62.335  1.00  0.00    -0.725 OA 
HETATM   31  H   UNL     5      -9.182   9.792  62.147  1.00  0.00     0.000 HD 
BRANCH  29  32
HETATM   32  C   UNL     5      -9.487   9.862  64.696  1.00  0.00    -0.278 C  
HETATM   33  C   UNL     5      -8.399  10.325  65.687  1.00  0.00    -0.158 C  
HETATM   34  O   UNL     5      -9.080   8.605  64.047  1.00  0.00    -0.341 OA 
HETATM   35  O   UNL     5      -8.414  11.544  66.033  1.00  0.00    -0.124 OA 
HETATM   36  O   UNL     5      -7.556   9.406  65.987  1.00  0.00    -0.097 OA 
HETATM   37  H   UNL     5      -8.811   7.968  64.698  1.00  0.00     0.000 HD 
ENDBRANCH  29  32
ENDBRANCH  26  29
ENDBRANCH  23  26
ENDBRANCH   7  23
TORSDOF 8
ENDMDL
MODEL      202
REMARK 921   NORMALIZED FREE ENERGY PREDICTED BY IDOCK:   -5.36 KCAL/MOL
REMARK 922        TOTAL FREE ENERGY PREDICTED BY IDOCK:  -10.12 KCAL/MOL
REMARK 923 INTER-LIGAND FREE ENERGY PREDICTED BY IDOCK:   -7.96 KCAL/MOL
REMARK 924 INTRA-LIGAND FREE ENERGY PREDICTED BY IDOCK:   -2.16 KCAL/MOL
REMARK 927      BINDING AFFINITY PREDICTED BY RF-SCORE:    0.00 PKD
ROOT
HETATM    1 MG   UNL     3      -7.196  10.216  68.561  1.00  0.00    -0.068 Mg 
HETATM    2  O   UNL     4      -7.957   4.435  66.437  1.00  0.00    -0.098 OA 
HETATM    3  C   UNL     4      -7.918   5.822  66.162  1.00  0.00    -0.102 C  
HETATM    4  H   UNL     4      -7.175   3.978  66.148  1.00  0.00     0.000 HD 
HETATM    5  O   UNL     5     -12.021  16.047  69.954  1.00  0.00    -0.298 OA 
HETATM    6  H   UNL     5     -12.364  16.014  70.839  1.00  0.00     0.000 HD 
HETATM    7  C   UNL     5     -12.137  14.787  69.293  1.00  0.00    -0.261 C  
ENDROOT
BRANCH   3   8
HETATM    8  C   UNL     4      -9.182   6.560  66.629  1.00  0.00    -0.153 C  
HETATM    9  O   UNL     4     -10.328   6.051  65.922  1.00  0.00    -0.393 OA 
HETATM   10  H   UNL     4     -11.110   6.508  66.210  1.00  0.00     0.000 HD 
BRANCH   8  11
HETATM   11  C   UNL     4      -9.550   6.534  68.141  1.00  0.00    -0.123 C  
HETATM   12  O   UNL     4      -8.422   6.357  68.992  1.00  0.00    -0.122 OA 
HETATM   13  H   UNL     4      -8.647   6.342  69.915  1.00  0.00     0.000 HD 
BRANCH  11  14
HETATM   14  C   UNL     4     -10.497   7.641  68.680  1.00  0.00    -0.177 C  
HETATM   15  H   UNL     4     -11.304   9.246  67.914  1.00  0.00     0.000 HD 
HETATM   16  O   UNL     4     -10.724   8.570  67.584  1.00  0.00    -0.219 OA 
BRANCH  14  17
HETATM   17  C   UNL     4     -10.137   8.410  69.983  1.00  0.00    -0.192 C  
HETATM   18  C   UNL     4     -11.395   8.652  70.916  1.00  0.00    -0.272 C  
HETATM   19  H   UNL     4      -9.132  10.053  70.516  1.00  0.00     0.000 HD 
HETATM   20  O   UNL     4      -9.352   9.584  69.720  1.00  0.00    -0.181 OA 
HETATM   21  O   UNL     4     -12.230   7.653  70.938  1.00  0.00    -0.268 OA 
HETATM   22  O   UNL     4     -11.537   9.777  71.469  1.00  0.00    -0.380 OA 
ENDBRANCH  14  17
ENDBRANCH  11  14
ENDBRANCH   8  11
ENDBRANCH   3   8
BRANCH   7  23
HETATM   23  C   UNL     5     -11.580  14.841  67.856  1.00  0.00    -0.351 C  
HETATM   24  O   UNL     5     -10.600  15.879  67.794  1.00  0.00    -0.286 OA 
HETATM   25  H   UNL     5     -10.257  15.912  66.909  1.00  0.00     0.000 HD 
BRANCH  23  26
HETATM   26  C   UNL     5     -10.981  13.484  67.425  1.00  0.00    -0.272 C  
HETATM   27  O   UNL     5     -12.015  12.474  67.452  1.00  0.00    -0.456 OA 
HETATM   28  H   UNL     5     -11.646  11.639  67.187  1.00  0.00     0.000 HD 
BRANCH  26  29
HETATM   29  C   UNL     5     -10.208  13.426  66.078  1.00  0.00    -0.300 C  
HETATM   30  O   UNL     5      -9.015  14.210  66.088  1.00  0.00    -0.488 OA 
HETATM   31  H   UNL     5      -8.542  14.175  65.265  1.00  0.00     0.000 HD 
BRANCH  29  32
HETATM   32  C   UNL     5     -11.005  13.637  64.781  1.00  0.00    -0.378 C  
HETATM   33  C   UNL     5     -11.412  15.092  64.466  1.00  0.00    -0.318 C  
HETATM   34  O   UNL     5     -12.189  12.762  64.758  1.00  0.00    -0.406 OA 
HETATM   35  O   UNL     5     -10.605  16.005  64.811  1.00  0.00    -0.600 OA 
HETATM   36  O   UNL     5     -12.579  15.193  63.943  1.00  0.00    -0.794 OA 
HETATM   37  H   UNL     5     -12.682  12.892  63.956  1.00  0.00     0.000 HD 
ENDBRANCH  29  32
ENDBRANCH  26  29
ENDBRANCH  23  26
ENDBRANCH   7  23
TORSDOF 8
ENDMDL
MODEL      203
REMARK 921   NORMALIZED FREE ENERGY PREDICTED BY IDOCK:   -5.36 KCAL/MOL
REMARK 922        TOTAL FREE ENERGY PREDICTED BY IDOCK:  -10.12 KCAL/MOL
REMARK 923 INTER-LIGAND FREE ENERGY PREDICTED BY IDOCK:   -8.51 KCAL/MOL
REMARK 924 INTRA-LIGAND FREE ENERGY PREDICTED BY IDOCK:   -1.60 KCAL/MOL
REMARK 927      BINDING AFFINITY PREDICTED BY RF-SCORE:    0.00 PKD
ROOT
HETATM    1 MG   UNL     3      -7.883   9.242  68.901  1.00  0.00    -0.075 Mg 
HETATM    2  O   UNL     4      -7.611   5.829  74.078  1.00  0.00    -0.092 OA 
HETATM    3  C   UNL     4      -8.397   6.368  73.032  1.00  0.00    -0.116 C  
HETATM    4  H   UNL     4      -7.438   4.901  73.970  1.00  0.00     0.000 HD 
HETATM    5  O   UNL     5     -10.505  16.301  67.319  1.00  0.00    -0.294 OA 
HETATM    6  H   UNL     5      -9.832  16.960  67.443  1.00  0.00     0.000 HD 
HETATM    7  C   UNL     5     -10.601  15.426  68.443  1.00  0.00    -0.247 C  
ENDROOT
BRANCH   3   8
HETATM    8  C   UNL     4      -8.676   7.868  73.206  1.00  0.00    -0.236 C  
HETATM    9  O   UNL     4      -7.451   8.555  73.524  1.00  0.00    -0.313 OA 
HETATM   10  H   UNL     4      -7.624   9.483  73.632  1.00  0.00     0.000 HD 
BRANCH   8  11
HETATM   11  C   UNL     4      -9.328   8.651  72.029  1.00  0.00    -0.292 C  
HETATM   12  O   UNL     4      -8.394   9.421  71.280  1.00  0.00    -0.308 OA 
HETATM   13  H   UNL     4      -8.792   9.899  70.562  1.00  0.00     0.000 HD 
BRANCH  11  14
HETATM   14  C   UNL     4     -10.307   7.885  71.098  1.00  0.00    -0.200 C  
HETATM   15  H   UNL     4     -10.276   7.350  69.220  1.00  0.00     0.000 HD 
HETATM   16  O   UNL     4      -9.677   7.818  69.789  1.00  0.00    -0.174 OA 
BRANCH  14  17
HETATM   17  C   UNL     4     -11.786   8.350  70.971  1.00  0.00    -0.267 C  
HETATM   18  C   UNL     4     -11.931   9.928  70.963  1.00  0.00    -0.365 C  
HETATM   19  H   UNL     4     -13.551   7.957  71.822  1.00  0.00     0.000 HD 
HETATM   20  O   UNL     4     -12.647   7.674  71.900  1.00  0.00    -0.310 OA 
HETATM   21  O   UNL     4     -10.981  10.538  70.315  1.00  0.00    -0.292 OA 
HETATM   22  O   UNL     4     -12.861  10.458  71.632  1.00  0.00    -0.404 OA 
ENDBRANCH  14  17
ENDBRANCH  11  14
ENDBRANCH   8  11
ENDBRANCH   3   8
BRANCH   7  23
HETATM   23  C   UNL     5     -11.693  14.356  68.242  1.00  0.00    -0.341 C  
HETATM   24  O   UNL     5     -12.616  14.836  67.263  1.00  0.00    -0.379 OA 
HETATM   25  H   UNL     5     -13.288  14.177  67.139  1.00  0.00     0.000 HD 
BRANCH  23  26
HETATM   26  C   UNL     5     -11.091  12.998  67.821  1.00  0.00    -0.262 C  
HETATM   27  O   UNL     5     -12.097  11.968  67.946  1.00  0.00    -0.531 OA 
HETATM   28  H   UNL     5     -11.727  11.132  67.687  1.00  0.00     0.000 HD 
BRANCH  26  29
HETATM   29  C   UNL     5     -10.399  12.908  66.432  1.00  0.00    -0.268 C  
HETATM   30  O   UNL     5      -9.203  13.682  66.356  1.00  0.00    -0.411 OA 
HETATM   31  H   UNL     5      -8.780  13.627  65.507  1.00  0.00     0.000 HD 
BRANCH  29  32
HETATM   32  C   UNL     5     -11.271  13.100  65.181  1.00  0.00    -0.294 C  
HETATM   33  C   UNL     5     -11.403  14.548  64.664  1.00  0.00    -0.370 C  
HETATM   34  O   UNL     5     -12.605  12.512  65.388  1.00  0.00    -0.656 OA 
HETATM   35  O   UNL     5     -10.394  15.303  64.795  1.00  0.00    -0.314 OA 
HETATM   36  O   UNL     5     -12.574  14.827  64.220  1.00  0.00    -0.706 OA 
HETATM   37  H   UNL     5     -13.144  12.631  64.615  1.00  0.00     0.000 HD 
ENDBRANCH  29  32
ENDBRANCH  26  29
ENDBRANCH  23  26
ENDBRANCH   7  23
TORSDOF 8
ENDMDL
MODEL      204
REMARK 921   NORMALIZED FREE ENERGY PREDICTED BY IDOCK:   -5.36 KCAL/MOL
REMARK 922        TOTAL FREE ENERGY PREDICTED BY IDOCK:  -10.11 KCAL/MOL
REMARK 923 INTER-LIGAND FREE ENERGY PREDICTED BY IDOCK:   -8.10 KCAL/MOL
REMARK 924 INTRA-LIGAND FREE ENERGY PREDICTED BY IDOCK:   -2.00 KCAL/MOL
REMARK 927      BINDING AFFINITY PREDICTED BY RF-SCORE:    0.00 PKD
ROOT
HETATM    1 MG   UNL     3     -13.741  14.434  70.252  1.00  0.00    -0.480 Mg 
HETATM    2  O   UNL     4     -12.497   8.428  71.202  1.00  0.00    -0.417 OA 
HETATM    3  C   UNL     4     -12.126   9.779  71.398  1.00  0.00    -0.400 C  
HETATM    4  H   UNL     4     -12.872   8.030  71.979  1.00  0.00     0.000 HD 
HETATM    5  O   UNL     5     -10.714  19.833  65.681  1.00  0.00    -0.505 OA 
HETATM    6  H   UNL     5     -11.137  19.848  64.830  1.00  0.00     0.000 HD 
HETATM    7  C   UNL     5     -10.332  18.510  66.057  1.00  0.00    -0.393 C  
ENDROOT
BRANCH   3   8
HETATM    8  C   UNL     4     -11.519  10.421  70.142  1.00  0.00    -0.319 C  
HETATM    9  O   UNL     4     -11.166  11.789  70.420  1.00  0.00    -0.393 OA 
HETATM   10  H   UNL     4     -10.791  12.187  69.643  1.00  0.00     0.000 HD 
BRANCH   8  11
HETATM   11  C   UNL     4     -10.265   9.765  69.495  1.00  0.00    -0.221 C  
HETATM   12  O   UNL     4      -9.134   9.740  70.359  1.00  0.00    -0.314 OA 
HETATM   13  H   UNL     4      -8.369   9.339  69.964  1.00  0.00     0.000 HD 
BRANCH  11  14
HETATM   14  C   UNL     4     -10.448   8.409  68.762  1.00  0.00    -0.178 C  
HETATM   15  H   UNL     4     -10.397   6.535  69.312  1.00  0.00     0.000 HD 
HETATM   16  O   UNL     4     -10.285   7.365  69.761  1.00  0.00    -0.199 OA 
BRANCH  14  17
HETATM   17  C   UNL     4      -9.607   8.088  67.493  1.00  0.00    -0.153 C  
HETATM   18  C   UNL     4      -9.916   6.649  66.904  1.00  0.00    -0.180 C  
HETATM   19  H   UNL     4      -7.698   8.174  66.908  1.00  0.00     0.000 HD 
HETATM   20  O   UNL     4      -8.212   8.369  67.683  1.00  0.00    -0.123 OA 
HETATM   21  O   UNL     4     -11.173   6.312  66.976  1.00  0.00    -0.336 OA 
HETATM   22  O   UNL     4      -8.956   5.930  66.512  1.00  0.00    -0.123 OA 
ENDBRANCH  14  17
ENDBRANCH  11  14
ENDBRANCH   8  11
ENDBRANCH   3   8
BRANCH   7  23
HETATM   23  C   UNL     5      -9.646  18.485  67.438  1.00  0.00    -0.293 C  
HETATM   24  O   UNL     5     -10.393  19.320  68.325  1.00  0.00    -0.404 OA 
HETATM   25  H   UNL     5      -9.971  19.305  69.175  1.00  0.00     0.000 HD 
BRANCH  23  26
HETATM   26  C   UNL     5      -9.531  17.048  67.993  1.00  0.00    -0.256 C  
HETATM   27  O   UNL     5      -8.434  16.983  68.932  1.00  0.00    -0.253 OA 
HETATM   28  H   UNL     5      -8.363  16.099  69.273  1.00  0.00     0.000 HD 
BRANCH  26  29
HETATM   29  C   UNL     5     -10.804  16.401  68.607  1.00  0.00    -0.331 C  
HETATM   30  O   UNL     5     -11.221  17.035  69.815  1.00  0.00    -0.279 OA 
HETATM   31  H   UNL     5     -12.000  16.640  70.191  1.00  0.00     0.000 HD 
BRANCH  29  32
HETATM   32  C   UNL     5     -10.841  14.870  68.736  1.00  0.00    -0.252 C  
HETATM   33  C   UNL     5     -11.772  14.130  67.753  1.00  0.00    -0.373 C  
HETATM   34  O   UNL     5     -11.151  14.478  70.121  1.00  0.00    -0.423 OA 
HETATM   35  O   UNL     5     -11.895  14.622  66.592  1.00  0.00    -0.375 OA 
HETATM   36  O   UNL     5     -12.372  13.124  68.276  1.00  0.00    -0.130 OA 
HETATM   37  H   UNL     5     -11.174  13.532  70.201  1.00  0.00     0.000 HD 
ENDBRANCH  29  32
ENDBRANCH  26  29
ENDBRANCH  23  26
ENDBRANCH   7  23
TORSDOF 8
ENDMDL
MODEL      205
REMARK 921   NORMALIZED FREE ENERGY PREDICTED BY IDOCK:   -5.33 KCAL/MOL
REMARK 922        TOTAL FREE ENERGY PREDICTED BY IDOCK:  -10.07 KCAL/MOL
REMARK 923 INTER-LIGAND FREE ENERGY PREDICTED BY IDOCK:   -8.77 KCAL/MOL
REMARK 924 INTRA-LIGAND FREE ENERGY PREDICTED BY IDOCK:   -1.30 KCAL/MOL
REMARK 927      BINDING AFFINITY PREDICTED BY RF-SCORE:    0.00 PKD
ROOT
HETATM    1 MG   UNL     3     -12.954  10.799  71.652  1.00  0.00    -0.287 Mg 
HETATM    2  O   UNL     4     -11.947  16.862  72.517  1.00  0.00    -0.451 OA 
HETATM    3  C   UNL     4     -12.366  15.824  71.653  1.00  0.00    -0.457 C  
HETATM    4  H   UNL     4     -12.670  17.372  72.863  1.00  0.00     0.000 HD 
HETATM    5  O   UNL     5      -9.242   5.296  67.761  1.00  0.00    -0.109 OA 
HETATM    6  H   UNL     5      -8.580   4.874  68.296  1.00  0.00     0.000 HD 
HETATM    7  C   UNL     5      -9.144   6.718  67.821  1.00  0.00    -0.117 C  
ENDROOT
BRANCH   3   8
HETATM    8  C   UNL     4     -11.196  15.000  71.094  1.00  0.00    -0.219 C  
HETATM    9  O   UNL     4     -11.705  13.846  70.400  1.00  0.00    -0.434 OA 
HETATM   10  H   UNL     4     -10.981  13.336  70.055  1.00  0.00     0.000 HD 
BRANCH   8  11
HETATM   11  C   UNL     4     -10.189  15.689  70.127  1.00  0.00    -0.196 C  
HETATM   12  O   UNL     4      -9.087  14.858  69.778  1.00  0.00    -0.441 OA 
HETATM   13  H   UNL     4      -8.473  15.278  69.188  1.00  0.00     0.000 HD 
BRANCH  11  14
HETATM   14  C   UNL     4     -10.760  16.425  68.885  1.00  0.00    -0.319 C  
HETATM   15  H   UNL     4     -12.254  16.105  67.668  1.00  0.00     0.000 HD 
HETATM   16  O   UNL     4     -11.905  15.655  68.428  1.00  0.00    -0.346 OA 
BRANCH  14  17
HETATM   17  C   UNL     4      -9.827  16.778  67.691  1.00  0.00    -0.261 C  
HETATM   18  C   UNL     4     -10.432  17.906  66.756  1.00  0.00    -0.311 C  
HETATM   19  H   UNL     4      -8.799  15.823  66.268  1.00  0.00     0.000 HD 
HETATM   20  O   UNL     4      -9.370  15.607  66.996  1.00  0.00    -0.214 OA 
HETATM   21  O   UNL     4     -11.069  18.838  67.406  1.00  0.00    -0.332 OA 
HETATM   22  O   UNL     4     -10.339  17.776  65.505  1.00  0.00    -0.623 OA 
ENDBRANCH  14  17
ENDBRANCH  11  14
ENDBRANCH   8  11
ENDBRANCH   3   8
BRANCH   7  23
HETATM   23  C   UNL     5     -10.219   7.403  66.952  1.00  0.00    -0.276 C  
HETATM   24  O   UNL     5     -11.481   6.799  67.243  1.00  0.00    -0.752 OA 
HETATM   25  H   UNL     5     -12.143   7.221  66.708  1.00  0.00     0.000 HD 
BRANCH  23  26
HETATM   26  C   UNL     5     -10.262   8.927  67.194  1.00  0.00    -0.269 C  
HETATM   27  O   UNL     5      -9.120   9.319  67.989  1.00  0.00    -0.128 OA 
HETATM   28  H   UNL     5      -9.147  10.258  68.137  1.00  0.00     0.000 HD 
BRANCH  26  29
HETATM   29  C   UNL     5     -10.400   9.856  65.955  1.00  0.00    -0.132 C  
HETATM   30  O   UNL     5      -9.766   9.328  64.791  1.00  0.00    -0.394 OA 
HETATM   31  H   UNL     5      -9.850   9.896  64.034  1.00  0.00     0.000 HD 
BRANCH  29  32
HETATM   32  C   UNL     5     -10.082  11.349  66.138  1.00  0.00    -0.231 C  
HETATM   33  C   UNL     5     -11.024  12.335  65.415  1.00  0.00    -0.301 C  
HETATM   34  O   UNL     5      -8.682  11.625  65.772  1.00  0.00    -0.382 OA 
HETATM   35  O   UNL     5     -12.243  12.004  65.321  1.00  0.00    -0.437 OA 
HETATM   36  O   UNL     5     -10.420  13.357  64.931  1.00  0.00    -0.349 OA 
HETATM   37  H   UNL     5      -8.486  12.547  65.885  1.00  0.00     0.000 HD 
ENDBRANCH  29  32
ENDBRANCH  26  29
ENDBRANCH  23  26
ENDBRANCH   7  23
TORSDOF 8
ENDMDL
MODEL      206
REMARK 921   NORMALIZED FREE ENERGY PREDICTED BY IDOCK:   -5.33 KCAL/MOL
REMARK 922        TOTAL FREE ENERGY PREDICTED BY IDOCK:  -10.07 KCAL/MOL
REMARK 923 INTER-LIGAND FREE ENERGY PREDICTED BY IDOCK:   -7.96 KCAL/MOL
REMARK 924 INTRA-LIGAND FREE ENERGY PREDICTED BY IDOCK:   -2.11 KCAL/MOL
REMARK 927      BINDING AFFINITY PREDICTED BY RF-SCORE:    0.00 PKD
ROOT
HETATM    1 MG   UNL     3     -12.972  10.034  72.635  1.00  0.00    -0.370 Mg 
HETATM    2  O   UNL     4     -12.989  15.749  70.216  1.00  0.00    -0.641 OA 
HETATM    3  C   UNL     4     -13.135  14.357  70.013  1.00  0.00     0.301 C  
HETATM    4  H   UNL     4     -13.819  16.212  70.217  1.00  0.00     0.000 HD 
HETATM    5  O   UNL     5      -8.013   4.157  72.353  1.00  0.00    -0.083 OA 
HETATM    6  H   UNL     5      -7.372   4.205  73.053  1.00  0.00     0.000 HD 
HETATM    7  C   UNL     5      -8.134   5.398  71.660  1.00  0.00    -0.117 C  
ENDROOT
BRANCH   3   8
HETATM    8  C   UNL     4     -11.793  13.609  70.012  1.00  0.00    -0.308 C  
HETATM    9  O   UNL     4     -11.986  12.268  70.501  1.00  0.00    -0.472 OA 
HETATM   10  H   UNL     4     -11.156  11.806  70.501  1.00  0.00     0.000 HD 
BRANCH   8  11
HETATM   11  C   UNL     4     -11.006  13.482  68.676  1.00  0.00    -0.263 C  
HETATM   12  O   UNL     4      -9.770  12.788  68.814  1.00  0.00    -0.403 OA 
HETATM   13  H   UNL     4      -9.290  12.711  67.998  1.00  0.00     0.000 HD 
BRANCH  11  14
HETATM   14  C   UNL     4     -11.781  13.013  67.415  1.00  0.00    -0.374 C  
HETATM   15  H   UNL     4     -12.497  11.301  66.804  1.00  0.00     0.000 HD 
HETATM   16  O   UNL     4     -12.023  11.588  67.575  1.00  0.00    -0.629 OA 
BRANCH  14  17
HETATM   17  C   UNL     4     -11.221  13.317  65.996  1.00  0.00    -0.297 C  
HETATM   18  C   UNL     4     -12.365  13.547  64.924  1.00  0.00    -0.407 C  
HETATM   19  H   UNL     4      -9.868  12.561  64.734  1.00  0.00     0.000 HD 
HETATM   20  O   UNL     4     -10.211  12.375  65.600  1.00  0.00    -0.253 OA 
HETATM   21  O   UNL     4     -13.395  14.195  65.389  1.00  0.00    -0.705 OA 
HETATM   22  O   UNL     4     -12.243  13.030  63.780  1.00  0.00    -0.508 OA 
ENDBRANCH  14  17
ENDBRANCH  11  14
ENDBRANCH   8  11
ENDBRANCH   3   8
BRANCH   7  23
HETATM   23  C   UNL     5      -9.174   5.320  70.524  1.00  0.00    -0.146 C  
HETATM   24  O   UNL     5      -9.716   3.998  70.504  1.00  0.00    -0.179 OA 
HETATM   25  H   UNL     5     -10.357   3.950  69.804  1.00  0.00     0.000 HD 
BRANCH  23  26
HETATM   26  C   UNL     5     -10.287   6.376  70.695  1.00  0.00    -0.198 C  
HETATM   27  O   UNL     5     -11.577   5.741  70.541  1.00  0.00    -0.059 OA 
HETATM   28  H   UNL     5     -12.263   6.391  70.646  1.00  0.00     0.000 HD 
BRANCH  26  29
HETATM   29  C   UNL     5     -10.268   7.252  71.979  1.00  0.00    -0.190 C  
HETATM   30  O   UNL     5     -11.412   7.048  72.807  1.00  0.00    -0.430 OA 
HETATM   31  H   UNL     5     -11.401   7.583  73.592  1.00  0.00     0.000 HD 
BRANCH  29  32
HETATM   32  C   UNL     5      -9.948   8.747  71.824  1.00  0.00    -0.326 C  
HETATM   33  C   UNL     5     -10.670   9.478  70.672  1.00  0.00    -0.309 C  
HETATM   34  O   UNL     5      -8.494   8.955  71.725  1.00  0.00    -0.321 OA 
HETATM   35  O   UNL     5     -11.847   9.100  70.395  1.00  0.00    -0.171 OA 
HETATM   36  O   UNL     5      -9.937  10.350  70.083  1.00  0.00    -0.105 OA 
HETATM   37  H   UNL     5      -8.296   9.878  71.629  1.00  0.00     0.000 HD 
ENDBRANCH  29  32
ENDBRANCH  26  29
ENDBRANCH  23  26
ENDBRANCH   7  23
TORSDOF 8
ENDMDL
MODEL      207
REMARK 921   NORMALIZED FREE ENERGY PREDICTED BY IDOCK:   -5.33 KCAL/MOL
REMARK 922        TOTAL FREE ENERGY PREDICTED BY IDOCK:  -10.06 KCAL/MOL
REMARK 923 INTER-LIGAND FREE ENERGY PREDICTED BY IDOCK:   -7.68 KCAL/MOL
REMARK 924 INTRA-LIGAND FREE ENERGY PREDICTED BY IDOCK:   -2.38 KCAL/MOL
REMARK 927      BINDING AFFINITY PREDICTED BY RF-SCORE:    0.00 PKD
ROOT
HETATM    1 MG   UNL     3     -10.792  14.852  65.018  1.00  0.00    -0.284 Mg 
HETATM    2  O   UNL     4      -9.828  20.857  66.255  1.00  0.00    -0.475 OA 
HETATM    3  C   UNL     4      -9.294  19.552  66.139  1.00  0.00    -0.329 C  
HETATM    4  H   UNL     4      -9.604  21.415  65.519  1.00  0.00     0.000 HD 
HETATM    5  O   UNL     5     -11.222   8.528  69.381  1.00  0.00    -0.444 OA 
HETATM    6  H   UNL     5     -12.108   8.370  69.683  1.00  0.00     0.000 HD 
HETATM    7  C   UNL     5     -10.816   9.877  69.610  1.00  0.00    -0.253 C  
ENDROOT
BRANCH   3   8
HETATM    8  C   UNL     4      -9.657  18.650  67.328  1.00  0.00    -0.297 C  
HETATM    9  O   UNL     4     -10.465  19.386  68.265  1.00  0.00    -0.401 OA 
HETATM   10  H   UNL     4     -10.688  18.828  69.001  1.00  0.00     0.000 HD 
BRANCH   8  11
HETATM   11  C   UNL     4     -10.406  17.313  67.054  1.00  0.00    -0.318 C  
HETATM   12  O   UNL     4     -10.372  16.919  65.687  1.00  0.00    -0.523 OA 
HETATM   13  H   UNL     4     -10.829  16.103  65.520  1.00  0.00     0.000 HD 
BRANCH  11  14
HETATM   14  C   UNL     4     -10.121  16.112  67.997  1.00  0.00    -0.242 C  
HETATM   15  H   UNL     4      -9.906  15.906  69.928  1.00  0.00     0.000 HD 
HETATM   16  O   UNL     4     -10.080  16.641  69.351  1.00  0.00    -0.256 OA 
BRANCH  14  17
HETATM   17  C   UNL     4      -8.899  15.186  67.734  1.00  0.00    -0.170 C  
HETATM   18  C   UNL     4      -7.517  15.953  67.849  1.00  0.00    -0.131 C  
HETATM   19  H   UNL     4      -8.309  13.846  66.374  1.00  0.00     0.000 HD 
HETATM   20  O   UNL     4      -9.055  14.412  66.535  1.00  0.00    -0.257 OA 
HETATM   21  O   UNL     4      -7.489  16.842  68.801  1.00  0.00    -0.206 OA 
HETATM   22  O   UNL     4      -6.618  15.723  66.994  1.00  0.00    -0.284 OA 
ENDBRANCH  14  17
ENDBRANCH  11  14
ENDBRANCH   8  11
ENDBRANCH   3   8
BRANCH   7  23
HETATM   23  C   UNL     5      -9.377  10.132  69.120  1.00  0.00    -0.197 C  
HETATM   24  O   UNL     5      -8.912   8.953  68.460  1.00  0.00    -0.134 OA 
HETATM   25  H   UNL     5      -8.026   9.111  68.158  1.00  0.00     0.000 HD 
BRANCH  23  26
HETATM   26  C   UNL     5      -9.301  11.359  68.185  1.00  0.00    -0.181 C  
HETATM   27  O   UNL     5      -7.976  11.934  68.255  1.00  0.00    -0.134 OA 
HETATM   28  H   UNL     5      -7.930  12.689  67.679  1.00  0.00     0.000 HD 
BRANCH  26  29
HETATM   29  C   UNL     5      -9.730  11.172  66.703  1.00  0.00    -0.196 C  
HETATM   30  O   UNL     5      -8.691  11.495  65.779  1.00  0.00    -0.358 OA 
HETATM   31  H   UNL     5      -8.952  11.380  64.873  1.00  0.00     0.000 HD 
BRANCH  29  32
HETATM   32  C   UNL     5     -11.076  11.769  66.262  1.00  0.00    -0.311 C  
HETATM   33  C   UNL     5     -11.256  11.986  64.745  1.00  0.00    -0.318 C  
HETATM   34  O   UNL     5     -11.346  13.021  66.989  1.00  0.00    -0.274 OA 
HETATM   35  O   UNL     5     -10.709  11.144  63.973  1.00  0.00    -0.368 OA 
HETATM   36  O   UNL     5     -11.896  13.059  64.455  1.00  0.00    -0.341 OA 
HETATM   37  H   UNL     5     -12.177  13.390  66.717  1.00  0.00     0.000 HD 
ENDBRANCH  29  32
ENDBRANCH  26  29
ENDBRANCH  23  26
ENDBRANCH   7  23
TORSDOF 8
ENDMDL
MODEL      208
REMARK 921   NORMALIZED FREE ENERGY PREDICTED BY IDOCK:   -5.33 KCAL/MOL
REMARK 922        TOTAL FREE ENERGY PREDICTED BY IDOCK:  -10.06 KCAL/MOL
REMARK 923 INTER-LIGAND FREE ENERGY PREDICTED BY IDOCK:   -8.44 KCAL/MOL
REMARK 924 INTRA-LIGAND FREE ENERGY PREDICTED BY IDOCK:   -1.62 KCAL/MOL
REMARK 927      BINDING AFFINITY PREDICTED BY RF-SCORE:    0.00 PKD
ROOT
HETATM    1 MG   UNL     3     -10.128  13.287  69.294  1.00  0.00    -0.332 Mg 
HETATM    2  O   UNL     4     -11.122   7.525  67.211  1.00  0.00    -0.551 OA 
HETATM    3  C   UNL     4     -10.205   8.489  67.692  1.00  0.00    -0.236 C  
HETATM    4  H   UNL     4     -11.342   6.867  67.861  1.00  0.00     0.000 HD 
HETATM    5  O   UNL     5      -6.923  19.572  66.222  1.00  0.00    -0.211 OA 
HETATM    6  H   UNL     5      -7.561  20.098  65.756  1.00  0.00     0.000 HD 
HETATM    7  C   UNL     5      -6.993  18.197  65.844  1.00  0.00    -0.284 C  
ENDROOT
BRANCH   3   8
HETATM    8  C   UNL     4      -9.850   9.553  66.643  1.00  0.00    -0.231 C  
HETATM    9  O   UNL     4      -9.753   8.938  65.344  1.00  0.00    -0.455 OA 
HETATM   10  H   UNL     4      -9.533   9.596  64.695  1.00  0.00     0.000 HD 
BRANCH   8  11
HETATM   11  C   UNL     4     -10.785  10.786  66.479  1.00  0.00    -0.181 C  
HETATM   12  O   UNL     4     -11.544  11.077  67.648  1.00  0.00    -0.526 OA 
HETATM   13  H   UNL     4     -12.114  11.830  67.547  1.00  0.00     0.000 HD 
BRANCH  11  14
HETATM   14  C   UNL     4     -10.186  12.077  65.857  1.00  0.00    -0.232 C  
HETATM   15  H   UNL     4      -9.925  13.908  66.486  1.00  0.00     0.000 HD 
HETATM   16  O   UNL     4     -10.291  13.119  66.866  1.00  0.00    -0.244 OA 
BRANCH  14  17
HETATM   17  C   UNL     4     -10.701  12.593  64.483  1.00  0.00    -0.341 C  
HETATM   18  C   UNL     4     -12.283  12.621  64.397  1.00  0.00    -0.443 C  
HETATM   19  H   UNL     4     -10.368  12.253  62.542  1.00  0.00     0.000 HD 
HETATM   20  O   UNL     4     -10.053  11.937  63.382  1.00  0.00    -0.410 OA 
HETATM   21  O   UNL     4     -12.862  12.984  65.506  1.00  0.00    -0.509 OA 
HETATM   22  O   UNL     4     -12.844  12.222  63.340  1.00  0.00    -0.754 OA 
ENDBRANCH  14  17
ENDBRANCH  11  14
ENDBRANCH   8  11
ENDBRANCH   3   8
BRANCH   7  23
HETATM   23  C   UNL     5      -5.957  17.342  66.601  1.00  0.00    -0.200 C  
HETATM   24  O   UNL     5      -5.241  18.195  67.497  1.00  0.00    -0.136 OA 
HETATM   25  H   UNL     5      -4.602  17.669  67.963  1.00  0.00     0.000 HD 
BRANCH  23  26
HETATM   26  C   UNL     5      -6.624  16.174  67.360  1.00  0.00    -0.185 C  
HETATM   27  O   UNL     5      -5.619  15.198  67.717  1.00  0.00    -0.195 OA 
HETATM   28  H   UNL     5      -6.029  14.480  68.183  1.00  0.00     0.000 HD 
BRANCH  26  29
HETATM   29  C   UNL     5      -7.504  16.516  68.594  1.00  0.00    -0.202 C  
HETATM   30  O   UNL     5      -6.741  16.710  69.784  1.00  0.00    -0.184 OA 
HETATM   31  H   UNL     5      -7.279  16.920  70.539  1.00  0.00     0.000 HD 
BRANCH  29  32
HETATM   32  C   UNL     5      -8.742  15.644  68.858  1.00  0.00    -0.215 C  
HETATM   33  C   UNL     5     -10.084  16.395  68.986  1.00  0.00    -0.262 C  
HETATM   34  O   UNL     5      -8.526  14.788  70.036  1.00  0.00    -0.325 OA 
HETATM   35  O   UNL     5     -10.239  17.427  68.268  1.00  0.00    -0.319 OA 
HETATM   36  O   UNL     5     -10.863  15.901  69.877  1.00  0.00    -0.277 OA 
HETATM   37  H   UNL     5      -9.290  14.249  70.200  1.00  0.00     0.000 HD 
ENDBRANCH  29  32
ENDBRANCH  26  29
ENDBRANCH  23  26
ENDBRANCH   7  23
TORSDOF 8
ENDMDL
MODEL      209
REMARK 921   NORMALIZED FREE ENERGY PREDICTED BY IDOCK:   -5.33 KCAL/MOL
REMARK 922        TOTAL FREE ENERGY PREDICTED BY IDOCK:  -10.06 KCAL/MOL
REMARK 923 INTER-LIGAND FREE ENERGY PREDICTED BY IDOCK:   -8.29 KCAL/MOL
REMARK 924 INTRA-LIGAND FREE ENERGY PREDICTED BY IDOCK:   -1.77 KCAL/MOL
REMARK 927      BINDING AFFINITY PREDICTED BY RF-SCORE:    0.00 PKD
ROOT
HETATM    1 MG   UNL     3      -7.522  13.822  66.643  1.00  0.00    -0.345 Mg 
HETATM    2  O   UNL     4     -10.935  18.754  65.047  1.00  0.00    -0.520 OA 
HETATM    3  C   UNL     4     -10.748  17.649  65.910  1.00  0.00    -0.113 C  
HETATM    4  H   UNL     4     -10.705  19.583  65.451  1.00  0.00     0.000 HD 
HETATM    5  O   UNL     5      -8.452   6.226  65.833  1.00  0.00    -0.135 OA 
HETATM    6  H   UNL     5      -8.097   5.916  65.009  1.00  0.00     0.000 HD 
HETATM    7  C   UNL     5      -9.295   7.363  65.652  1.00  0.00     0.322 C  
ENDROOT
BRANCH   3   8
HETATM    8  C   UNL     4     -11.119  16.310  65.257  1.00  0.00    -0.151 C  
HETATM    9  O   UNL     4     -11.506  16.530  63.888  1.00  0.00    -1.608 OA 
HETATM   10  H   UNL     4     -11.736  15.701  63.484  1.00  0.00     0.000 HD 
BRANCH   8  11
HETATM   11  C   UNL     4     -10.064  15.165  65.240  1.00  0.00    -0.330 C  
HETATM   12  O   UNL     4      -8.992  15.375  66.152  1.00  0.00    -0.341 OA 
HETATM   13  H   UNL     4      -8.348  14.676  66.141  1.00  0.00     0.000 HD 
BRANCH  11  14
HETATM   14  C   UNL     4     -10.577  13.701  65.294  1.00  0.00    -0.346 C  
HETATM   15  H   UNL     4     -11.381  12.480  63.997  1.00  0.00     0.000 HD 
HETATM   16  O   UNL     4     -11.067  13.376  63.964  1.00  0.00    -0.365 OA 
BRANCH  14  17
HETATM   17  C   UNL     4     -11.610  13.276  66.376  1.00  0.00    -0.347 C  
HETATM   18  C   UNL     4     -11.062  12.133  67.327  1.00  0.00    -0.287 C  
HETATM   19  H   UNL     4     -13.538  12.756  66.475  1.00  0.00     0.000 HD 
HETATM   20  O   UNL     4     -12.906  13.016  65.815  1.00  0.00    -0.411 OA 
HETATM   21  O   UNL     4      -9.799  12.257  67.622  1.00  0.00    -0.190 OA 
HETATM   22  O   UNL     4     -11.827  11.180  67.641  1.00  0.00    -0.612 OA 
ENDBRANCH  14  17
ENDBRANCH  11  14
ENDBRANCH   8  11
ENDBRANCH   3   8
BRANCH   7  23
HETATM   23  C   UNL     5      -9.872   7.867  66.990  1.00  0.00    -0.225 C  
HETATM   24  O   UNL     5     -11.054   7.119  67.279  1.00  0.00    -0.547 OA 
HETATM   25  H   UNL     5     -11.409   7.429  68.104  1.00  0.00     0.000 HD 
BRANCH  23  26
HETATM   26  C   UNL     5      -8.843   7.747  68.136  1.00  0.00    -0.125 C  
HETATM   27  O   UNL     5      -7.512   7.941  67.607  1.00  0.00    -0.093 OA 
HETATM   28  H   UNL     5      -6.879   7.868  68.312  1.00  0.00     0.000 HD 
BRANCH  26  29
HETATM   29  C   UNL     5      -9.054   8.629  69.398  1.00  0.00    -0.149 C  
HETATM   30  O   UNL     5      -7.838   8.910  70.090  1.00  0.00    -0.080 OA 
HETATM   31  H   UNL     5      -7.967   9.450  70.861  1.00  0.00     0.000 HD 
BRANCH  29  32
HETATM   32  C   UNL     5     -10.174   8.232  70.374  1.00  0.00    -0.201 C  
HETATM   33  C   UNL     5     -10.131   6.781  70.898  1.00  0.00    -0.190 C  
HETATM   34  O   UNL     5     -11.493   8.521  69.789  1.00  0.00    -0.452 OA 
HETATM   35  O   UNL     5      -8.988   6.265  71.077  1.00  0.00    -0.142 OA 
HETATM   36  O   UNL     5     -11.291   6.248  71.021  1.00  0.00    -0.305 OA 
HETATM   37  H   UNL     5     -12.185   8.276  70.391  1.00  0.00     0.000 HD 
ENDBRANCH  29  32
ENDBRANCH  26  29
ENDBRANCH  23  26
ENDBRANCH   7  23
TORSDOF 8
ENDMDL
MODEL      210
REMARK 921   NORMALIZED FREE ENERGY PREDICTED BY IDOCK:   -5.32 KCAL/MOL
REMARK 922        TOTAL FREE ENERGY PREDICTED BY IDOCK:  -10.05 KCAL/MOL
REMARK 923 INTER-LIGAND FREE ENERGY PREDICTED BY IDOCK:   -7.45 KCAL/MOL
REMARK 924 INTRA-LIGAND FREE ENERGY PREDICTED BY IDOCK:   -2.60 KCAL/MOL
REMARK 927      BINDING AFFINITY PREDICTED BY RF-SCORE:    0.00 PKD
ROOT
HETATM    1 MG   UNL     3      -8.090   9.556  71.622  1.00  0.00    -0.115 Mg 
HETATM    2  O   UNL     4      -9.323   4.322  68.523  1.00  0.00    -0.131 OA 
HETATM    3  C   UNL     4      -8.910   5.675  68.483  1.00  0.00    -0.108 C  
HETATM    4  H   UNL     4      -8.603   3.712  68.410  1.00  0.00     0.000 HD 
HETATM    5  O   UNL     5     -11.777  16.265  72.405  1.00  0.00    -0.495 OA 
HETATM    6  H   UNL     5     -12.384  16.248  73.136  1.00  0.00     0.000 HD 
HETATM    7  C   UNL     5     -11.937  15.128  71.558  1.00  0.00    -0.360 C  
ENDROOT
BRANCH   3   8
HETATM    8  C   UNL     4     -10.073   6.661  68.666  1.00  0.00    -0.161 C  
HETATM    9  O   UNL     4     -11.317   5.938  68.713  1.00  0.00    -0.180 OA 
HETATM   10  H   UNL     4     -12.037   6.549  68.826  1.00  0.00     0.000 HD 
BRANCH   8  11
HETATM   11  C   UNL     4     -10.066   7.608  69.902  1.00  0.00    -0.198 C  
HETATM   12  O   UNL     4      -8.820   7.626  70.590  1.00  0.00    -0.143 OA 
HETATM   13  H   UNL     4      -8.816   8.204  71.344  1.00  0.00     0.000 HD 
BRANCH  11  14
HETATM   14  C   UNL     4     -10.635   9.042  69.724  1.00  0.00    -0.228 C  
HETATM   15  H   UNL     4      -9.870  10.838  69.785  1.00  0.00     0.000 HD 
HETATM   16  O   UNL     4      -9.522   9.961  69.894  1.00  0.00    -0.220 OA 
BRANCH  14  17
HETATM   17  C   UNL     4     -11.860   9.504  70.564  1.00  0.00    -0.183 C  
HETATM   18  C   UNL     4     -12.344  10.965  70.184  1.00  0.00    -0.322 C  
HETATM   19  H   UNL     4     -12.413   9.568  72.484  1.00  0.00     0.000 HD 
HETATM   20  O   UNL     4     -11.665   9.286  71.970  1.00  0.00    -0.356 OA 
HETATM   21  O   UNL     4     -12.271  11.226  68.910  1.00  0.00    -0.494 OA 
HETATM   22  O   UNL     4     -12.662  11.763  71.109  1.00  0.00    -0.378 OA 
ENDBRANCH  14  17
ENDBRANCH  11  14
ENDBRANCH   8  11
ENDBRANCH   3   8
BRANCH   7  23
HETATM   23  C   UNL     5     -10.952  15.155  70.372  1.00  0.00    -0.238 C  
HETATM   24  O   UNL     5     -10.754  13.814  69.922  1.00  0.00    -0.402 OA 
HETATM   25  H   UNL     5     -10.147  13.831  69.192  1.00  0.00     0.000 HD 
BRANCH  23  26
HETATM   26  C   UNL     5     -11.462  16.056  69.226  1.00  0.00    -0.350 C  
HETATM   27  O   UNL     5     -10.501  17.106  68.977  1.00  0.00    -0.322 OA 
HETATM   28  H   UNL     5     -10.815  17.660  68.272  1.00  0.00     0.000 HD 
BRANCH  26  29
HETATM   29  C   UNL     5     -11.872  15.373  67.891  1.00  0.00    -0.073 C  
HETATM   30  O   UNL     5     -12.627  14.179  68.087  1.00  0.00    -0.455 OA 
HETATM   31  H   UNL     5     -12.877  13.761  67.271  1.00  0.00     0.000 HD 
BRANCH  29  32
HETATM   32  C   UNL     5     -10.786  15.180  66.820  1.00  0.00    -0.311 C  
HETATM   33  C   UNL     5     -11.113  14.171  65.699  1.00  0.00    -0.307 C  
HETATM   34  O   UNL     5      -9.498  14.841  67.448  1.00  0.00    -0.201 OA 
HETATM   35  O   UNL     5     -12.321  14.092  65.328  1.00  0.00    -0.419 OA 
HETATM   36  O   UNL     5     -10.101  13.475  65.328  1.00  0.00    -0.303 OA 
HETATM   37  H   UNL     5      -8.827  14.722  66.787  1.00  0.00     0.000 HD 
ENDBRANCH  29  32
ENDBRANCH  26  29
ENDBRANCH  23  26
ENDBRANCH   7  23
TORSDOF 8
ENDMDL
MODEL      211
REMARK 921   NORMALIZED FREE ENERGY PREDICTED BY IDOCK:   -5.32 KCAL/MOL
REMARK 922        TOTAL FREE ENERGY PREDICTED BY IDOCK:  -10.05 KCAL/MOL
REMARK 923 INTER-LIGAND FREE ENERGY PREDICTED BY IDOCK:   -7.73 KCAL/MOL
REMARK 924 INTRA-LIGAND FREE ENERGY PREDICTED BY IDOCK:   -2.32 KCAL/MOL
REMARK 927      BINDING AFFINITY PREDICTED BY RF-SCORE:    0.00 PKD
ROOT
HETATM    1 MG   UNL     3      -9.164  12.176  63.625  1.00  0.00    -0.409 Mg 
HETATM    2  O   UNL     4      -9.636  17.924  65.917  1.00  0.00    -0.525 OA 
HETATM    3  C   UNL     4      -9.004  16.659  65.963  1.00  0.00    -0.213 C  
HETATM    4  H   UNL     4      -9.096  18.593  65.511  1.00  0.00     0.000 HD 
HETATM    5  O   UNL     5     -11.329   5.244  66.168  1.00  0.00    -0.681 OA 
HETATM    6  H   UNL     5     -12.214   5.032  65.896  1.00  0.00     0.000 HD 
HETATM    7  C   UNL     5     -11.252   6.545  66.750  1.00  0.00    -0.013 C  
ENDROOT
BRANCH   3   8
HETATM    8  C   UNL     4      -9.876  15.579  66.619  1.00  0.00    -0.254 C  
HETATM    9  O   UNL     4      -9.901  15.777  68.045  1.00  0.00    -0.215 OA 
HETATM   10  H   UNL     4     -10.440  15.108  68.451  1.00  0.00     0.000 HD 
BRANCH   8  11
HETATM   11  C   UNL     4     -11.359  15.435  66.168  1.00  0.00    -0.082 C  
HETATM   12  O   UNL     4     -11.645  16.114  64.950  1.00  0.00    -0.116 OA 
HETATM   13  H   UNL     4     -12.550  16.026  64.674  1.00  0.00     0.000 HD 
BRANCH  11  14
HETATM   14  C   UNL     4     -11.994  14.018  66.189  1.00  0.00    -0.420 C  
HETATM   15  H   UNL     4     -12.385  12.712  67.588  1.00  0.00     0.000 HD 
HETATM   16  O   UNL     4     -11.997  13.579  67.575  1.00  0.00    -0.361 OA 
BRANCH  14  17
HETATM   17  C   UNL     4     -11.436  12.900  65.263  1.00  0.00    -0.313 C  
HETATM   18  C   UNL     4     -12.222  12.797  63.890  1.00  0.00    -0.463 C  
HETATM   19  H   UNL     4     -10.935  10.970  65.390  1.00  0.00     0.000 HD 
HETATM   20  O   UNL     4     -11.276  11.653  65.956  1.00  0.00    -0.300 OA 
HETATM   21  O   UNL     4     -12.580  13.950  63.404  1.00  0.00    -0.853 OA 
HETATM   22  O   UNL     4     -12.511  11.655  63.437  1.00  0.00    -0.473 OA 
ENDBRANCH  14  17
ENDBRANCH  11  14
ENDBRANCH   8  11
ENDBRANCH   3   8
BRANCH   7  23
HETATM   23  C   UNL     5      -9.815   6.890  67.192  1.00  0.00    -0.165 C  
HETATM   24  O   UNL     5      -8.909   6.363  66.221  1.00  0.00    -0.137 OA 
HETATM   25  H   UNL     5      -8.025   6.575  66.494  1.00  0.00     0.000 HD 
BRANCH  23  26
HETATM   26  C   UNL     5      -9.621   8.412  67.367  1.00  0.00    -0.157 C  
HETATM   27  O   UNL     5      -9.844   9.071  66.100  1.00  0.00    -0.271 OA 
HETATM   28  H   UNL     5      -9.725  10.008  66.207  1.00  0.00     0.000 HD 
BRANCH  26  29
HETATM   29  C   UNL     5     -10.422   9.123  68.492  1.00  0.00    -0.204 C  
HETATM   30  O   UNL     5     -11.469   9.954  67.990  1.00  0.00    -0.559 OA 
HETATM   31  H   UNL     5     -11.959  10.389  68.678  1.00  0.00     0.000 HD 
BRANCH  29  32
HETATM   32  C   UNL     5      -9.629   9.832  69.602  1.00  0.00    -0.221 C  
HETATM   33  C   UNL     5      -8.742  11.011  69.151  1.00  0.00     0.011 C  
HETATM   34  O   UNL     5      -8.830   8.859  70.365  1.00  0.00    -0.150 OA 
HETATM   35  O   UNL     5      -9.168  11.721  68.192  1.00  0.00    -0.174 OA 
HETATM   36  O   UNL     5      -7.625  11.079  69.779  1.00  0.00    -0.014 OA 
HETATM   37  H   UNL     5      -8.339   9.296  71.050  1.00  0.00     0.000 HD 
ENDBRANCH  29  32
ENDBRANCH  26  29
ENDBRANCH  23  26
ENDBRANCH   7  23
TORSDOF 8
ENDMDL
MODEL      212
REMARK 921   NORMALIZED FREE ENERGY PREDICTED BY IDOCK:   -5.31 KCAL/MOL
REMARK 922        TOTAL FREE ENERGY PREDICTED BY IDOCK:  -10.04 KCAL/MOL
REMARK 923 INTER-LIGAND FREE ENERGY PREDICTED BY IDOCK:   -7.93 KCAL/MOL
REMARK 924 INTRA-LIGAND FREE ENERGY PREDICTED BY IDOCK:   -2.10 KCAL/MOL
REMARK 927      BINDING AFFINITY PREDICTED BY RF-SCORE:    0.00 PKD
ROOT
HETATM    1 MG   UNL     3      -9.909  11.723  65.470  1.00  0.00    -0.199 Mg 
HETATM    2  O   UNL     4     -10.303   6.147  68.167  1.00  0.00    -0.157 OA 
HETATM    3  C   UNL     4     -10.902   7.402  67.905  1.00  0.00    -0.081 C  
HETATM    4  H   UNL     4     -10.674   5.444  67.645  1.00  0.00     0.000 HD 
HETATM    5  O   UNL     5      -8.708  18.843  68.130  1.00  0.00    -0.290 OA 
HETATM    6  H   UNL     5      -7.782  19.051  68.167  1.00  0.00     0.000 HD 
HETATM    7  C   UNL     5      -8.991  17.582  68.737  1.00  0.00    -0.211 C  
ENDROOT
BRANCH   3   8
HETATM    8  C   UNL     4     -10.303   8.538  68.748  1.00  0.00    -0.213 C  
HETATM    9  O   UNL     4     -10.092   9.696  67.919  1.00  0.00    -0.162 OA 
HETATM   10  H   UNL     4      -9.721  10.398  68.441  1.00  0.00     0.000 HD 
BRANCH   8  11
HETATM   11  C   UNL     4     -11.080   9.030  70.004  1.00  0.00    -0.182 C  
HETATM   12  O   UNL     4     -11.952  10.123  69.734  1.00  0.00    -0.449 OA 
HETATM   13  H   UNL     4     -12.426  10.423  70.500  1.00  0.00     0.000 HD 
BRANCH  11  14
HETATM   14  C   UNL     4     -11.769   7.964  70.899  1.00  0.00    -0.257 C  
HETATM   15  H   UNL     4     -13.455   7.882  71.883  1.00  0.00     0.000 HD 
HETATM   16  O   UNL     4     -13.034   8.534  71.335  1.00  0.00    -0.308 OA 
BRANCH  14  17
HETATM   17  C   UNL     4     -11.004   7.344  72.103  1.00  0.00    -0.245 C  
HETATM   18  C   UNL     4     -10.849   5.772  71.983  1.00  0.00    -0.251 C  
HETATM   19  H   UNL     4     -11.051   7.422  74.099  1.00  0.00     0.000 HD 
HETATM   20  O   UNL     4     -11.518   7.800  73.364  1.00  0.00    -0.237 OA 
HETATM   21  O   UNL     4     -10.630   5.358  70.768  1.00  0.00    -0.256 OA 
HETATM   22  O   UNL     4     -11.033   5.060  73.009  1.00  0.00    -0.248 OA 
ENDBRANCH  14  17
ENDBRANCH  11  14
ENDBRANCH   8  11
ENDBRANCH   3   8
BRANCH   7  23
HETATM   23  C   UNL     5     -10.494  17.244  68.676  1.00  0.00    -0.356 C  
HETATM   24  O   UNL     5     -10.872  17.126  67.303  1.00  0.00    -0.251 OA 
HETATM   25  H   UNL     5     -11.798  16.918  67.266  1.00  0.00     0.000 HD 
BRANCH  23  26
HETATM   26  C   UNL     5     -10.821  15.951  69.456  1.00  0.00    -0.305 C  
HETATM   27  O   UNL     5     -11.300  16.296  70.775  1.00  0.00    -0.421 OA 
HETATM   28  H   UNL     5     -11.501  15.501  71.255  1.00  0.00     0.000 HD 
BRANCH  26  29
HETATM   29  C   UNL     5     -11.774  14.921  68.789  1.00  0.00    -0.325 C  
HETATM   30  O   UNL     5     -12.957  14.683  69.552  1.00  0.00    -0.432 OA 
HETATM   31  H   UNL     5     -13.540  14.053  69.145  1.00  0.00     0.000 HD 
BRANCH  29  32
HETATM   32  C   UNL     5     -11.165  13.606  68.276  1.00  0.00    -0.273 C  
HETATM   33  C   UNL     5     -11.889  12.945  67.084  1.00  0.00    -0.362 C  
HETATM   34  O   UNL     5     -11.020  12.641  69.379  1.00  0.00    -0.428 OA 
HETATM   35  O   UNL     5     -12.419  13.716  66.230  1.00  0.00    -0.422 OA 
HETATM   36  O   UNL     5     -11.920  11.664  67.152  1.00  0.00    -0.614 OA 
HETATM   37  H   UNL     5     -10.644  11.829  69.062  1.00  0.00     0.000 HD 
ENDBRANCH  29  32
ENDBRANCH  26  29
ENDBRANCH  23  26
ENDBRANCH   7  23
TORSDOF 8
ENDMDL
MODEL      213
REMARK 921   NORMALIZED FREE ENERGY PREDICTED BY IDOCK:   -5.30 KCAL/MOL
REMARK 922        TOTAL FREE ENERGY PREDICTED BY IDOCK:  -10.02 KCAL/MOL
REMARK 923 INTER-LIGAND FREE ENERGY PREDICTED BY IDOCK:   -8.08 KCAL/MOL
REMARK 924 INTRA-LIGAND FREE ENERGY PREDICTED BY IDOCK:   -1.94 KCAL/MOL
REMARK 927      BINDING AFFINITY PREDICTED BY RF-SCORE:    0.00 PKD
ROOT
HETATM    1 MG   UNL     3      -6.409  10.076  69.387  1.00  0.00    -0.041 Mg 
HETATM    2  O   UNL     4      -9.354   5.187  71.825  1.00  0.00    -0.143 OA 
HETATM    3  C   UNL     4      -9.191   6.071  70.733  1.00  0.00    -0.154 C  
HETATM    4  H   UNL     4      -8.966   4.333  71.672  1.00  0.00     0.000 HD 
HETATM    5  O   UNL     5      -8.404  17.401  68.132  1.00  0.00    -0.224 OA 
HETATM    6  H   UNL     5      -8.211  17.951  68.882  1.00  0.00     0.000 HD 
HETATM    7  C   UNL     5      -9.113  16.221  68.509  1.00  0.00    -0.216 C  
ENDROOT
BRANCH   3   8
HETATM    8  C   UNL     4      -9.818   7.451  70.981  1.00  0.00    -0.179 C  
HETATM    9  O   UNL     4      -8.777   8.431  71.156  1.00  0.00    -0.133 OA 
HETATM   10  H   UNL     4      -9.165   9.285  71.309  1.00  0.00     0.000 HD 
BRANCH   8  11
HETATM   11  C   UNL     4     -10.797   8.032  69.919  1.00  0.00    -0.217 C  
HETATM   12  O   UNL     4     -12.066   8.386  70.458  1.00  0.00    -0.493 OA 
HETATM   13  H   UNL     4     -12.663   8.740  69.810  1.00  0.00     0.000 HD 
BRANCH  11  14
HETATM   14  C   UNL     4     -10.263   9.129  68.959  1.00  0.00    -0.207 C  
HETATM   15  H   UNL     4     -10.955  10.837  68.309  1.00  0.00     0.000 HD 
HETATM   16  O   UNL     4     -11.282  10.165  68.896  1.00  0.00    -0.225 OA 
BRANCH  14  17
HETATM   17  C   UNL     4      -9.782   8.748  67.530  1.00  0.00    -0.167 C  
HETATM   18  C   UNL     4      -8.202   8.723  67.405  1.00  0.00    -0.109 C  
HETATM   19  H   UNL     4     -10.156   9.277  65.639  1.00  0.00     0.000 HD 
HETATM   20  O   UNL     4     -10.450   9.510  66.512  1.00  0.00    -0.211 OA 
HETATM   21  O   UNL     4      -7.601   8.253  68.460  1.00  0.00    -0.096 OA 
HETATM   22  O   UNL     4      -7.663   9.222  66.379  1.00  0.00    -0.092 OA 
ENDBRANCH  14  17
ENDBRANCH  11  14
ENDBRANCH   8  11
ENDBRANCH   3   8
BRANCH   7  23
HETATM   23  C   UNL     5      -9.428  15.330  67.291  1.00  0.00    -0.208 C  
HETATM   24  O   UNL     5      -9.703  14.009  67.762  1.00  0.00    -0.218 OA 
HETATM   25  H   UNL     5      -9.897  13.460  67.012  1.00  0.00     0.000 HD 
BRANCH  23  26
HETATM   26  C   UNL     5     -10.610  15.884  66.467  1.00  0.00    -0.297 C  
HETATM   27  O   UNL     5     -10.700  17.315  66.661  1.00  0.00    -0.220 OA 
HETATM   28  H   UNL     5     -11.427  17.656  66.154  1.00  0.00     0.000 HD 
BRANCH  26  29
HETATM   29  C   UNL     5     -10.666  15.542  64.952  1.00  0.00    -0.392 C  
HETATM   30  O   UNL     5     -11.389  16.508  64.190  1.00  0.00    -1.381 OA 
HETATM   31  H   UNL     5     -11.423  16.299  63.264  1.00  0.00     0.000 HD 
BRANCH  29  32
HETATM   32  C   UNL     5     -11.054  14.109  64.553  1.00  0.00    -0.330 C  
HETATM   33  C   UNL     5     -12.396  13.591  65.113  1.00  0.00    -0.449 C  
HETATM   34  O   UNL     5      -9.970  13.171  64.885  1.00  0.00    -0.512 OA 
HETATM   35  O   UNL     5     -13.331  14.435  65.245  1.00  0.00    -0.574 OA 
HETATM   36  O   UNL     5     -12.366  12.352  65.445  1.00  0.00    -0.596 OA 
HETATM   37  H   UNL     5     -10.209  12.286  64.639  1.00  0.00     0.000 HD 
ENDBRANCH  29  32
ENDBRANCH  26  29
ENDBRANCH  23  26
ENDBRANCH   7  23
TORSDOF 8
ENDMDL
MODEL      214
REMARK 921   NORMALIZED FREE ENERGY PREDICTED BY IDOCK:   -5.29 KCAL/MOL
REMARK 922        TOTAL FREE ENERGY PREDICTED BY IDOCK:  -10.01 KCAL/MOL
REMARK 923 INTER-LIGAND FREE ENERGY PREDICTED BY IDOCK:   -7.49 KCAL/MOL
REMARK 924 INTRA-LIGAND FREE ENERGY PREDICTED BY IDOCK:   -2.53 KCAL/MOL
REMARK 927      BINDING AFFINITY PREDICTED BY RF-SCORE:    0.00 PKD
ROOT
HETATM    1 MG   UNL     3     -10.423  14.566  65.005  1.00  0.00    -0.279 Mg 
HETATM    2  O   UNL     4      -9.678  20.657  65.938  1.00  0.00    -0.622 OA 
HETATM    3  C   UNL     4      -9.126  19.355  65.990  1.00  0.00    -0.168 C  
HETATM    4  H   UNL     4      -9.357  21.167  65.203  1.00  0.00     0.000 HD 
HETATM    5  O   UNL     5     -11.416   8.550  69.699  1.00  0.00    -0.434 OA 
HETATM    6  H   UNL     5     -12.335   8.400  69.885  1.00  0.00     0.000 HD 
HETATM    7  C   UNL     5     -11.055   9.918  69.887  1.00  0.00    -0.275 C  
ENDROOT
BRANCH   3   8
HETATM    8  C   UNL     4      -9.644  18.531  67.177  1.00  0.00    -0.295 C  
HETATM    9  O   UNL     4     -10.733  19.228  67.811  1.00  0.00    -0.426 OA 
HETATM   10  H   UNL     4     -11.054  18.719  68.546  1.00  0.00     0.000 HD 
BRANCH   8  11
HETATM   11  C   UNL     4     -10.139  17.078  66.923  1.00  0.00    -0.298 C  
HETATM   12  O   UNL     4     -10.357  16.791  65.545  1.00  0.00    -0.558 OA 
HETATM   13  H   UNL     4     -10.659  15.903  65.390  1.00  0.00     0.000 HD 
BRANCH  11  14
HETATM   14  C   UNL     4      -9.389  15.918  67.632  1.00  0.00    -0.217 C  
HETATM   15  H   UNL     4      -8.414  14.339  67.020  1.00  0.00     0.000 HD 
HETATM   16  O   UNL     4      -8.873  15.049  66.586  1.00  0.00    -0.260 OA 
BRANCH  14  17
HETATM   17  C   UNL     4     -10.106  15.083  68.732  1.00  0.00    -0.231 C  
HETATM   18  C   UNL     4     -11.649  14.878  68.434  1.00  0.00    -0.325 C  
HETATM   19  H   UNL     4     -10.247  15.052  70.725  1.00  0.00     0.000 HD 
HETATM   20  O   UNL     4      -9.810  15.562  70.053  1.00  0.00    -0.283 OA 
HETATM   21  O   UNL     4     -11.919  14.694  67.174  1.00  0.00    -0.391 OA 
HETATM   22  O   UNL     4     -12.474  14.995  69.381  1.00  0.00    -0.171 OA 
ENDBRANCH  14  17
ENDBRANCH  11  14
ENDBRANCH   8  11
ENDBRANCH   3   8
BRANCH   7  23
HETATM   23  C   UNL     5      -9.563  10.163  69.584  1.00  0.00    -0.210 C  
HETATM   24  O   UNL     5      -8.931   8.895  69.393  1.00  0.00    -0.140 OA 
HETATM   25  H   UNL     5      -8.012   9.046  69.206  1.00  0.00     0.000 HD 
BRANCH  23  26
HETATM   26  C   UNL     5      -9.372  11.071  68.350  1.00  0.00    -0.179 C  
HETATM   27  O   UNL     5      -8.406  12.102  68.659  1.00  0.00    -0.284 OA 
HETATM   28  H   UNL     5      -8.288  12.661  67.900  1.00  0.00     0.000 HD 
BRANCH  26  29
HETATM   29  C   UNL     5      -9.023  10.395  66.995  1.00  0.00    -0.139 C  
HETATM   30  O   UNL     5      -7.626  10.144  66.843  1.00  0.00    -0.097 OA 
HETATM   31  H   UNL     5      -7.413   9.730  66.015  1.00  0.00     0.000 HD 
BRANCH  29  32
HETATM   32  C   UNL     5      -9.627  10.995  65.716  1.00  0.00    -0.222 C  
HETATM   33  C   UNL     5      -9.275  10.273  64.398  1.00  0.00    -0.252 C  
HETATM   34  O   UNL     5      -9.297  12.426  65.613  1.00  0.00    -0.430 OA 
HETATM   35  O   UNL     5      -9.142   9.014  64.447  1.00  0.00    -0.087 OA 
HETATM   36  O   UNL     5      -9.090  11.071  63.412  1.00  0.00    -0.213 OA 
HETATM   37  H   UNL     5      -9.670  12.797  64.823  1.00  0.00     0.000 HD 
ENDBRANCH  29  32
ENDBRANCH  26  29
ENDBRANCH  23  26
ENDBRANCH   7  23
TORSDOF 8
ENDMDL
MODEL      215
REMARK 921   NORMALIZED FREE ENERGY PREDICTED BY IDOCK:   -5.29 KCAL/MOL
REMARK 922        TOTAL FREE ENERGY PREDICTED BY IDOCK:  -10.01 KCAL/MOL
REMARK 923 INTER-LIGAND FREE ENERGY PREDICTED BY IDOCK:   -8.45 KCAL/MOL
REMARK 924 INTRA-LIGAND FREE ENERGY PREDICTED BY IDOCK:   -1.56 KCAL/MOL
REMARK 927      BINDING AFFINITY PREDICTED BY RF-SCORE:    0.00 PKD
ROOT
HETATM    1 MG   UNL     3      -9.558  15.722  70.332  1.00  0.00    -0.256 Mg 
HETATM    2  O   UNL     4      -9.733  20.987  67.050  1.00  0.00    -0.671 OA 
HETATM    3  C   UNL     4     -10.410  19.833  67.510  1.00  0.00    -0.440 C  
HETATM    4  H   UNL     4      -9.985  21.775  67.518  1.00  0.00     0.000 HD 
HETATM    5  O   UNL     5      -9.264   8.274  68.422  1.00  0.00    -0.136 OA 
HETATM    6  H   UNL     5      -8.369   7.972  68.325  1.00  0.00     0.000 HD 
HETATM    7  C   UNL     5      -9.496   9.484  67.701  1.00  0.00    -0.131 C  
ENDROOT
BRANCH   3   8
HETATM    8  C   UNL     4     -10.002  18.559  66.754  1.00  0.00    -0.360 C  
HETATM    9  O   UNL     4     -10.617  18.551  65.452  1.00  0.00    -0.589 OA 
HETATM   10  H   UNL     4     -10.365  17.763  64.985  1.00  0.00     0.000 HD 
BRANCH   8  11
HETATM   11  C   UNL     4      -8.488  18.273  66.529  1.00  0.00    -0.268 C  
HETATM   12  O   UNL     4      -7.874  19.176  65.616  1.00  0.00    -0.451 OA 
HETATM   13  H   UNL     4      -6.951  19.001  65.480  1.00  0.00     0.000 HD 
BRANCH  11  14
HETATM   14  C   UNL     4      -7.598  18.037  67.779  1.00  0.00    -0.220 C  
HETATM   15  H   UNL     4      -6.312  19.123  68.771  1.00  0.00     0.000 HD 
HETATM   16  O   UNL     4      -6.857  19.267  68.006  1.00  0.00    -0.230 OA 
BRANCH  14  17
HETATM   17  C   UNL     4      -6.647  16.807  67.839  1.00  0.00    -0.141 C  
HETATM   18  C   UNL     4      -7.367  15.506  68.386  1.00  0.00    -0.115 C  
HETATM   19  H   UNL     4      -4.820  16.366  68.518  1.00  0.00     0.000 HD 
HETATM   20  O   UNL     4      -5.401  17.117  68.482  1.00  0.00    -0.132 OA 
HETATM   21  O   UNL     4      -8.599  15.379  67.982  1.00  0.00    -0.149 OA 
HETATM   22  O   UNL     4      -6.755  14.770  69.209  1.00  0.00    -0.117 OA 
ENDBRANCH  14  17
ENDBRANCH  11  14
ENDBRANCH   8  11
ENDBRANCH   3   8
BRANCH   7  23
HETATM   23  C   UNL     5     -10.950   9.973  67.858  1.00  0.00    -0.252 C  
HETATM   24  O   UNL     5     -11.314   9.862  69.236  1.00  0.00    -0.396 OA 
HETATM   25  H   UNL     5     -12.209  10.163  69.332  1.00  0.00     0.000 HD 
BRANCH  23  26
HETATM   26  C   UNL     5     -11.122  11.422  67.353  1.00  0.00    -0.289 C  
HETATM   27  O   UNL     5     -10.351  12.316  68.188  1.00  0.00    -0.203 OA 
HETATM   28  H   UNL     5     -10.457  13.208  67.877  1.00  0.00     0.000 HD 
BRANCH  26  29
HETATM   29  C   UNL     5     -10.837  11.708  65.852  1.00  0.00    -0.287 C  
HETATM   30  O   UNL     5      -9.632  12.444  65.646  1.00  0.00    -0.370 OA 
HETATM   31  H   UNL     5      -9.457  12.619  64.728  1.00  0.00     0.000 HD 
BRANCH  29  32
HETATM   32  C   UNL     5     -11.986  12.264  64.995  1.00  0.00    -0.354 C  
HETATM   33  C   UNL     5     -11.635  12.604  63.532  1.00  0.00    -0.514 C  
HETATM   34  O   UNL     5     -12.601  13.429  65.653  1.00  0.00    -0.466 OA 
HETATM   35  O   UNL     5     -10.781  11.866  62.956  1.00  0.00    -0.288 OA 
HETATM   36  O   UNL     5     -12.220  13.659  63.098  1.00  0.00    -0.622 OA 
HETATM   37  H   UNL     5     -13.311  13.772  65.124  1.00  0.00     0.000 HD 
ENDBRANCH  29  32
ENDBRANCH  26  29
ENDBRANCH  23  26
ENDBRANCH   7  23
TORSDOF 8
ENDMDL
MODEL      216
REMARK 921   NORMALIZED FREE ENERGY PREDICTED BY IDOCK:   -5.26 KCAL/MOL
REMARK 922        TOTAL FREE ENERGY PREDICTED BY IDOCK:   -9.97 KCAL/MOL
REMARK 923 INTER-LIGAND FREE ENERGY PREDICTED BY IDOCK:   -8.17 KCAL/MOL
REMARK 924 INTRA-LIGAND FREE ENERGY PREDICTED BY IDOCK:   -1.79 KCAL/MOL
REMARK 927      BINDING AFFINITY PREDICTED BY RF-SCORE:    0.00 PKD
ROOT
HETATM    1 MG   UNL     3     -12.409  10.414  68.319  1.00  0.00    -0.460 Mg 
HETATM    2  O   UNL     4     -12.363  13.535  62.955  1.00  0.00    -0.909 OA 
HETATM    3  C   UNL     4     -12.582  12.314  63.634  1.00  0.00    -0.490 C  
HETATM    4  H   UNL     4     -13.170  13.971  62.706  1.00  0.00     0.000 HD 
HETATM    5  O   UNL     5      -7.740   5.162  71.453  1.00  0.00    -0.098 OA 
HETATM    6  H   UNL     5      -7.047   5.567  71.962  1.00  0.00     0.000 HD 
HETATM    7  C   UNL     5      -7.859   5.749  70.158  1.00  0.00    -0.099 C  
ENDROOT
BRANCH   3   8
HETATM    8  C   UNL     4     -11.278  11.611  64.036  1.00  0.00    -0.369 C  
HETATM    9  O   UNL     4     -10.631  11.082  62.863  1.00  0.00    -0.777 OA 
HETATM   10  H   UNL     4      -9.824  10.646  63.113  1.00  0.00     0.000 HD 
BRANCH   8  11
HETATM   11  C   UNL     4     -10.196  12.421  64.809  1.00  0.00    -0.279 C  
HETATM   12  O   UNL     4      -9.924  13.692  64.229  1.00  0.00    -0.749 OA 
HETATM   13  H   UNL     4      -9.264  14.186  64.701  1.00  0.00     0.000 HD 
BRANCH  11  14
HETATM   14  C   UNL     4     -10.324  12.518  66.353  1.00  0.00    -0.243 C  
HETATM   15  H   UNL     4     -10.354  11.218  67.811  1.00  0.00     0.000 HD 
HETATM   16  O   UNL     4     -10.276  11.159  66.867  1.00  0.00    -0.207 OA 
BRANCH  14  17
HETATM   17  C   UNL     4     -11.508  13.301  66.990  1.00  0.00    -0.339 C  
HETATM   18  C   UNL     4     -11.099  14.765  67.439  1.00  0.00    -0.324 C  
HETATM   19  H   UNL     4     -12.908  13.012  68.387  1.00  0.00     0.000 HD 
HETATM   20  O   UNL     4     -12.185  12.534  67.998  1.00  0.00    -0.310 OA 
HETATM   21  O   UNL     4     -10.273  15.352  66.622  1.00  0.00    -0.263 OA 
HETATM   22  O   UNL     4     -11.511  15.201  68.550  1.00  0.00    -0.290 OA 
ENDBRANCH  14  17
ENDBRANCH  11  14
ENDBRANCH   8  11
ENDBRANCH   3   8
BRANCH   7  23
HETATM   23  C   UNL     5      -8.984   5.090  69.333  1.00  0.00    -0.092 C  
HETATM   24  O   UNL     5      -9.605   6.100  68.536  1.00  0.00    -0.119 OA 
HETATM   25  H   UNL     5     -10.297   5.694  68.028  1.00  0.00     0.000 HD 
BRANCH  23  26
HETATM   26  C   UNL     5      -8.448   3.939  68.455  1.00  0.00    -0.092 C  
HETATM   27  O   UNL     5      -7.754   2.983  69.288  1.00  0.00    -0.047 OA 
HETATM   28  H   UNL     5      -7.424   2.275  68.747  1.00  0.00     0.000 HD 
BRANCH  26  29
HETATM   29  C   UNL     5      -9.452   3.209  67.520  1.00  0.00    -0.142 C  
HETATM   30  O   UNL     5      -9.584   1.820  67.822  1.00  0.00    -0.372 OA 
HETATM   31  H   UNL     5     -10.198   1.374  67.251  1.00  0.00     0.000 HD 
BRANCH  29  32
HETATM   32  C   UNL     5      -9.326   3.443  66.006  1.00  0.00    -0.142 C  
HETATM   33  C   UNL     5     -10.348   4.417  65.384  1.00  0.00    -0.216 C  
HETATM   34  O   UNL     5      -9.344   2.160  65.284  1.00  0.00    -0.257 OA 
HETATM   35  O   UNL     5     -10.722   5.395  66.097  1.00  0.00    -0.229 OA 
HETATM   36  O   UNL     5     -10.749   4.061  64.219  1.00  0.00    -0.259 OA 
HETATM   37  H   UNL     5      -9.265   2.304  64.349  1.00  0.00     0.000 HD 
ENDBRANCH  29  32
ENDBRANCH  26  29
ENDBRANCH  23  26
ENDBRANCH   7  23
TORSDOF 8
ENDMDL
MODEL      217
REMARK 921   NORMALIZED FREE ENERGY PREDICTED BY IDOCK:   -5.26 KCAL/MOL
REMARK 922        TOTAL FREE ENERGY PREDICTED BY IDOCK:   -9.96 KCAL/MOL
REMARK 923 INTER-LIGAND FREE ENERGY PREDICTED BY IDOCK:   -7.71 KCAL/MOL
REMARK 924 INTRA-LIGAND FREE ENERGY PREDICTED BY IDOCK:   -2.25 KCAL/MOL
REMARK 927      BINDING AFFINITY PREDICTED BY RF-SCORE:    0.00 PKD
ROOT
HETATM    1 MG   UNL     3      -8.991  14.883  67.453  1.00  0.00    -0.157 Mg 
HETATM    2  O   UNL     4      -7.715   9.761  64.189  1.00  0.00    -0.122 OA 
HETATM    3  C   UNL     4      -8.685  10.674  64.664  1.00  0.00    -0.152 C  
HETATM    4  H   UNL     4      -7.515   9.879  63.268  1.00  0.00     0.000 HD 
HETATM    5  O   UNL     5     -12.187  16.141  74.339  1.00  0.00    -0.531 OA 
HETATM    6  H   UNL     5     -11.537  16.140  75.033  1.00  0.00     0.000 HD 
HETATM    7  C   UNL     5     -12.056  15.002  73.490  1.00  0.00    -0.386 C  
ENDROOT
BRANCH   3   8
HETATM    8  C   UNL     4      -9.008  10.483  66.153  1.00  0.00    -0.160 C  
HETATM    9  O   UNL     4      -9.628  11.676  66.671  1.00  0.00    -0.195 OA 
HETATM   10  H   UNL     4      -9.827  11.558  67.593  1.00  0.00     0.000 HD 
BRANCH   8  11
HETATM   11  C   UNL     4      -9.918   9.294  66.577  1.00  0.00    -0.274 C  
HETATM   12  O   UNL     4      -9.713   8.122  65.795  1.00  0.00    -0.438 OA 
HETATM   13  H   UNL     4     -10.269   7.396  66.054  1.00  0.00     0.000 HD 
BRANCH  11  14
HETATM   14  C   UNL     4     -10.018   8.955  68.089  1.00  0.00    -0.176 C  
HETATM   15  H   UNL     4      -9.018   9.484  69.682  1.00  0.00     0.000 HD 
HETATM   16  O   UNL     4      -8.956   9.691  68.757  1.00  0.00    -0.129 OA 
BRANCH  14  17
HETATM   17  C   UNL     4     -10.034   7.472  68.557  1.00  0.00    -0.168 C  
HETATM   18  C   UNL     4     -10.541   7.309  70.050  1.00  0.00    -0.233 C  
HETATM   19  H   UNL     4      -8.807   5.894  68.554  1.00  0.00     0.000 HD 
HETATM   20  O   UNL     4      -8.797   6.801  68.269  1.00  0.00    -0.126 OA 
HETATM   21  O   UNL     4     -11.511   8.119  70.365  1.00  0.00    -0.234 OA 
HETATM   22  O   UNL     4      -9.936   6.509  70.816  1.00  0.00    -0.183 OA 
ENDBRANCH  14  17
ENDBRANCH  11  14
ENDBRANCH   8  11
ENDBRANCH   3   8
BRANCH   7  23
HETATM   23  C   UNL     5     -13.110  15.003  72.365  1.00  0.00    -0.372 C  
HETATM   24  O   UNL     5     -14.188  15.853  72.762  1.00  0.00    -0.523 OA 
HETATM   25  H   UNL     5     -14.838  15.854  72.069  1.00  0.00     0.000 HD 
BRANCH  23  26
HETATM   26  C   UNL     5     -12.508  15.462  71.018  1.00  0.00    -0.411 C  
HETATM   27  O   UNL     5     -11.696  16.639  71.232  1.00  0.00    -0.605 OA 
HETATM   28  H   UNL     5     -11.326  16.920  70.404  1.00  0.00     0.000 HD 
BRANCH  26  29
HETATM   29  C   UNL     5     -11.727  14.414  70.177  1.00  0.00    -0.297 C  
HETATM   30  O   UNL     5     -10.519  14.936  69.623  1.00  0.00    -0.320 OA 
HETATM   31  H   UNL     5     -10.041  14.296  69.109  1.00  0.00     0.000 HD 
BRANCH  29  32
HETATM   32  C   UNL     5     -12.511  13.596  69.138  1.00  0.00     0.126 C  
HETATM   33  C   UNL     5     -12.091  12.120  68.983  1.00  0.00    -0.153 C  
HETATM   34  O   UNL     5     -12.490  14.270  67.830  1.00  0.00    -0.567 OA 
HETATM   35  O   UNL     5     -11.699  11.518  70.026  1.00  0.00    -0.311 OA 
HETATM   36  O   UNL     5     -12.130  11.703  67.771  1.00  0.00    -0.613 OA 
HETATM   37  H   UNL     5     -12.974  13.765  67.188  1.00  0.00     0.000 HD 
ENDBRANCH  29  32
ENDBRANCH  26  29
ENDBRANCH  23  26
ENDBRANCH   7  23
TORSDOF 8
ENDMDL
MODEL      218
REMARK 921   NORMALIZED FREE ENERGY PREDICTED BY IDOCK:   -5.24 KCAL/MOL
REMARK 922        TOTAL FREE ENERGY PREDICTED BY IDOCK:   -9.93 KCAL/MOL
REMARK 923 INTER-LIGAND FREE ENERGY PREDICTED BY IDOCK:   -7.85 KCAL/MOL
REMARK 924 INTRA-LIGAND FREE ENERGY PREDICTED BY IDOCK:   -2.09 KCAL/MOL
REMARK 927      BINDING AFFINITY PREDICTED BY RF-SCORE:    0.00 PKD
ROOT
HETATM    1 MG   UNL     3     -12.227  13.494  69.849  1.00  0.00    -0.251 Mg 
HETATM    2  O   UNL     4     -12.076  15.160  63.873  1.00  0.00    -0.924 OA 
HETATM    3  C   UNL     4     -12.514  14.241  64.854  1.00  0.00    -0.390 C  
HETATM    4  H   UNL     4     -12.768  15.738  63.571  1.00  0.00     0.000 HD 
HETATM    5  O   UNL     5      -8.713   7.995  73.926  1.00  0.00    -0.266 OA 
HETATM    6  H   UNL     5      -7.878   8.292  74.268  1.00  0.00     0.000 HD 
HETATM    7  C   UNL     5      -8.845   8.279  72.533  1.00  0.00    -0.229 C  
ENDROOT
BRANCH   3   8
HETATM    8  C   UNL     4     -11.396  13.307  65.341  1.00  0.00    -0.295 C  
HETATM    9  O   UNL     4     -10.133  13.744  64.805  1.00  0.00    -0.580 OA 
HETATM   10  H   UNL     4      -9.442  13.166  65.105  1.00  0.00     0.000 HD 
BRANCH   8  11
HETATM   11  C   UNL     4     -11.185  13.124  66.872  1.00  0.00    -0.296 C  
HETATM   12  O   UNL     4     -10.724  11.824  67.225  1.00  0.00    -0.219 OA 
HETATM   13  H   UNL     4     -10.595  11.713  68.160  1.00  0.00     0.000 HD 
BRANCH  11  14
HETATM   14  C   UNL     4     -10.408  14.229  67.638  1.00  0.00    -0.248 C  
HETATM   15  H   UNL     4      -9.476  14.311  69.353  1.00  0.00     0.000 HD 
HETATM   16  O   UNL     4      -9.951  13.635  68.884  1.00  0.00    -0.141 OA 
BRANCH  14  17
HETATM   17  C   UNL     4     -11.073  15.610  67.902  1.00  0.00    -0.324 C  
HETATM   18  C   UNL     4     -10.358  16.790  67.122  1.00  0.00    -0.297 C  
HETATM   19  H   UNL     4     -11.682  16.698  69.464  1.00  0.00     0.000 HD 
HETATM   20  O   UNL     4     -11.276  15.855  69.302  1.00  0.00    -0.288 OA 
HETATM   21  O   UNL     4      -9.954  16.460  65.929  1.00  0.00    -0.322 OA 
HETATM   22  O   UNL     4     -10.159  17.884  67.719  1.00  0.00    -0.315 OA 
ENDBRANCH  14  17
ENDBRANCH  11  14
ENDBRANCH   8  11
ENDBRANCH   3   8
BRANCH   7  23
HETATM   23  C   UNL     5     -10.200   7.797  71.977  1.00  0.00    -0.201 C  
HETATM   24  O   UNL     5     -10.941   8.941  71.549  1.00  0.00    -0.275 OA 
HETATM   25  H   UNL     5     -11.776   8.643  71.206  1.00  0.00     0.000 HD 
BRANCH  23  26
HETATM   26  C   UNL     5     -10.017   6.788  70.822  1.00  0.00    -0.187 C  
HETATM   27  O   UNL     5     -11.266   6.100  70.584  1.00  0.00    -0.310 OA 
HETATM   28  H   UNL     5     -11.153   5.479  69.874  1.00  0.00     0.000 HD 
BRANCH  26  29
HETATM   29  C   UNL     5      -9.428   7.314  69.483  1.00  0.00    -0.155 C  
HETATM   30  O   UNL     5      -8.038   7.624  69.571  1.00  0.00    -0.122 OA 
HETATM   31  H   UNL     5      -7.678   7.945  68.753  1.00  0.00     0.000 HD 
BRANCH  29  32
HETATM   32  C   UNL     5     -10.202   8.415  68.742  1.00  0.00    -0.207 C  
HETATM   33  C   UNL     5     -10.517   8.138  67.257  1.00  0.00    -0.309 C  
HETATM   34  O   UNL     5      -9.514   9.710  68.881  1.00  0.00    -0.150 OA 
HETATM   35  O   UNL     5     -10.754   6.937  66.931  1.00  0.00    -0.318 OA 
HETATM   36  O   UNL     5     -10.429   9.179  66.513  1.00  0.00    -0.228 OA 
HETATM   37  H   UNL     5      -9.991  10.390  68.423  1.00  0.00     0.000 HD 
ENDBRANCH  29  32
ENDBRANCH  26  29
ENDBRANCH  23  26
ENDBRANCH   7  23
TORSDOF 8
ENDMDL
MODEL      219
REMARK 921   NORMALIZED FREE ENERGY PREDICTED BY IDOCK:   -5.23 KCAL/MOL
REMARK 922        TOTAL FREE ENERGY PREDICTED BY IDOCK:   -9.91 KCAL/MOL
REMARK 923 INTER-LIGAND FREE ENERGY PREDICTED BY IDOCK:   -7.80 KCAL/MOL
REMARK 924 INTRA-LIGAND FREE ENERGY PREDICTED BY IDOCK:   -2.12 KCAL/MOL
REMARK 927      BINDING AFFINITY PREDICTED BY RF-SCORE:    0.00 PKD
ROOT
HETATM    1 MG   UNL     3      -7.974   9.712  69.404  1.00  0.00    -0.073 Mg 
HETATM    2  O   UNL     4      -6.872   4.954  73.234  1.00  0.00    -0.065 OA 
HETATM    3  C   UNL     4      -7.805   5.685  72.461  1.00  0.00    -0.103 C  
HETATM    4  H   UNL     4      -6.624   4.129  72.832  1.00  0.00     0.000 HD 
HETATM    5  O   UNL     5     -11.392  16.551  70.268  1.00  0.00    -0.468 OA 
HETATM    6  H   UNL     5     -10.776  17.218  70.547  1.00  0.00     0.000 HD 
HETATM    7  C   UNL     5     -11.294  15.373  71.068  1.00  0.00    -0.367 C  
ENDROOT
BRANCH   3   8
HETATM    8  C   UNL     4      -8.206   7.017  73.110  1.00  0.00    -0.105 C  
HETATM    9  O   UNL     4      -7.027   7.799  73.379  1.00  0.00    -0.079 OA 
HETATM   10  H   UNL     4      -7.275   8.624  73.781  1.00  0.00     0.000 HD 
BRANCH   8  11
HETATM   11  C   UNL     4      -9.193   7.953  72.354  1.00  0.00    -0.181 C  
HETATM   12  O   UNL     4      -9.081   7.862  70.937  1.00  0.00    -0.148 OA 
HETATM   13  H   UNL     4      -9.684   8.433  70.476  1.00  0.00     0.000 HD 
BRANCH  11  14
HETATM   14  C   UNL     4     -10.679   7.963  72.805  1.00  0.00    -0.371 C  
HETATM   15  H   UNL     4     -11.692   7.054  74.207  1.00  0.00     0.000 HD 
HETATM   16  O   UNL     4     -10.783   7.048  73.930  1.00  0.00    -0.324 OA 
BRANCH  14  17
HETATM   17  C   UNL     4     -11.810   7.692  71.773  1.00  0.00    -0.290 C  
HETATM   18  C   UNL     4     -12.975   8.763  71.849  1.00  0.00    -0.376 C  
HETATM   19  H   UNL     4     -12.941   6.159  71.169  1.00  0.00     0.000 HD 
HETATM   20  O   UNL     4     -12.250   6.325  71.799  1.00  0.00    -0.312 OA 
HETATM   21  O   UNL     4     -12.559   9.975  72.080  1.00  0.00    -0.372 OA 
HETATM   22  O   UNL     4     -14.172   8.369  71.776  1.00  0.00    -0.414 OA 
ENDBRANCH  14  17
ENDBRANCH  11  14
ENDBRANCH   8  11
ENDBRANCH   3   8
BRANCH   7  23
HETATM   23  C   UNL     5     -12.295  14.290  70.615  1.00  0.00    -0.361 C  
HETATM   24  O   UNL     5     -13.557  14.917  70.380  1.00  0.00    -0.592 OA 
HETATM   25  H   UNL     5     -14.173  14.250  70.101  1.00  0.00     0.000 HD 
BRANCH  23  26
HETATM   26  C   UNL     5     -11.800  13.545  69.356  1.00  0.00    -0.335 C  
HETATM   27  O   UNL     5     -10.449  13.963  69.052  1.00  0.00    -0.341 OA 
HETATM   28  H   UNL     5     -10.145  13.505  68.278  1.00  0.00     0.000 HD 
BRANCH  26  29
HETATM   29  C   UNL     5     -11.899  11.994  69.343  1.00  0.00    -0.324 C  
HETATM   30  O   UNL     5     -11.014  11.372  70.274  1.00  0.00    -0.416 OA 
HETATM   31  H   UNL     5     -11.075  10.424  70.265  1.00  0.00     0.000 HD 
BRANCH  29  32
HETATM   32  C   UNL     5     -11.867  11.284  67.980  1.00  0.00    -0.170 C  
HETATM   33  C   UNL     5     -10.747  10.240  67.787  1.00  0.00    -0.275 C  
HETATM   34  O   UNL     5     -11.836  12.270  66.887  1.00  0.00    -0.524 OA 
HETATM   35  O   UNL     5     -10.401   9.569  68.804  1.00  0.00    -0.195 OA 
HETATM   36  O   UNL     5     -10.251  10.236  66.604  1.00  0.00    -0.220 OA 
HETATM   37  H   UNL     5     -11.816  11.831  66.045  1.00  0.00     0.000 HD 
ENDBRANCH  29  32
ENDBRANCH  26  29
ENDBRANCH  23  26
ENDBRANCH   7  23
TORSDOF 8
ENDMDL
MODEL      220
REMARK 921   NORMALIZED FREE ENERGY PREDICTED BY IDOCK:   -5.22 KCAL/MOL
REMARK 922        TOTAL FREE ENERGY PREDICTED BY IDOCK:   -9.91 KCAL/MOL
REMARK 923 INTER-LIGAND FREE ENERGY PREDICTED BY IDOCK:   -8.14 KCAL/MOL
REMARK 924 INTRA-LIGAND FREE ENERGY PREDICTED BY IDOCK:   -1.76 KCAL/MOL
REMARK 927      BINDING AFFINITY PREDICTED BY RF-SCORE:    0.00 PKD
ROOT
HETATM    1 MG   UNL     3      -8.388  11.709  69.908  1.00  0.00    -0.332 Mg 
HETATM    2  O   UNL     4      -9.255   7.525  74.410  1.00  0.00    -0.422 OA 
HETATM    3  C   UNL     4      -8.905   7.791  73.065  1.00  0.00    -0.192 C  
HETATM    4  H   UNL     4      -8.504   7.321  74.955  1.00  0.00     0.000 HD 
HETATM    5  O   UNL     5     -12.411  13.708  63.661  1.00  0.00    -0.760 OA 
HETATM    6  H   UNL     5     -13.043  14.390  63.855  1.00  0.00     0.000 HD 
HETATM    7  C   UNL     5     -12.485  12.634  64.598  1.00  0.00    -0.466 C  
ENDROOT
BRANCH   3   8
HETATM    8  C   UNL     4     -10.118   8.121  72.184  1.00  0.00    -0.253 C  
HETATM    9  O   UNL     4     -11.214   8.555  73.013  1.00  0.00    -0.012 OA 
HETATM   10  H   UNL     4     -11.965   8.760  72.468  1.00  0.00     0.000 HD 
BRANCH   8  11
HETATM   11  C   UNL     4      -9.963   9.190  71.063  1.00  0.00    -0.297 C  
HETATM   12  O   UNL     4      -8.627   9.659  70.915  1.00  0.00    -0.335 OA 
HETATM   13  H   UNL     4      -8.532  10.311  70.230  1.00  0.00     0.000 HD 
BRANCH  11  14
HETATM   14  C   UNL     4     -10.619   8.901  69.686  1.00  0.00    -0.226 C  
HETATM   15  H   UNL     4     -12.397   9.184  68.927  1.00  0.00     0.000 HD 
HETATM   16  O   UNL     4     -11.995   9.361  69.770  1.00  0.00     0.195 OA 
BRANCH  14  17
HETATM   17  C   UNL     4     -10.556   7.471  69.076  1.00  0.00    -0.180 C  
HETATM   18  C   UNL     4     -10.395   7.487  67.500  1.00  0.00    -0.252 C  
HETATM   19  H   UNL     4     -11.575   5.755  69.190  1.00  0.00     0.000 HD 
HETATM   20  O   UNL     4     -11.613   6.629  69.561  1.00  0.00    -0.297 OA 
HETATM   21  O   UNL     4      -9.616   8.434  67.062  1.00  0.00    -0.163 OA 
HETATM   22  O   UNL     4     -11.073   6.677  66.809  1.00  0.00    -0.354 OA 
ENDBRANCH  14  17
ENDBRANCH  11  14
ENDBRANCH   8  11
ENDBRANCH   3   8
BRANCH   7  23
HETATM   23  C   UNL     5     -11.457  11.529  64.283  1.00  0.00    -0.191 C  
HETATM   24  O   UNL     5     -11.313  11.443  62.864  1.00  0.00    -0.814 OA 
HETATM   25  H   UNL     5     -10.680  10.761  62.670  1.00  0.00     0.000 HD 
BRANCH  23  26
HETATM   26  C   UNL     5     -10.099  11.800  64.966  1.00  0.00    -0.263 C  
HETATM   27  O   UNL     5      -9.597  13.087  64.539  1.00  0.00    -0.491 OA 
HETATM   28  H   UNL     5      -8.761  13.253  64.959  1.00  0.00     0.000 HD 
BRANCH  26  29
HETATM   29  C   UNL     5     -10.026  11.680  66.513  1.00  0.00    -0.203 C  
HETATM   30  O   UNL     5     -11.162  11.022  67.074  1.00  0.00    -0.308 OA 
HETATM   31  H   UNL     5     -11.117  10.949  68.020  1.00  0.00     0.000 HD 
BRANCH  29  32
HETATM   32  C   UNL     5      -9.654  12.937  67.315  1.00  0.00    -0.220 C  
HETATM   33  C   UNL     5     -10.739  14.031  67.400  1.00  0.00    -0.283 C  
HETATM   34  O   UNL     5      -8.393  13.511  66.817  1.00  0.00    -0.412 OA 
HETATM   35  O   UNL     5     -11.946  13.646  67.442  1.00  0.00    -0.376 OA 
HETATM   36  O   UNL     5     -10.269  15.223  67.346  1.00  0.00    -0.239 OA 
HETATM   37  H   UNL     5      -8.164  14.288  67.312  1.00  0.00     0.000 HD 
ENDBRANCH  29  32
ENDBRANCH  26  29
ENDBRANCH  23  26
ENDBRANCH   7  23
TORSDOF 8
ENDMDL
MODEL      221
REMARK 921   NORMALIZED FREE ENERGY PREDICTED BY IDOCK:   -5.22 KCAL/MOL
REMARK 922        TOTAL FREE ENERGY PREDICTED BY IDOCK:   -9.91 KCAL/MOL
REMARK 923 INTER-LIGAND FREE ENERGY PREDICTED BY IDOCK:   -8.60 KCAL/MOL
REMARK 924 INTRA-LIGAND FREE ENERGY PREDICTED BY IDOCK:   -1.31 KCAL/MOL
REMARK 927      BINDING AFFINITY PREDICTED BY RF-SCORE:    0.00 PKD
ROOT
HETATM    1 MG   UNL     3      -6.085  13.896  69.433  1.00  0.00    -0.078 Mg 
HETATM    2  O   UNL     4      -7.193   8.032  71.137  1.00  0.00    -0.052 OA 
HETATM    3  C   UNL     4      -7.082   8.981  70.094  1.00  0.00    -0.052 C  
HETATM    4  H   UNL     4      -6.442   7.453  71.192  1.00  0.00     0.000 HD 
HETATM    5  O   UNL     5     -10.562  19.660  66.993  1.00  0.00    -0.447 OA 
HETATM    6  H   UNL     5     -10.894  20.176  67.718  1.00  0.00     0.000 HD 
HETATM    7  C   UNL     5     -10.757  18.262  67.207  1.00  0.00    -0.337 C  
ENDROOT
BRANCH   3   8
HETATM    8  C   UNL     4      -8.296   9.917  70.006  1.00  0.00    -0.168 C  
HETATM    9  O   UNL     4      -7.912  11.150  69.368  1.00  0.00    -0.356 OA 
HETATM   10  H   UNL     4      -8.663  11.729  69.313  1.00  0.00     0.000 HD 
BRANCH   8  11
HETATM   11  C   UNL     4      -9.575   9.420  69.270  1.00  0.00    -0.171 C  
HETATM   12  O   UNL     4     -10.755   9.523  70.060  1.00  0.00    -0.214 OA 
HETATM   13  H   UNL     4     -11.535   9.220  69.611  1.00  0.00     0.000 HD 
BRANCH  11  14
HETATM   14  C   UNL     4      -9.820   9.915  67.819  1.00  0.00    -0.155 C  
HETATM   15  H   UNL     4     -11.410  10.325  66.760  1.00  0.00     0.000 HD 
HETATM   16  O   UNL     4     -11.260  10.022  67.648  1.00  0.00    -0.248 OA 
BRANCH  14  17
HETATM   17  C   UNL     4      -9.182   9.158  66.619  1.00  0.00    -0.164 C  
HETATM   18  C   UNL     4      -8.834  10.119  65.407  1.00  0.00    -0.173 C  
HETATM   19  H   UNL     4      -9.539   7.524  65.525  1.00  0.00     0.000 HD 
HETATM   20  O   UNL     4      -9.929   7.986  66.258  1.00  0.00    -0.188 OA 
HETATM   21  O   UNL     4      -8.388  11.286  65.775  1.00  0.00    -0.106 OA 
HETATM   22  O   UNL     4      -9.090   9.737  64.232  1.00  0.00    -0.233 OA 
ENDBRANCH  14  17
ENDBRANCH  11  14
ENDBRANCH   8  11
ENDBRANCH   3   8
BRANCH   7  23
HETATM   23  C   UNL     5     -10.219  17.423  66.030  1.00  0.00    -0.300 C  
HETATM   24  O   UNL     5      -8.807  17.625  65.946  1.00  0.00    -0.521 OA 
HETATM   25  H   UNL     5      -8.475  17.108  65.221  1.00  0.00     0.000 HD 
BRANCH  23  26
HETATM   26  C   UNL     5     -10.558  15.926  66.194  1.00  0.00    -0.305 C  
HETATM   27  O   UNL     5     -11.508  15.764  67.272  1.00  0.00    -0.149 OA 
HETATM   28  H   UNL     5     -11.717  14.843  67.372  1.00  0.00     0.000 HD 
BRANCH  26  29
HETATM   29  C   UNL     5     -11.033  15.146  64.936  1.00  0.00    -0.419 C  
HETATM   30  O   UNL     5     -11.531  16.001  63.908  1.00  0.00    -1.188 OA 
HETATM   31  H   UNL     5     -11.822  15.524  63.139  1.00  0.00     0.000 HD 
BRANCH  29  32
HETATM   32  C   UNL     5     -11.951  13.931  65.148  1.00  0.00    -0.385 C  
HETATM   33  C   UNL     5     -11.883  12.834  64.065  1.00  0.00    -0.435 C  
HETATM   34  O   UNL     5     -13.344  14.367  65.341  1.00  0.00    -0.568 OA 
HETATM   35  O   UNL     5     -10.757  12.629  63.522  1.00  0.00    -0.417 OA 
HETATM   36  O   UNL     5     -13.021  12.306  63.800  1.00  0.00    -0.766 OA 
HETATM   37  H   UNL     5     -13.912  13.617  65.472  1.00  0.00     0.000 HD 
ENDBRANCH  29  32
ENDBRANCH  26  29
ENDBRANCH  23  26
ENDBRANCH   7  23
TORSDOF 8
ENDMDL
MODEL      222
REMARK 921   NORMALIZED FREE ENERGY PREDICTED BY IDOCK:   -5.22 KCAL/MOL
REMARK 922        TOTAL FREE ENERGY PREDICTED BY IDOCK:   -9.90 KCAL/MOL
REMARK 923 INTER-LIGAND FREE ENERGY PREDICTED BY IDOCK:   -7.81 KCAL/MOL
REMARK 924 INTRA-LIGAND FREE ENERGY PREDICTED BY IDOCK:   -2.09 KCAL/MOL
REMARK 927      BINDING AFFINITY PREDICTED BY RF-SCORE:    0.00 PKD
ROOT
HETATM    1 MG   UNL     3      -9.321  14.585  69.956  1.00  0.00    -0.384 Mg 
HETATM    2  O   UNL     4     -10.668  16.157  64.105  1.00  0.00    -0.797 OA 
HETATM    3  C   UNL     4     -11.097  15.588  65.327  1.00  0.00    -0.338 C  
HETATM    4  H   UNL     4     -11.009  17.032  63.964  1.00  0.00     0.000 HD 
HETATM    5  O   UNL     5      -7.933   7.885  73.476  1.00  0.00    -0.143 OA 
HETATM    6  H   UNL     5      -7.011   7.659  73.447  1.00  0.00     0.000 HD 
HETATM    7  C   UNL     5      -8.428   8.257  72.190  1.00  0.00    -0.179 C  
ENDROOT
BRANCH   3   8
HETATM    8  C   UNL     4     -10.546  14.172  65.554  1.00  0.00    -0.326 C  
HETATM    9  O   UNL     4     -10.121  13.611  64.298  1.00  0.00    -0.738 OA 
HETATM   10  H   UNL     4      -9.781  12.735  64.438  1.00  0.00     0.000 HD 
BRANCH   8  11
HETATM   11  C   UNL     4      -9.363  13.978  66.547  1.00  0.00    -0.255 C  
HETATM   12  O   UNL     4      -9.502  14.738  67.743  1.00  0.00    -0.200 OA 
HETATM   13  H   UNL     4      -8.780  14.619  68.349  1.00  0.00     0.000 HD 
BRANCH  11  14
HETATM   14  C   UNL     4      -8.894  12.529  66.847  1.00  0.00    -0.203 C  
HETATM   15  H   UNL     4      -8.983  10.832  65.883  1.00  0.00     0.000 HD 
HETATM   16  O   UNL     4      -9.270  11.718  65.700  1.00  0.00    -0.198 OA 
BRANCH  14  17
HETATM   17  C   UNL     4      -9.317  11.831  68.171  1.00  0.00    -0.190 C  
HETATM   18  C   UNL     4      -8.275  10.734  68.642  1.00  0.00    -0.139 C  
HETATM   19  H   UNL     4     -10.940  10.957  68.945  1.00  0.00     0.000 HD 
HETATM   20  O   UNL     4     -10.681  11.383  68.136  1.00  0.00    -0.184 OA 
HETATM   21  O   UNL     4      -7.033  11.065  68.428  1.00  0.00    -0.066 OA 
HETATM   22  O   UNL     4      -8.704   9.633  69.084  1.00  0.00    -0.135 OA 
ENDBRANCH  14  17
ENDBRANCH  11  14
ENDBRANCH   8  11
ENDBRANCH   3   8
BRANCH   7  23
HETATM   23  C   UNL     5      -9.925   8.625  72.238  1.00  0.00    -0.291 C  
HETATM   24  O   UNL     5     -10.122   9.801  71.451  1.00  0.00    -0.167 OA 
HETATM   25  H   UNL     5     -11.044  10.028  71.481  1.00  0.00     0.000 HD 
BRANCH  23  26
HETATM   26  C   UNL     5     -10.815   7.466  71.739  1.00  0.00    -0.223 C  
HETATM   27  O   UNL     5     -11.418   6.802  72.873  1.00  0.00    -0.459 OA 
HETATM   28  H   UNL     5     -11.965   6.089  72.565  1.00  0.00     0.000 HD 
BRANCH  26  29
HETATM   29  C   UNL     5     -11.893   7.786  70.666  1.00  0.00    -0.124 C  
HETATM   30  O   UNL     5     -11.449   8.737  69.699  1.00  0.00    -0.437 OA 
HETATM   31  H   UNL     5     -12.108   8.932  69.043  1.00  0.00     0.000 HD 
BRANCH  29  32
HETATM   32  C   UNL     5     -13.317   8.104  71.151  1.00  0.00    -0.007 C  
HETATM   33  C   UNL     5     -13.516   9.487  71.804  1.00  0.00    -0.402 C  
HETATM   34  O   UNL     5     -13.803   7.044  72.049  1.00  0.00    -0.543 OA 
HETATM   35  O   UNL     5     -12.826  10.447  71.347  1.00  0.00    -0.378 OA 
HETATM   36  O   UNL     5     -14.327   9.471  72.798  1.00  0.00    -0.300 OA 
HETATM   37  H   UNL     5     -14.682   7.240  72.349  1.00  0.00     0.000 HD 
ENDBRANCH  29  32
ENDBRANCH  26  29
ENDBRANCH  23  26
ENDBRANCH   7  23
TORSDOF 8
ENDMDL
MODEL      223
REMARK 921   NORMALIZED FREE ENERGY PREDICTED BY IDOCK:   -5.21 KCAL/MOL
REMARK 922        TOTAL FREE ENERGY PREDICTED BY IDOCK:   -9.90 KCAL/MOL
REMARK 923 INTER-LIGAND FREE ENERGY PREDICTED BY IDOCK:   -8.60 KCAL/MOL
REMARK 924 INTRA-LIGAND FREE ENERGY PREDICTED BY IDOCK:   -1.30 KCAL/MOL
REMARK 927      BINDING AFFINITY PREDICTED BY RF-SCORE:    0.00 PKD
ROOT
HETATM    1 MG   UNL     3      -9.522  15.782  70.334  1.00  0.00    -0.243 Mg 
HETATM    2  O   UNL     4      -9.714  21.042  67.045  1.00  0.00    -0.671 OA 
HETATM    3  C   UNL     4     -10.389  19.891  67.514  1.00  0.00    -0.417 C  
HETATM    4  H   UNL     4      -9.958  21.831  67.514  1.00  0.00     0.000 HD 
HETATM    5  O   UNL     5      -9.272   8.329  68.433  1.00  0.00    -0.136 OA 
HETATM    6  H   UNL     5      -8.378   8.025  68.328  1.00  0.00     0.000 HD 
HETATM    7  C   UNL     5      -9.507   9.539  67.713  1.00  0.00    -0.131 C  
ENDROOT
BRANCH   3   8
HETATM    8  C   UNL     4      -9.994  18.615  66.756  1.00  0.00    -0.352 C  
HETATM    9  O   UNL     4     -10.671  18.576  65.486  1.00  0.00    -0.586 OA 
HETATM   10  H   UNL     4     -10.427  17.786  65.018  1.00  0.00     0.000 HD 
BRANCH   8  11
HETATM   11  C   UNL     4      -8.488  18.354  66.461  1.00  0.00    -0.270 C  
HETATM   12  O   UNL     4      -7.966  19.183  65.427  1.00  0.00    -0.263 OA 
HETATM   13  H   UNL     4      -7.047  19.024  65.247  1.00  0.00     0.000 HD 
BRANCH  11  14
HETATM   14  C   UNL     4      -7.513  18.270  67.666  1.00  0.00    -0.216 C  
HETATM   15  H   UNL     4      -7.358  17.103  69.225  1.00  0.00     0.000 HD 
HETATM   16  O   UNL     4      -7.954  17.155  68.488  1.00  0.00    -0.238 OA 
BRANCH  14  17
HETATM   17  C   UNL     4      -7.249  19.526  68.545  1.00  0.00    -0.326 C  
HETATM   18  C   UNL     4      -5.844  20.196  68.246  1.00  0.00    -0.244 C  
HETATM   19  H   UNL     4      -7.348  20.045  70.473  1.00  0.00     0.000 HD 
HETATM   20  O   UNL     4      -7.508  19.278  69.936  1.00  0.00     0.108 OA 
HETATM   21  O   UNL     4      -5.515  20.181  66.986  1.00  0.00    -0.164 OA 
HETATM   22  O   UNL     4      -5.138  20.593  69.213  1.00  0.00    -0.233 OA 
ENDBRANCH  14  17
ENDBRANCH  11  14
ENDBRANCH   8  11
ENDBRANCH   3   8
BRANCH   7  23
HETATM   23  C   UNL     5     -10.957  10.034  67.885  1.00  0.00    -0.252 C  
HETATM   24  O   UNL     5     -11.322   9.885  69.258  1.00  0.00    -0.396 OA 
HETATM   25  H   UNL     5     -12.215  10.189  69.364  1.00  0.00     0.000 HD 
BRANCH  23  26
HETATM   26  C   UNL     5     -11.120  11.498  67.421  1.00  0.00    -0.282 C  
HETATM   27  O   UNL     5     -10.242  12.346  68.195  1.00  0.00    -0.212 OA 
HETATM   28  H   UNL     5     -10.342  13.247  67.910  1.00  0.00     0.000 HD 
BRANCH  26  29
HETATM   29  C   UNL     5     -10.964  11.802  65.905  1.00  0.00    -0.304 C  
HETATM   30  O   UNL     5      -9.772  12.529  65.604  1.00  0.00    -0.350 OA 
HETATM   31  H   UNL     5      -9.676  12.715  64.677  1.00  0.00     0.000 HD 
BRANCH  29  32
HETATM   32  C   UNL     5     -12.176  12.383  65.160  1.00  0.00    -0.384 C  
HETATM   33  C   UNL     5     -11.951  12.740  63.676  1.00  0.00    -0.539 C  
HETATM   34  O   UNL     5     -12.718  13.544  65.884  1.00  0.00    -0.424 OA 
HETATM   35  O   UNL     5     -11.158  12.003  63.018  1.00  0.00    -0.241 OA 
HETATM   36  O   UNL     5     -12.559  13.808  63.309  1.00  0.00    -0.830 OA 
HETATM   37  H   UNL     5     -13.468  13.902  65.424  1.00  0.00     0.000 HD 
ENDBRANCH  29  32
ENDBRANCH  26  29
ENDBRANCH  23  26
ENDBRANCH   7  23
TORSDOF 8
ENDMDL
MODEL      224
REMARK 921   NORMALIZED FREE ENERGY PREDICTED BY IDOCK:   -5.21 KCAL/MOL
REMARK 922        TOTAL FREE ENERGY PREDICTED BY IDOCK:   -9.89 KCAL/MOL
REMARK 923 INTER-LIGAND FREE ENERGY PREDICTED BY IDOCK:   -7.43 KCAL/MOL
REMARK 924 INTRA-LIGAND FREE ENERGY PREDICTED BY IDOCK:   -2.46 KCAL/MOL
REMARK 927      BINDING AFFINITY PREDICTED BY RF-SCORE:    0.00 PKD
ROOT
HETATM    1 MG   UNL     3      -7.964   8.801  69.277  1.00  0.00    -0.088 Mg 
HETATM    2  O   UNL     4      -9.928   3.436  71.703  1.00  0.00    -0.168 OA 
HETATM    3  C   UNL     4     -10.053   4.416  70.691  1.00  0.00    -0.121 C  
HETATM    4  H   UNL     4      -9.494   2.646  71.403  1.00  0.00     0.000 HD 
HETATM    5  O   UNL     5     -10.851  15.931  69.107  1.00  0.00    -0.232 OA 
HETATM    6  H   UNL     5     -10.577  16.438  69.862  1.00  0.00     0.000 HD 
HETATM    7  C   UNL     5     -11.362  14.653  69.485  1.00  0.00    -0.280 C  
ENDROOT
BRANCH   3   8
HETATM    8  C   UNL     4     -10.754   5.693  71.177  1.00  0.00    -0.241 C  
HETATM    9  O   UNL     4     -11.352   5.456  72.465  1.00  0.00    -0.264 OA 
HETATM   10  H   UNL     4     -11.786   6.246  72.766  1.00  0.00     0.000 HD 
BRANCH   8  11
HETATM   11  C   UNL     4      -9.921   7.001  71.311  1.00  0.00    -0.189 C  
HETATM   12  O   UNL     4      -9.503   7.534  70.059  1.00  0.00    -0.161 OA 
HETATM   13  H   UNL     4      -8.995   8.332  70.141  1.00  0.00     0.000 HD 
BRANCH  11  14
HETATM   14  C   UNL     4     -10.459   8.115  72.250  1.00  0.00    -0.302 C  
HETATM   15  H   UNL     4     -10.769   8.256  74.173  1.00  0.00     0.000 HD 
HETATM   16  O   UNL     4     -10.440   7.574  73.599  1.00  0.00    -0.349 OA 
BRANCH  14  17
HETATM   17  C   UNL     4     -11.828   8.791  71.951  1.00  0.00    -0.367 C  
HETATM   18  C   UNL     4     -11.669  10.229  71.304  1.00  0.00    -0.291 C  
HETATM   19  H   UNL     4     -13.552   9.150  72.897  1.00  0.00     0.000 HD 
HETATM   20  O   UNL     4     -12.716   8.738  73.079  1.00  0.00    -0.249 OA 
HETATM   21  O   UNL     4     -10.682  10.317  70.459  1.00  0.00    -0.283 OA 
HETATM   22  O   UNL     4     -12.416  11.164  71.704  1.00  0.00    -0.284 OA 
ENDBRANCH  14  17
ENDBRANCH  11  14
ENDBRANCH   8  11
ENDBRANCH   3   8
BRANCH   7  23
HETATM   23  C   UNL     5     -11.807  13.830  68.260  1.00  0.00    -0.378 C  
HETATM   24  O   UNL     5     -12.163  14.738  67.216  1.00  0.00    -0.502 OA 
HETATM   25  H   UNL     5     -12.438  14.231  66.461  1.00  0.00     0.000 HD 
BRANCH  23  26
HETATM   26  C   UNL     5     -10.704  12.854  67.796  1.00  0.00    -0.224 C  
HETATM   27  O   UNL     5      -9.867  12.507  68.922  1.00  0.00    -0.419 OA 
HETATM   28  H   UNL     5      -9.188  11.906  68.637  1.00  0.00     0.000 HD 
BRANCH  26  29
HETATM   29  C   UNL     5     -11.141  11.572  67.034  1.00  0.00    -0.307 C  
HETATM   30  O   UNL     5     -11.709  10.583  67.892  1.00  0.00    -0.714 OA 
HETATM   31  H   UNL     5     -11.976   9.798  67.426  1.00  0.00     0.000 HD 
BRANCH  29  32
HETATM   32  C   UNL     5     -10.143  10.948  66.045  1.00  0.00    -0.249 C  
HETATM   33  C   UNL     5      -8.986  10.141  66.669  1.00  0.00    -0.140 C  
HETATM   34  O   UNL     5      -9.610  11.976  65.135  1.00  0.00    -0.387 OA 
HETATM   35  O   UNL     5      -9.238   9.495  67.730  1.00  0.00    -0.125 OA 
HETATM   36  O   UNL     5      -7.870  10.288  66.054  1.00  0.00    -0.121 OA 
HETATM   37  H   UNL     5      -8.994  11.591  64.524  1.00  0.00     0.000 HD 
ENDBRANCH  29  32
ENDBRANCH  26  29
ENDBRANCH  23  26
ENDBRANCH   7  23
TORSDOF 8
ENDMDL
MODEL      225
REMARK 921   NORMALIZED FREE ENERGY PREDICTED BY IDOCK:   -5.21 KCAL/MOL
REMARK 922        TOTAL FREE ENERGY PREDICTED BY IDOCK:   -9.89 KCAL/MOL
REMARK 923 INTER-LIGAND FREE ENERGY PREDICTED BY IDOCK:   -8.03 KCAL/MOL
REMARK 924 INTRA-LIGAND FREE ENERGY PREDICTED BY IDOCK:   -1.86 KCAL/MOL
REMARK 927      BINDING AFFINITY PREDICTED BY RF-SCORE:    0.00 PKD
ROOT
HETATM    1 MG   UNL     3     -13.005  13.441  69.262  1.00  0.00    -0.175 Mg 
HETATM    2  O   UNL     4     -11.687  16.116  63.819  1.00  0.00    -1.404 OA 
HETATM    3  C   UNL     4     -12.149  14.977  64.519  1.00  0.00    -0.363 C  
HETATM    4  H   UNL     4     -12.388  16.603  63.400  1.00  0.00     0.000 HD 
HETATM    5  O   UNL     5      -9.535   8.047  73.513  1.00  0.00    -0.273 OA 
HETATM    6  H   UNL     5      -8.905   8.426  74.114  1.00  0.00     0.000 HD 
HETATM    7  C   UNL     5      -9.362   8.539  72.185  1.00  0.00    -0.283 C  
ENDROOT
BRANCH   3   8
HETATM    8  C   UNL     4     -11.016  14.191  65.196  1.00  0.00    -0.356 C  
HETATM    9  O   UNL     4      -9.755  14.832  64.928  1.00  0.00    -0.369 OA 
HETATM   10  H   UNL     4      -9.054  14.346  65.347  1.00  0.00     0.000 HD 
BRANCH   8  11
HETATM   11  C   UNL     4     -11.077  13.963  66.735  1.00  0.00    -0.303 C  
HETATM   12  O   UNL     4     -10.095  13.047  67.207  1.00  0.00    -0.231 OA 
HETATM   13  H   UNL     4     -10.133  12.909  68.146  1.00  0.00     0.000 HD 
BRANCH  11  14
HETATM   14  C   UNL     4     -11.176  15.212  67.653  1.00  0.00    -0.327 C  
HETATM   15  H   UNL     4     -10.575  17.066  67.515  1.00  0.00     0.000 HD 
HETATM   16  O   UNL     4     -10.515  16.302  66.954  1.00  0.00    -0.306 OA 
BRANCH  14  17
HETATM   17  C   UNL     4     -10.691  15.135  69.129  1.00  0.00    -0.253 C  
HETATM   18  C   UNL     4     -11.712  15.799  70.142  1.00  0.00    -0.356 C  
HETATM   19  H   UNL     4      -9.035  15.528  70.177  1.00  0.00     0.000 HD 
HETATM   20  O   UNL     4      -9.331  15.575  69.275  1.00  0.00    -0.233 OA 
HETATM   21  O   UNL     4     -12.962  15.591  69.838  1.00  0.00    -0.082 OA 
HETATM   22  O   UNL     4     -11.265  16.523  71.073  1.00  0.00    -0.256 OA 
ENDBRANCH  14  17
ENDBRANCH  11  14
ENDBRANCH   8  11
ENDBRANCH   3   8
BRANCH   7  23
HETATM   23  C   UNL     5     -10.385   7.923  71.208  1.00  0.00    -0.191 C  
HETATM   24  O   UNL     5     -11.640   8.578  71.403  1.00  0.00    -0.266 OA 
HETATM   25  H   UNL     5     -12.270   8.198  70.802  1.00  0.00     0.000 HD 
BRANCH  23  26
HETATM   26  C   UNL     5      -9.917   8.042  69.742  1.00  0.00    -0.191 C  
HETATM   27  O   UNL     5     -11.003   7.674  68.861  1.00  0.00    -0.417 OA 
HETATM   28  H   UNL     5     -10.715   7.747  67.959  1.00  0.00     0.000 HD 
BRANCH  26  29
HETATM   29  C   UNL     5      -9.286   9.387  69.285  1.00  0.00    -0.167 C  
HETATM   30  O   UNL     5     -10.093  10.518  69.611  1.00  0.00    -0.332 OA 
HETATM   31  H   UNL     5      -9.708  11.340  69.332  1.00  0.00     0.000 HD 
BRANCH  29  32
HETATM   32  C   UNL     5      -8.748   9.478  67.848  1.00  0.00    -0.119 C  
HETATM   33  C   UNL     5      -9.811   9.519  66.730  1.00  0.00    -0.216 C  
HETATM   34  O   UNL     5      -7.783   8.397  67.591  1.00  0.00    -0.097 OA 
HETATM   35  O   UNL     5     -10.897  10.118  66.987  1.00  0.00    -0.230 OA 
HETATM   36  O   UNL     5      -9.473   8.863  65.680  1.00  0.00    -0.229 OA 
HETATM   37  H   UNL     5      -7.450   8.452  66.703  1.00  0.00     0.000 HD 
ENDBRANCH  29  32
ENDBRANCH  26  29
ENDBRANCH  23  26
ENDBRANCH   7  23
TORSDOF 8
ENDMDL
MODEL      226
REMARK 921   NORMALIZED FREE ENERGY PREDICTED BY IDOCK:   -5.19 KCAL/MOL
REMARK 922        TOTAL FREE ENERGY PREDICTED BY IDOCK:   -9.85 KCAL/MOL
REMARK 923 INTER-LIGAND FREE ENERGY PREDICTED BY IDOCK:   -8.65 KCAL/MOL
REMARK 924 INTRA-LIGAND FREE ENERGY PREDICTED BY IDOCK:   -1.20 KCAL/MOL
REMARK 927      BINDING AFFINITY PREDICTED BY RF-SCORE:    0.00 PKD
ROOT
HETATM    1 MG   UNL     3      -8.023  12.215  69.719  1.00  0.00    -0.328 Mg 
HETATM    2  O   UNL     4      -8.816   8.002  74.206  1.00  0.00    -0.413 OA 
HETATM    3  C   UNL     4      -8.563   8.272  72.841  1.00  0.00    -0.208 C  
HETATM    4  H   UNL     4      -8.039   7.729  74.680  1.00  0.00     0.000 HD 
HETATM    5  O   UNL     5     -12.405  14.657  63.884  1.00  0.00    -0.962 OA 
HETATM    6  H   UNL     5     -12.965  15.379  64.145  1.00  0.00     0.000 HD 
HETATM    7  C   UNL     5     -12.480  13.570  64.806  1.00  0.00    -0.355 C  
ENDROOT
BRANCH   3   8
HETATM    8  C   UNL     4      -9.820   8.713  72.076  1.00  0.00    -0.325 C  
HETATM    9  O   UNL     4      -9.481   8.981  70.702  1.00  0.00    -0.196 OA 
HETATM   10  H   UNL     4     -10.258   9.255  70.229  1.00  0.00     0.000 HD 
BRANCH   8  11
HETATM   11  C   UNL     4     -11.054   7.764  72.049  1.00  0.00    -0.269 C  
HETATM   12  O   UNL     4     -11.533   7.427  73.346  1.00  0.00    -0.593 OA 
HETATM   13  H   UNL     4     -12.286   6.848  73.329  1.00  0.00     0.000 HD 
BRANCH  11  14
HETATM   14  C   UNL     4     -12.221   8.115  71.087  1.00  0.00    -0.239 C  
HETATM   15  H   UNL     4     -12.357   8.487  69.174  1.00  0.00     0.000 HD 
HETATM   16  O   UNL     4     -11.643   8.272  69.762  1.00  0.00     0.146 OA 
BRANCH  14  17
HETATM   17  C   UNL     4     -13.171   9.303  71.414  1.00  0.00    -0.325 C  
HETATM   18  C   UNL     4     -12.581  10.700  70.953  1.00  0.00    -0.407 C  
HETATM   19  H   UNL     4     -14.214   9.994  72.972  1.00  0.00     0.000 HD 
HETATM   20  O   UNL     4     -13.634   9.268  72.773  1.00  0.00    -0.403 OA 
HETATM   21  O   UNL     4     -11.939  10.649  69.820  1.00  0.00    -0.291 OA 
HETATM   22  O   UNL     4     -12.690  11.693  71.723  1.00  0.00    -0.316 OA 
ENDBRANCH  14  17
ENDBRANCH  11  14
ENDBRANCH   8  11
ENDBRANCH   3   8
BRANCH   7  23
HETATM   23  C   UNL     5     -11.571  12.398  64.382  1.00  0.00    -0.354 C  
HETATM   24  O   UNL     5     -11.174  12.607  63.026  1.00  0.00    -0.723 OA 
HETATM   25  H   UNL     5     -10.614  11.885  62.765  1.00  0.00     0.000 HD 
BRANCH  23  26
HETATM   26  C   UNL     5     -10.342  12.265  65.308  1.00  0.00    -0.281 C  
HETATM   27  O   UNL     5      -9.847  13.583  65.638  1.00  0.00    -0.412 OA 
HETATM   28  H   UNL     5      -9.090  13.501  66.208  1.00  0.00     0.000 HD 
BRANCH  26  29
HETATM   29  C   UNL     5     -10.490  11.408  66.596  1.00  0.00    -0.243 C  
HETATM   30  O   UNL     5     -10.726  12.194  67.763  1.00  0.00    -0.200 OA 
HETATM   31  H   UNL     5     -10.817  11.670  68.550  1.00  0.00     0.000 HD 
BRANCH  29  32
HETATM   32  C   UNL     5      -9.439  10.317  66.858  1.00  0.00    -0.169 C  
HETATM   33  C   UNL     5      -9.242   9.283  65.730  1.00  0.00    -0.224 C  
HETATM   34  O   UNL     5      -9.716   9.632  68.131  1.00  0.00    -0.143 OA 
HETATM   35  O   UNL     5      -9.372   9.695  64.539  1.00  0.00    -0.261 OA 
HETATM   36  O   UNL     5      -9.033   8.092  66.159  1.00  0.00    -0.161 OA 
HETATM   37  H   UNL     5      -9.067   8.958  68.293  1.00  0.00     0.000 HD 
ENDBRANCH  29  32
ENDBRANCH  26  29
ENDBRANCH  23  26
ENDBRANCH   7  23
TORSDOF 8
ENDMDL
MODEL      227
REMARK 921   NORMALIZED FREE ENERGY PREDICTED BY IDOCK:   -5.15 KCAL/MOL
REMARK 922        TOTAL FREE ENERGY PREDICTED BY IDOCK:   -9.81 KCAL/MOL
REMARK 923 INTER-LIGAND FREE ENERGY PREDICTED BY IDOCK:   -8.46 KCAL/MOL
REMARK 924 INTRA-LIGAND FREE ENERGY PREDICTED BY IDOCK:   -1.35 KCAL/MOL
REMARK 927      BINDING AFFINITY PREDICTED BY RF-SCORE:    0.00 PKD
ROOT
HETATM    1 MG   UNL     3     -12.954  10.485  68.617  1.00  0.00    -0.385 Mg 
HETATM    2  O   UNL     4     -12.238  13.164  63.065  1.00  0.00    -0.796 OA 
HETATM    3  C   UNL     4     -12.190  11.987  63.847  1.00  0.00    -0.453 C  
HETATM    4  H   UNL     4     -13.007  13.207  62.507  1.00  0.00     0.000 HD 
HETATM    5  O   UNL     5      -8.043   7.817  73.906  1.00  0.00    -0.156 OA 
HETATM    6  H   UNL     5      -7.790   8.494  74.522  1.00  0.00     0.000 HD 
HETATM    7  C   UNL     5      -7.917   8.258  72.554  1.00  0.00    -0.137 C  
ENDROOT
BRANCH   3   8
HETATM    8  C   UNL     4     -10.948  11.918  64.748  1.00  0.00    -0.312 C  
HETATM    9  O   UNL     4      -9.879  12.681  64.157  1.00  0.00    -0.594 OA 
HETATM   10  H   UNL     4      -9.110  12.638  64.715  1.00  0.00     0.000 HD 
BRANCH   8  11
HETATM   11  C   UNL     4     -11.065  12.394  66.226  1.00  0.00    -0.303 C  
HETATM   12  O   UNL     4     -10.942  11.334  67.169  1.00  0.00    -0.262 OA 
HETATM   13  H   UNL     4     -11.013  11.625  68.070  1.00  0.00     0.000 HD 
BRANCH  11  14
HETATM   14  C   UNL     4     -10.241  13.637  66.658  1.00  0.00    -0.276 C  
HETATM   15  H   UNL     4      -8.528  13.900  67.560  1.00  0.00     0.000 HD 
HETATM   16  O   UNL     4      -9.032  13.140  67.295  1.00  0.00    -0.198 OA 
BRANCH  14  17
HETATM   17  C   UNL     4     -10.901  14.745  67.528  1.00  0.00    -0.287 C  
HETATM   18  C   UNL     4     -10.645  16.201  66.957  1.00  0.00    -0.292 C  
HETATM   19  H   UNL     4     -11.004  15.265  69.455  1.00  0.00     0.000 HD 
HETATM   20  O   UNL     4     -10.601  14.588  68.924  1.00  0.00    -0.238 OA 
HETATM   21  O   UNL     4     -10.674  16.266  65.657  1.00  0.00    -0.338 OA 
HETATM   22  O   UNL     4     -10.354  17.130  67.761  1.00  0.00    -0.319 OA 
ENDBRANCH  14  17
ENDBRANCH  11  14
ENDBRANCH   8  11
ENDBRANCH   3   8
BRANCH   7  23
HETATM   23  C   UNL     5      -8.327   7.159  71.554  1.00  0.00    -0.111 C  
HETATM   24  O   UNL     5      -8.194   5.891  72.200  1.00  0.00    -0.107 OA 
HETATM   25  H   UNL     5      -8.447   5.214  71.584  1.00  0.00     0.000 HD 
BRANCH  23  26
HETATM   26  C   UNL     5      -9.766   7.369  71.033  1.00  0.00    -0.164 C  
HETATM   27  O   UNL     5     -10.140   6.252  70.193  1.00  0.00    -0.172 OA 
HETATM   28  H   UNL     5     -11.025   6.382  69.873  1.00  0.00     0.000 HD 
BRANCH  26  29
HETATM   29  C   UNL     5     -10.882   7.656  72.075  1.00  0.00    -0.238 C  
HETATM   30  O   UNL     5     -10.760   6.862  73.254  1.00  0.00    -0.284 OA 
HETATM   31  H   UNL     5     -11.442   7.037  73.891  1.00  0.00     0.000 HD 
BRANCH  29  32
HETATM   32  C   UNL     5     -12.336   7.699  71.577  1.00  0.00    -0.330 C  
HETATM   33  C   UNL     5     -13.088   9.029  71.798  1.00  0.00    -0.381 C  
HETATM   34  O   UNL     5     -13.107   6.581  72.145  1.00  0.00    -0.530 OA 
HETATM   35  O   UNL     5     -12.410  10.096  71.716  1.00  0.00    -0.388 OA 
HETATM   36  O   UNL     5     -14.321   8.872  72.112  1.00  0.00    -0.412 OA 
HETATM   37  H   UNL     5     -14.005   6.607  71.837  1.00  0.00     0.000 HD 
ENDBRANCH  29  32
ENDBRANCH  26  29
ENDBRANCH  23  26
ENDBRANCH   7  23
TORSDOF 8
ENDMDL
MODEL      228
REMARK 921   NORMALIZED FREE ENERGY PREDICTED BY IDOCK:   -5.15 KCAL/MOL
REMARK 922        TOTAL FREE ENERGY PREDICTED BY IDOCK:   -9.80 KCAL/MOL
REMARK 923 INTER-LIGAND FREE ENERGY PREDICTED BY IDOCK:   -7.56 KCAL/MOL
REMARK 924 INTRA-LIGAND FREE ENERGY PREDICTED BY IDOCK:   -2.24 KCAL/MOL
REMARK 927      BINDING AFFINITY PREDICTED BY RF-SCORE:    0.00 PKD
ROOT
HETATM    1 MG   UNL     3     -11.781  10.526  71.425  1.00  0.00    -0.289 Mg 
HETATM    2  O   UNL     4     -12.152  16.693  72.011  1.00  0.00    -0.584 OA 
HETATM    3  C   UNL     4     -12.464  15.535  71.261  1.00  0.00    -0.425 C  
HETATM    4  H   UNL     4     -12.897  17.034  72.493  1.00  0.00     0.000 HD 
HETATM    5  O   UNL     5      -7.664   5.854  66.905  1.00  0.00    -0.098 OA 
HETATM    6  H   UNL     5      -6.827   5.635  67.297  1.00  0.00     0.000 HD 
HETATM    7  C   UNL     5      -7.911   7.259  66.931  1.00  0.00    -0.111 C  
ENDROOT
BRANCH   3   8
HETATM    8  C   UNL     4     -11.260  14.986  70.481  1.00  0.00    -0.248 C  
HETATM    9  O   UNL     4     -11.322  13.547  70.447  1.00  0.00    -0.492 OA 
HETATM   10  H   UNL     4     -10.577  13.207  69.965  1.00  0.00     0.000 HD 
BRANCH   8  11
HETATM   11  C   UNL     4     -11.040  15.453  69.013  1.00  0.00    -0.268 C  
HETATM   12  O   UNL     4      -9.995  16.409  68.877  1.00  0.00    -0.233 OA 
HETATM   13  H   UNL     4      -9.861  16.694  67.981  1.00  0.00     0.000 HD 
BRANCH  11  14
HETATM   14  C   UNL     4     -10.961  14.366  67.907  1.00  0.00    -0.262 C  
HETATM   15  H   UNL     4      -9.671  12.975  67.441  1.00  0.00     0.000 HD 
HETATM   16  O   UNL     4      -9.719  13.640  68.118  1.00  0.00    -0.217 OA 
BRANCH  14  17
HETATM   17  C   UNL     4     -11.115  14.764  66.410  1.00  0.00    -0.340 C  
HETATM   18  C   UNL     4     -11.108  13.509  65.442  1.00  0.00    -0.293 C  
HETATM   19  H   UNL     4     -10.304  16.058  65.120  1.00  0.00     0.000 HD 
HETATM   20  O   UNL     4     -10.211  15.814  66.034  1.00  0.00    -0.290 OA 
HETATM   21  O   UNL     4     -11.731  12.472  65.925  1.00  0.00    -0.385 OA 
HETATM   22  O   UNL     4     -10.453  13.572  64.365  1.00  0.00    -0.430 OA 
ENDBRANCH  14  17
ENDBRANCH  11  14
ENDBRANCH   8  11
ENDBRANCH   3   8
BRANCH   7  23
HETATM   23  C   UNL     5      -9.270   7.613  66.295  1.00  0.00    -0.154 C  
HETATM   24  O   UNL     5     -10.222   6.625  66.693  1.00  0.00    -0.313 OA 
HETATM   25  H   UNL     5     -11.059   6.843  66.302  1.00  0.00     0.000 HD 
BRANCH  23  26
HETATM   26  C   UNL     5      -9.737   9.030  66.697  1.00  0.00    -0.230 C  
HETATM   27  O   UNL     5     -10.148   9.752  65.514  1.00  0.00    -0.301 OA 
HETATM   28  H   UNL     5     -10.435  10.623  65.761  1.00  0.00     0.000 HD 
BRANCH  26  29
HETATM   29  C   UNL     5     -10.819   9.152  67.805  1.00  0.00    -0.092 C  
HETATM   30  O   UNL     5     -11.621  10.325  67.672  1.00  0.00    -0.602 OA 
HETATM   31  H   UNL     5     -12.283  10.400  68.350  1.00  0.00     0.000 HD 
BRANCH  29  32
HETATM   32  C   UNL     5     -10.382   8.935  69.263  1.00  0.00    -0.213 C  
HETATM   33  C   UNL     5      -9.088   9.655  69.696  1.00  0.00    -0.210 C  
HETATM   34  O   UNL     5     -10.287   7.497  69.563  1.00  0.00    -0.205 OA 
HETATM   35  O   UNL     5      -8.857  10.788  69.178  1.00  0.00    -0.156 OA 
HETATM   36  O   UNL     5      -8.360   8.963  70.493  1.00  0.00    -0.124 OA 
HETATM   37  H   UNL     5     -10.017   7.363  70.464  1.00  0.00     0.000 HD 
ENDBRANCH  29  32
ENDBRANCH  26  29
ENDBRANCH  23  26
ENDBRANCH   7  23
TORSDOF 8
ENDMDL
MODEL      229
REMARK 921   NORMALIZED FREE ENERGY PREDICTED BY IDOCK:   -5.15 KCAL/MOL
REMARK 922        TOTAL FREE ENERGY PREDICTED BY IDOCK:   -9.80 KCAL/MOL
REMARK 923 INTER-LIGAND FREE ENERGY PREDICTED BY IDOCK:   -8.01 KCAL/MOL
REMARK 924 INTRA-LIGAND FREE ENERGY PREDICTED BY IDOCK:   -1.79 KCAL/MOL
REMARK 927      BINDING AFFINITY PREDICTED BY RF-SCORE:    0.00 PKD
ROOT
HETATM    1 MG   UNL     3     -11.548  15.403  65.321  1.00  0.00    -0.329 Mg 
HETATM    2  O   UNL     4     -12.357  10.558  69.114  1.00  0.00    -0.724 OA 
HETATM    3  C   UNL     4     -12.157  11.950  68.967  1.00  0.00    -0.186 C  
HETATM    4  H   UNL     4     -13.253  10.334  69.338  1.00  0.00     0.000 HD 
HETATM    5  O   UNL     5      -5.466  19.729  63.446  1.00  0.00    -0.239 OA 
HETATM    6  H   UNL     5      -4.992  19.366  62.707  1.00  0.00     0.000 HD 
HETATM    7  C   UNL     5      -5.723  18.743  64.446  1.00  0.00    -0.185 C  
ENDROOT
BRANCH   3   8
HETATM    8  C   UNL     4     -10.708  12.311  68.605  1.00  0.00    -0.233 C  
HETATM    9  O   UNL     4      -9.802  11.459  69.330  1.00  0.00    -0.418 OA 
HETATM   10  H   UNL     4      -8.905  11.683  69.106  1.00  0.00     0.000 HD 
BRANCH   8  11
HETATM   11  C   UNL     4     -10.272  12.252  67.112  1.00  0.00    -0.211 C  
HETATM   12  O   UNL     4      -9.885  13.518  66.588  1.00  0.00    -0.263 OA 
HETATM   13  H   UNL     4      -9.618  13.481  65.677  1.00  0.00     0.000 HD 
BRANCH  11  14
HETATM   14  C   UNL     4      -9.279  11.136  66.687  1.00  0.00    -0.175 C  
HETATM   15  H   UNL     4      -7.565  11.109  65.751  1.00  0.00     0.000 HD 
HETATM   16  O   UNL     4      -8.172  11.792  66.011  1.00  0.00     0.055 OA 
BRANCH  14  17
HETATM   17  C   UNL     4      -9.782   9.919  65.860  1.00  0.00    -0.262 C  
HETATM   18  C   UNL     4     -10.005   8.626  66.749  1.00  0.00    -0.273 C  
HETATM   19  H   UNL     4      -9.301   8.961  64.173  1.00  0.00     0.000 HD 
HETATM   20  O   UNL     4      -8.993   9.704  64.679  1.00  0.00    -0.206 OA 
HETATM   21  O   UNL     4     -10.495   8.880  67.929  1.00  0.00    -0.228 OA 
HETATM   22  O   UNL     4      -9.624   7.507  66.307  1.00  0.00    -0.157 OA 
ENDBRANCH  14  17
ENDBRANCH  11  14
ENDBRANCH   8  11
ENDBRANCH   3   8
BRANCH   7  23
HETATM   23  C   UNL     5      -6.492  19.333  65.646  1.00  0.00    -0.244 C  
HETATM   24  O   UNL     5      -7.217  20.478  65.194  1.00  0.00    -0.500 OA 
HETATM   25  H   UNL     5      -7.691  20.841  65.933  1.00  0.00     0.000 HD 
BRANCH  23  26
HETATM   26  C   UNL     5      -7.437  18.292  66.285  1.00  0.00    -0.260 C  
HETATM   27  O   UNL     5      -6.682  17.110  66.636  1.00  0.00    -0.198 OA 
HETATM   28  H   UNL     5      -7.263  16.470  67.030  1.00  0.00     0.000 HD 
BRANCH  26  29
HETATM   29  C   UNL     5      -8.313  18.747  67.486  1.00  0.00    -0.265 C  
HETATM   30  O   UNL     5      -8.465  17.732  68.478  1.00  0.00    -0.290 OA 
HETATM   31  H   UNL     5      -9.001  18.010  69.212  1.00  0.00     0.000 HD 
BRANCH  29  32
HETATM   32  C   UNL     5      -9.653  19.434  67.178  1.00  0.00    -0.327 C  
HETATM   33  C   UNL     5     -10.517  18.774  66.083  1.00  0.00    -0.446 C  
HETATM   34  O   UNL     5      -9.442  20.858  66.868  1.00  0.00    -0.670 OA 
HETATM   35  O   UNL     5     -10.474  17.511  65.997  1.00  0.00    -0.367 OA 
HETATM   36  O   UNL     5     -11.129  19.619  65.337  1.00  0.00    -0.412 OA 
HETATM   37  H   UNL     5     -10.269  21.283  66.678  1.00  0.00     0.000 HD 
ENDBRANCH  29  32
ENDBRANCH  26  29
ENDBRANCH  23  26
ENDBRANCH   7  23
TORSDOF 8
ENDMDL
MODEL      230
REMARK 921   NORMALIZED FREE ENERGY PREDICTED BY IDOCK:   -5.13 KCAL/MOL
REMARK 922        TOTAL FREE ENERGY PREDICTED BY IDOCK:   -9.77 KCAL/MOL
REMARK 923 INTER-LIGAND FREE ENERGY PREDICTED BY IDOCK:   -7.88 KCAL/MOL
REMARK 924 INTRA-LIGAND FREE ENERGY PREDICTED BY IDOCK:   -1.88 KCAL/MOL
REMARK 927      BINDING AFFINITY PREDICTED BY RF-SCORE:    0.00 PKD
ROOT
HETATM    1 MG   UNL     3     -14.288  10.080  69.599  1.00  0.00    -0.533 Mg 
HETATM    2  O   UNL     4     -11.106   6.241  73.295  1.00  0.00    -0.411 OA 
HETATM    3  C   UNL     4     -11.355   7.566  72.865  1.00  0.00    -0.304 C  
HETATM    4  H   UNL     4     -11.488   6.049  74.144  1.00  0.00     0.000 HD 
HETATM    5  O   UNL     5     -12.507  14.030  63.241  1.00  0.00    -1.139 OA 
HETATM    6  H   UNL     5     -12.662  13.518  62.456  1.00  0.00     0.000 HD 
HETATM    7  C   UNL     5     -11.755  13.300  64.209  1.00  0.00    -0.407 C  
ENDROOT
BRANCH   3   8
HETATM    8  C   UNL     4     -10.738   7.876  71.494  1.00  0.00    -0.227 C  
HETATM    9  O   UNL     4     -10.444   9.283  71.403  1.00  0.00    -0.319 OA 
HETATM   10  H   UNL     4     -10.062   9.475  70.554  1.00  0.00     0.000 HD 
BRANCH   8  11
HETATM   11  C   UNL     4      -9.442   7.126  71.067  1.00  0.00    -0.159 C  
HETATM   12  O   UNL     4      -8.642   6.714  72.170  1.00  0.00    -0.119 OA 
HETATM   13  H   UNL     4      -7.851   6.256  71.909  1.00  0.00     0.000 HD 
BRANCH  11  14
HETATM   14  C   UNL     4      -9.568   6.000  70.006  1.00  0.00    -0.163 C  
HETATM   15  H   UNL     4     -10.949   4.696  69.549  1.00  0.00     0.000 HD 
HETATM   16  O   UNL     4     -10.872   5.385  70.198  1.00  0.00    -0.281 OA 
BRANCH  14  17
HETATM   17  C   UNL     4      -8.463   4.912  69.889  1.00  0.00    -0.079 C  
HETATM   18  C   UNL     4      -7.474   5.175  68.679  1.00  0.00    -0.074 C  
HETATM   19  H   UNL     4      -8.329   2.918  69.869  1.00  0.00     0.000 HD 
HETATM   20  O   UNL     4      -9.004   3.582  69.941  1.00  0.00    -0.084 OA 
HETATM   21  O   UNL     4      -7.195   6.434  68.495  1.00  0.00    -0.080 OA 
HETATM   22  O   UNL     4      -7.119   4.202  67.957  1.00  0.00    -0.057 OA 
ENDBRANCH  14  17
ENDBRANCH  11  14
ENDBRANCH   8  11
ENDBRANCH   3   8
BRANCH   7  23
HETATM   23  C   UNL     5     -11.504  14.131  65.484  1.00  0.00    -0.324 C  
HETATM   24  O   UNL     5     -12.727  14.202  66.220  1.00  0.00    -0.514 OA 
HETATM   25  H   UNL     5     -12.573  14.714  67.005  1.00  0.00     0.000 HD 
BRANCH  23  26
HETATM   26  C   UNL     5     -10.371  13.531  66.344  1.00  0.00    -0.289 C  
HETATM   27  O   UNL     5      -9.124  14.185  66.019  1.00  0.00    -0.499 OA 
HETATM   28  H   UNL     5      -8.427  13.816  66.548  1.00  0.00     0.000 HD 
BRANCH  26  29
HETATM   29  C   UNL     5     -10.572  13.489  67.885  1.00  0.00    -0.248 C  
HETATM   30  O   UNL     5      -9.510  14.121  68.600  1.00  0.00    -0.224 OA 
HETATM   31  H   UNL     5      -9.632  14.096  69.542  1.00  0.00     0.000 HD 
BRANCH  29  32
HETATM   32  C   UNL     5     -10.955  12.145  68.524  1.00  0.00    -0.238 C  
HETATM   33  C   UNL     5      -9.843  11.077  68.572  1.00  0.00    -0.192 C  
HETATM   34  O   UNL     5     -12.159  11.594  67.880  1.00  0.00    -0.613 OA 
HETATM   35  O   UNL     5      -8.656  11.486  68.740  1.00  0.00    -0.139 OA 
HETATM   36  O   UNL     5     -10.269   9.885  68.362  1.00  0.00    -0.164 OA 
HETATM   37  H   UNL     5     -12.397  10.764  68.275  1.00  0.00     0.000 HD 
ENDBRANCH  29  32
ENDBRANCH  26  29
ENDBRANCH  23  26
ENDBRANCH   7  23
TORSDOF 8
ENDMDL
MODEL      231
REMARK 921   NORMALIZED FREE ENERGY PREDICTED BY IDOCK:   -5.12 KCAL/MOL
REMARK 922        TOTAL FREE ENERGY PREDICTED BY IDOCK:   -9.76 KCAL/MOL
REMARK 923 INTER-LIGAND FREE ENERGY PREDICTED BY IDOCK:   -9.05 KCAL/MOL
REMARK 924 INTRA-LIGAND FREE ENERGY PREDICTED BY IDOCK:   -0.71 KCAL/MOL
REMARK 927      BINDING AFFINITY PREDICTED BY RF-SCORE:    0.00 PKD
ROOT
HETATM    1 MG   UNL     3      -6.698  11.651  65.868  1.00  0.00    -0.294 Mg 
HETATM    2  O   UNL     4      -8.164  17.679  65.712  1.00  0.00    -0.543 OA 
HETATM    3  C   UNL     4      -7.939  16.516  66.484  1.00  0.00    -0.310 C  
HETATM    4  H   UNL     4      -7.443  18.297  65.753  1.00  0.00     0.000 HD 
HETATM    5  O   UNL     5     -10.746   5.224  67.102  1.00  0.00    -0.239 OA 
HETATM    6  H   UNL     5     -11.109   4.878  66.296  1.00  0.00     0.000 HD 
HETATM    7  C   UNL     5     -11.013   6.619  67.248  1.00  0.00    -0.385 C  
ENDROOT
BRANCH   3   8
HETATM    8  C   UNL     4      -9.104  15.518  66.417  1.00  0.00    -0.316 C  
HETATM    9  O   UNL     4      -9.159  14.754  67.636  1.00  0.00    -0.178 OA 
HETATM   10  H   UNL     4      -9.880  14.136  67.594  1.00  0.00     0.000 HD 
BRANCH   8  11
HETATM   11  C   UNL     4     -10.543  16.060  66.171  1.00  0.00    -0.297 C  
HETATM   12  O   UNL     4     -10.644  16.884  65.015  1.00  0.00    -0.700 OA 
HETATM   13  H   UNL     4     -11.522  17.215  64.865  1.00  0.00     0.000 HD 
BRANCH  11  14
HETATM   14  C   UNL     4     -11.724  15.056  66.256  1.00  0.00    -0.096 C  
HETATM   15  H   UNL     4     -12.319  13.748  67.580  1.00  0.00     0.000 HD 
HETATM   16  O   UNL     4     -11.596  14.362  67.528  1.00  0.00    -0.336 OA 
BRANCH  14  17
HETATM   17  C   UNL     4     -11.971  14.042  65.102  1.00  0.00    -0.387 C  
HETATM   18  C   UNL     4     -10.788  13.000  64.943  1.00  0.00    -0.323 C  
HETATM   19  H   UNL     4     -12.514  14.075  63.179  1.00  0.00     0.000 HD 
HETATM   20  O   UNL     4     -12.363  14.694  63.884  1.00  0.00    -0.730 OA 
HETATM   21  O   UNL     4     -10.276  12.611  66.075  1.00  0.00    -0.260 OA 
HETATM   22  O   UNL     4     -10.385  12.707  63.783  1.00  0.00    -0.415 OA 
ENDBRANCH  14  17
ENDBRANCH  11  14
ENDBRANCH   8  11
ENDBRANCH   3   8
BRANCH   7  23
HETATM   23  C   UNL     5     -10.424   7.180  68.557  1.00  0.00    -0.204 C  
HETATM   24  O   UNL     5     -11.145   8.365  68.901  1.00  0.00    -0.425 OA 
HETATM   25  H   UNL     5     -10.782   8.711  69.708  1.00  0.00     0.000 HD 
BRANCH  23  26
HETATM   26  C   UNL     5     -10.480   6.143  69.700  1.00  0.00    -0.252 C  
HETATM   27  O   UNL     5      -9.173   6.026  70.306  1.00  0.00    -0.152 OA 
HETATM   28  H   UNL     5      -9.208   5.387  71.009  1.00  0.00     0.000 HD 
BRANCH  26  29
HETATM   29  C   UNL     5     -11.567   6.326  70.796  1.00  0.00    -0.279 C  
HETATM   30  O   UNL     5     -12.647   7.158  70.374  1.00  0.00    -0.612 OA 
HETATM   31  H   UNL     5     -13.312   7.270  71.044  1.00  0.00     0.000 HD 
BRANCH  29  32
HETATM   32  C   UNL     5     -11.102   6.689  72.215  1.00  0.00    -0.258 C  
HETATM   33  C   UNL     5     -10.462   8.084  72.382  1.00  0.00    -0.301 C  
HETATM   34  O   UNL     5     -10.201   5.652  72.743  1.00  0.00    -0.176 OA 
HETATM   35  O   UNL     5     -10.919   9.019  71.659  1.00  0.00    -0.315 OA 
HETATM   36  O   UNL     5      -9.478   8.099  73.204  1.00  0.00    -0.267 OA 
HETATM   37  H   UNL     5      -9.914   5.876  73.620  1.00  0.00     0.000 HD 
ENDBRANCH  29  32
ENDBRANCH  26  29
ENDBRANCH  23  26
ENDBRANCH   7  23
TORSDOF 8
ENDMDL
MODEL      232
REMARK 921   NORMALIZED FREE ENERGY PREDICTED BY IDOCK:   -5.11 KCAL/MOL
REMARK 922        TOTAL FREE ENERGY PREDICTED BY IDOCK:   -9.75 KCAL/MOL
REMARK 923 INTER-LIGAND FREE ENERGY PREDICTED BY IDOCK:   -7.90 KCAL/MOL
REMARK 924 INTRA-LIGAND FREE ENERGY PREDICTED BY IDOCK:   -1.85 KCAL/MOL
REMARK 927      BINDING AFFINITY PREDICTED BY RF-SCORE:    0.00 PKD
ROOT
HETATM    1 MG   UNL     3      -9.260  15.891  70.327  1.00  0.00    -0.215 Mg 
HETATM    2  O   UNL     4      -9.229  21.228  67.159  1.00  0.00    -0.582 OA 
HETATM    3  C   UNL     4      -9.961  20.114  67.632  1.00  0.00    -0.420 C  
HETATM    4  H   UNL     4      -9.400  22.021  67.654  1.00  0.00     0.000 HD 
HETATM    5  O   UNL     5      -9.594   8.486  68.263  1.00  0.00    -0.141 OA 
HETATM    6  H   UNL     5      -8.728   8.125  68.114  1.00  0.00     0.000 HD 
HETATM    7  C   UNL     5      -9.776   9.725  67.579  1.00  0.00    -0.157 C  
ENDROOT
BRANCH   3   8
HETATM    8  C   UNL     4      -9.684  18.833  66.832  1.00  0.00    -0.316 C  
HETATM    9  O   UNL     4     -10.647  18.708  65.768  1.00  0.00    -0.567 OA 
HETATM   10  H   UNL     4     -10.476  17.915  65.274  1.00  0.00     0.000 HD 
BRANCH   8  11
HETATM   11  C   UNL     4      -8.282  18.643  66.182  1.00  0.00    -0.163 C  
HETATM   12  O   UNL     4      -7.893  19.733  65.354  1.00  0.00    -0.347 OA 
HETATM   13  H   UNL     4      -7.038  19.616  64.958  1.00  0.00     0.000 HD 
BRANCH  11  14
HETATM   14  C   UNL     4      -7.114  18.178  67.094  1.00  0.00    -0.194 C  
HETATM   15  H   UNL     4      -5.946  16.613  67.134  1.00  0.00     0.000 HD 
HETATM   16  O   UNL     4      -6.660  16.897  66.577  1.00  0.00    -0.220 OA 
BRANCH  14  17
HETATM   17  C   UNL     4      -7.308  18.108  68.635  1.00  0.00    -0.286 C  
HETATM   18  C   UNL     4      -6.443  19.187  69.409  1.00  0.00    -0.303 C  
HETATM   19  H   UNL     4      -7.299  16.725  70.078  1.00  0.00     0.000 HD 
HETATM   20  O   UNL     4      -7.180  16.768  69.137  1.00  0.00    -0.223 OA 
HETATM   21  O   UNL     4      -6.367  20.334  68.797  1.00  0.00    -0.296 OA 
HETATM   22  O   UNL     4      -5.842  18.846  70.465  1.00  0.00    -0.211 OA 
ENDBRANCH  14  17
ENDBRANCH  11  14
ENDBRANCH   8  11
ENDBRANCH   3   8
BRANCH   7  23
HETATM   23  C   UNL     5     -11.181  10.311  67.822  1.00  0.00    -0.190 C  
HETATM   24  O   UNL     5     -11.502  10.148  69.204  1.00  0.00    -0.408 OA 
HETATM   25  H   UNL     5     -12.367  10.509  69.354  1.00  0.00     0.000 HD 
BRANCH  23  26
HETATM   26  C   UNL     5     -11.260  11.796  67.404  1.00  0.00    -0.297 C  
HETATM   27  O   UNL     5     -11.779  11.888  66.057  1.00  0.00    -0.455 OA 
HETATM   28  H   UNL     5     -11.828  12.801  65.800  1.00  0.00     0.000 HD 
BRANCH  26  29
HETATM   29  C   UNL     5     -12.020  12.776  68.341  1.00  0.00    -0.231 C  
HETATM   30  O   UNL     5     -12.636  13.853  67.636  1.00  0.00    -0.377 OA 
HETATM   31  H   UNL     5     -13.101  14.453  68.209  1.00  0.00     0.000 HD 
BRANCH  29  32
HETATM   32  C   UNL     5     -11.294  13.274  69.601  1.00  0.00    -0.122 C  
HETATM   33  C   UNL     5     -12.111  14.192  70.534  1.00  0.00    -0.350 C  
HETATM   34  O   UNL     5     -10.022  13.920  69.240  1.00  0.00    -0.423 OA 
HETATM   35  O   UNL     5     -13.354  13.963  70.627  1.00  0.00    -0.105 OA 
HETATM   36  O   UNL     5     -11.418  15.137  71.056  1.00  0.00    -0.297 OA 
HETATM   37  H   UNL     5      -9.573  14.227  70.019  1.00  0.00     0.000 HD 
ENDBRANCH  29  32
ENDBRANCH  26  29
ENDBRANCH  23  26
ENDBRANCH   7  23
TORSDOF 8
ENDMDL
MODEL      233
REMARK 921   NORMALIZED FREE ENERGY PREDICTED BY IDOCK:   -5.07 KCAL/MOL
REMARK 922        TOTAL FREE ENERGY PREDICTED BY IDOCK:   -9.68 KCAL/MOL
REMARK 923 INTER-LIGAND FREE ENERGY PREDICTED BY IDOCK:   -7.60 KCAL/MOL
REMARK 924 INTRA-LIGAND FREE ENERGY PREDICTED BY IDOCK:   -2.08 KCAL/MOL
REMARK 927      BINDING AFFINITY PREDICTED BY RF-SCORE:    0.00 PKD
ROOT
HETATM    1 MG   UNL     3      -8.074  12.664  67.424  1.00  0.00    -0.119 Mg 
HETATM    2  O   UNL     4      -7.438   6.933  65.129  1.00  0.00    -0.083 OA 
HETATM    3  C   UNL     4      -8.220   8.107  65.232  1.00  0.00    -0.149 C  
HETATM    4  H   UNL     4      -6.998   6.854  64.290  1.00  0.00     0.000 HD 
HETATM    5  O   UNL     5     -12.389  15.699  73.026  1.00  0.00    -0.375 OA 
HETATM    6  H   UNL     5     -11.950  15.660  73.867  1.00  0.00     0.000 HD 
HETATM    7  C   UNL     5     -12.361  14.440  72.355  1.00  0.00    -0.157 C  
ENDROOT
BRANCH   3   8
HETATM    8  C   UNL     4      -8.931   8.235  66.588  1.00  0.00    -0.150 C  
HETATM    9  O   UNL     4     -10.192   7.542  66.540  1.00  0.00    -0.445 OA 
HETATM   10  H   UNL     4     -10.632   7.622  67.379  1.00  0.00     0.000 HD 
BRANCH   8  11
HETATM   11  C   UNL     4      -8.200   7.734  67.868  1.00  0.00    -0.123 C  
HETATM   12  O   UNL     4      -6.870   8.226  67.985  1.00  0.00    -0.063 OA 
HETATM   13  H   UNL     4      -6.424   7.920  68.767  1.00  0.00     0.000 HD 
BRANCH  11  14
HETATM   14  C   UNL     4      -8.958   7.821  69.220  1.00  0.00    -0.139 C  
HETATM   15  H   UNL     4     -10.293   6.713  70.118  1.00  0.00     0.000 HD 
HETATM   16  O   UNL     4      -9.830   6.659  69.291  1.00  0.00    -0.148 OA 
BRANCH  14  17
HETATM   17  C   UNL     4      -9.739   9.113  69.595  1.00  0.00    -0.176 C  
HETATM   18  C   UNL     4      -9.902   9.295  71.161  1.00  0.00    -0.272 C  
HETATM   19  H   UNL     4     -11.435  10.035  69.076  1.00  0.00     0.000 HD 
HETATM   20  O   UNL     4     -10.958   9.246  68.847  1.00  0.00    -0.146 OA 
HETATM   21  O   UNL     4      -8.856   8.925  71.843  1.00  0.00    -0.342 OA 
HETATM   22  O   UNL     4     -11.013   9.679  71.619  1.00  0.00    -0.322 OA 
ENDBRANCH  14  17
ENDBRANCH  11  14
ENDBRANCH   8  11
ENDBRANCH   3   8
BRANCH   7  23
HETATM   23  C   UNL     5     -13.075  14.503  70.989  1.00  0.00    -0.366 C  
HETATM   24  O   UNL     5     -14.118  15.476  71.074  1.00  0.00    -0.810 OA 
HETATM   25  H   UNL     5     -14.557  15.515  70.233  1.00  0.00     0.000 HD 
BRANCH  23  26
HETATM   26  C   UNL     5     -12.092  14.838  69.846  1.00  0.00    -0.332 C  
HETATM   27  O   UNL     5     -10.760  14.987  70.387  1.00  0.00    -0.455 OA 
HETATM   28  H   UNL     5     -10.156  15.193  69.684  1.00  0.00     0.000 HD 
BRANCH  26  29
HETATM   29  C   UNL     5     -12.068  13.898  68.609  1.00  0.00    -0.302 C  
HETATM   30  O   UNL     5     -11.475  12.630  68.885  1.00  0.00    -0.264 OA 
HETATM   31  H   UNL     5     -11.461  12.055  68.129  1.00  0.00     0.000 HD 
BRANCH  29  32
HETATM   32  C   UNL     5     -11.561  14.475  67.277  1.00  0.00    -0.385 C  
HETATM   33  C   UNL     5     -11.468  13.481  66.101  1.00  0.00    -0.325 C  
HETATM   34  O   UNL     5     -10.269  15.154  67.470  1.00  0.00    -0.236 OA 
HETATM   35  O   UNL     5     -12.344  12.567  66.046  1.00  0.00    -0.615 OA 
HETATM   36  O   UNL     5     -10.447  13.674  65.349  1.00  0.00    -0.299 OA 
HETATM   37  H   UNL     5      -9.955  15.511  66.648  1.00  0.00     0.000 HD 
ENDBRANCH  29  32
ENDBRANCH  26  29
ENDBRANCH  23  26
ENDBRANCH   7  23
TORSDOF 8
ENDMDL
MODEL      234
REMARK 921   NORMALIZED FREE ENERGY PREDICTED BY IDOCK:   -5.03 KCAL/MOL
REMARK 922        TOTAL FREE ENERGY PREDICTED BY IDOCK:   -9.63 KCAL/MOL
REMARK 923 INTER-LIGAND FREE ENERGY PREDICTED BY IDOCK:   -6.95 KCAL/MOL
REMARK 924 INTRA-LIGAND FREE ENERGY PREDICTED BY IDOCK:   -2.68 KCAL/MOL
REMARK 927      BINDING AFFINITY PREDICTED BY RF-SCORE:    0.00 PKD
ROOT
HETATM    1 MG   UNL     3     -11.301   8.615  67.993  1.00  0.00    -0.443 Mg 
HETATM    2  O   UNL     4     -12.104  14.769  68.084  1.00  0.00    -0.540 OA 
HETATM    3  C   UNL     4     -11.280  13.658  68.385  1.00  0.00    -0.276 C  
HETATM    4  H   UNL     4     -11.811  15.250  67.319  1.00  0.00     0.000 HD 
HETATM    5  O   UNL     5     -11.521   3.144  73.399  1.00  0.00    -0.172 OA 
HETATM    6  H   UNL     5     -12.397   2.796  73.510  1.00  0.00     0.000 HD 
HETATM    7  C   UNL     5     -11.511   4.571  73.419  1.00  0.00    -0.230 C  
ENDROOT
BRANCH   3   8
HETATM    8  C   UNL     4     -11.753  12.880  69.622  1.00  0.00    -0.299 C  
HETATM    9  O   UNL     4     -12.600  13.721  70.428  1.00  0.00    -0.314 OA 
HETATM   10  H   UNL     4     -12.892  13.240  71.193  1.00  0.00     0.000 HD 
BRANCH   8  11
HETATM   11  C   UNL     4     -12.524  11.544  69.417  1.00  0.00     0.061 C  
HETATM   12  O   UNL     4     -12.069  10.797  68.294  1.00  0.00    -0.805 OA 
HETATM   13  H   UNL     4     -12.540   9.981  68.170  1.00  0.00     0.000 HD 
BRANCH  11  14
HETATM   14  C   UNL     4     -12.740  10.631  70.655  1.00  0.00    -0.359 C  
HETATM   15  H   UNL     4     -12.806  10.929  72.584  1.00  0.00     0.000 HD 
HETATM   16  O   UNL     4     -12.674  11.488  71.827  1.00  0.00    -0.332 OA 
BRANCH  14  17
HETATM   17  C   UNL     4     -11.859   9.364  70.852  1.00  0.00    -0.294 C  
HETATM   18  C   UNL     4     -12.066   8.693  72.273  1.00  0.00    -0.373 C  
HETATM   19  H   UNL     4      -9.950   8.823  70.615  1.00  0.00     0.000 HD 
HETATM   20  O   UNL     4     -10.488   9.597  70.495  1.00  0.00    -0.264 OA 
HETATM   21  O   UNL     4     -13.300   8.721  72.691  1.00  0.00    -0.392 OA 
HETATM   22  O   UNL     4     -11.056   8.282  72.907  1.00  0.00    -0.332 OA 
ENDBRANCH  14  17
ENDBRANCH  11  14
ENDBRANCH   8  11
ENDBRANCH   3   8
BRANCH   7  23
HETATM   23  C   UNL     5     -10.087   5.136  73.239  1.00  0.00    -0.173 C  
HETATM   24  O   UNL     5      -9.269   4.633  74.297  1.00  0.00    -0.113 OA 
HETATM   25  H   UNL     5      -8.392   4.981  74.186  1.00  0.00     0.000 HD 
BRANCH  23  26
HETATM   26  C   UNL     5      -9.499   4.771  71.859  1.00  0.00    -0.143 C  
HETATM   27  O   UNL     5     -10.401   5.215  70.820  1.00  0.00    -0.240 OA 
HETATM   28  H   UNL     5     -10.039   4.991  69.971  1.00  0.00     0.000 HD 
BRANCH  26  29
HETATM   29  C   UNL     5      -8.047   5.229  71.543  1.00  0.00    -0.116 C  
HETATM   30  O   UNL     5      -7.061   4.469  72.240  1.00  0.00    -0.057 OA 
HETATM   31  H   UNL     5      -6.173   4.749  72.047  1.00  0.00     0.000 HD 
BRANCH  29  32
HETATM   32  C   UNL     5      -7.740   6.734  71.601  1.00  0.00    -0.096 C  
HETATM   33  C   UNL     5      -7.480   7.318  73.006  1.00  0.00    -0.072 C  
HETATM   34  O   UNL     5      -8.796   7.502  70.921  1.00  0.00    -0.142 OA 
HETATM   35  O   UNL     5      -6.895   6.568  73.843  1.00  0.00    -0.077 OA 
HETATM   36  O   UNL     5      -7.964   8.494  73.168  1.00  0.00    -0.354 OA 
HETATM   37  H   UNL     5      -8.606   8.431  70.956  1.00  0.00     0.000 HD 
ENDBRANCH  29  32
ENDBRANCH  26  29
ENDBRANCH  23  26
ENDBRANCH   7  23
TORSDOF 8
ENDMDL
MODEL      235
REMARK 921   NORMALIZED FREE ENERGY PREDICTED BY IDOCK:   -5.03 KCAL/MOL
REMARK 922        TOTAL FREE ENERGY PREDICTED BY IDOCK:   -9.63 KCAL/MOL
REMARK 923 INTER-LIGAND FREE ENERGY PREDICTED BY IDOCK:   -8.09 KCAL/MOL
REMARK 924 INTRA-LIGAND FREE ENERGY PREDICTED BY IDOCK:   -1.53 KCAL/MOL
REMARK 927      BINDING AFFINITY PREDICTED BY RF-SCORE:    0.00 PKD
ROOT
HETATM    1 MG   UNL     3     -11.543  10.573  71.445  1.00  0.00    -0.293 Mg 
HETATM    2  O   UNL     4     -11.470  16.422  69.371  1.00  0.00    -0.265 OA 
HETATM    3  C   UNL     4     -11.850  15.076  69.161  1.00  0.00    -0.308 C  
HETATM    4  H   UNL     4     -12.197  16.977  69.628  1.00  0.00     0.000 HD 
HETATM    5  O   UNL     5      -7.689   4.199  69.513  1.00  0.00    -0.053 OA 
HETATM    6  H   UNL     5      -6.878   4.118  70.002  1.00  0.00     0.000 HD 
HETATM    7  C   UNL     5      -7.832   5.496  68.936  1.00  0.00    -0.095 C  
ENDROOT
BRANCH   3   8
HETATM    8  C   UNL     4     -10.675  14.180  68.746  1.00  0.00    -0.256 C  
HETATM    9  O   UNL     4     -10.661  12.991  69.559  1.00  0.00    -0.413 OA 
HETATM   10  H   UNL     4      -9.933  12.437  69.302  1.00  0.00     0.000 HD 
BRANCH   8  11
HETATM   11  C   UNL     4     -10.581  13.703  67.267  1.00  0.00    -0.267 C  
HETATM   12  O   UNL     4      -9.445  12.884  67.010  1.00  0.00    -0.220 OA 
HETATM   13  H   UNL     4      -9.388  12.593  66.108  1.00  0.00     0.000 HD 
BRANCH  11  14
HETATM   14  C   UNL     4     -11.860  13.121  66.606  1.00  0.00    -0.391 C  
HETATM   15  H   UNL     4     -12.781  11.400  66.685  1.00  0.00     0.000 HD 
HETATM   16  O   UNL     4     -11.999  11.756  67.089  1.00  0.00    -0.617 OA 
BRANCH  14  17
HETATM   17  C   UNL     4     -12.034  13.175  65.062  1.00  0.00    -0.383 C  
HETATM   18  C   UNL     4     -11.983  14.654  64.494  1.00  0.00    -0.460 C  
HETATM   19  H   UNL     4     -13.266  12.434  63.672  1.00  0.00     0.000 HD 
HETATM   20  O   UNL     4     -13.159  12.402  64.616  1.00  0.00    -0.825 OA 
HETATM   21  O   UNL     4     -11.116  15.416  65.095  1.00  0.00    -0.375 OA 
HETATM   22  O   UNL     4     -12.811  14.995  63.605  1.00  0.00    -0.525 OA 
ENDBRANCH  14  17
ENDBRANCH  11  14
ENDBRANCH   8  11
ENDBRANCH   3   8
BRANCH   7  23
HETATM   23  C   UNL     5      -9.147   5.627  68.142  1.00  0.00    -0.110 C  
HETATM   24  O   UNL     5     -10.223   5.218  68.989  1.00  0.00    -0.203 OA 
HETATM   25  H   UNL     5     -11.034   5.299  68.500  1.00  0.00     0.000 HD 
BRANCH  23  26
HETATM   26  C   UNL     5      -9.362   7.067  67.626  1.00  0.00    -0.122 C  
HETATM   27  O   UNL     5      -9.541   7.040  66.192  1.00  0.00    -0.379 OA 
HETATM   28  H   UNL     5      -9.673   7.925  65.874  1.00  0.00     0.000 HD 
BRANCH  26  29
HETATM   29  C   UNL     5     -10.478   7.920  68.291  1.00  0.00    -0.164 C  
HETATM   30  O   UNL     5     -11.083   8.845  67.388  1.00  0.00    -0.422 OA 
HETATM   31  H   UNL     5     -11.766   9.366  67.795  1.00  0.00     0.000 HD 
BRANCH  29  32
HETATM   32  C   UNL     5     -10.168   8.579  69.645  1.00  0.00    -0.209 C  
HETATM   33  C   UNL     5      -8.996   9.583  69.656  1.00  0.00    -0.188 C  
HETATM   34  O   UNL     5      -9.969   7.555  70.683  1.00  0.00    -0.184 OA 
HETATM   35  O   UNL     5      -8.822  10.279  68.612  1.00  0.00    -0.124 OA 
HETATM   36  O   UNL     5      -8.289   9.530  70.724  1.00  0.00    -0.243 OA 
HETATM   37  H   UNL     5      -9.777   7.962  71.519  1.00  0.00     0.000 HD 
ENDBRANCH  29  32
ENDBRANCH  26  29
ENDBRANCH  23  26
ENDBRANCH   7  23
TORSDOF 8
ENDMDL
MODEL      236
REMARK 921   NORMALIZED FREE ENERGY PREDICTED BY IDOCK:   -5.01 KCAL/MOL
REMARK 922        TOTAL FREE ENERGY PREDICTED BY IDOCK:   -9.60 KCAL/MOL
REMARK 923 INTER-LIGAND FREE ENERGY PREDICTED BY IDOCK:   -7.83 KCAL/MOL
REMARK 924 INTRA-LIGAND FREE ENERGY PREDICTED BY IDOCK:   -1.77 KCAL/MOL
REMARK 927      BINDING AFFINITY PREDICTED BY RF-SCORE:    0.00 PKD
ROOT
HETATM    1 MG   UNL     3      -8.686   9.455  63.054  1.00  0.00    -0.148 Mg 
HETATM    2  O   UNL     4      -7.526   4.924  67.134  1.00  0.00    -0.084 OA 
HETATM    3  C   UNL     4      -8.482   5.686  66.422  1.00  0.00    -0.121 C  
HETATM    4  H   UNL     4      -7.413   4.049  66.782  1.00  0.00     0.000 HD 
HETATM    5  O   UNL     5     -11.298  16.663  63.714  1.00  0.00    -1.457 OA 
HETATM    6  H   UNL     5     -10.589  17.281  63.849  1.00  0.00     0.000 HD 
HETATM    7  C   UNL     5     -11.203  15.548  64.599  1.00  0.00    -0.371 C  
ENDROOT
BRANCH   3   8
HETATM    8  C   UNL     4      -8.664   7.101  66.992  1.00  0.00    -0.123 C  
HETATM    9  O   UNL     4      -8.232   7.129  68.365  1.00  0.00    -0.122 OA 
HETATM   10  H   UNL     4      -8.345   8.004  68.718  1.00  0.00     0.000 HD 
BRANCH   8  11
HETATM   11  C   UNL     4      -7.957   8.292  66.282  1.00  0.00    -0.100 C  
HETATM   12  O   UNL     4      -7.928   8.166  64.865  1.00  0.00    -0.129 OA 
HETATM   13  H   UNL     4      -7.497   8.893  64.432  1.00  0.00     0.000 HD 
BRANCH  11  14
HETATM   14  C   UNL     4      -8.346   9.732  66.715  1.00  0.00    -0.124 C  
HETATM   15  H   UNL     4      -9.075  11.292  65.791  1.00  0.00     0.000 HD 
HETATM   16  O   UNL     4      -8.837  10.411  65.526  1.00  0.00    -0.161 OA 
BRANCH  14  17
HETATM   17  C   UNL     4      -7.318  10.624  67.468  1.00  0.00    -0.091 C  
HETATM   18  C   UNL     4      -8.013  11.725  68.372  1.00  0.00    -0.147 C  
HETATM   19  H   UNL     4      -5.666  11.671  67.054  1.00  0.00     0.000 HD 
HETATM   20  O   UNL     4      -6.294  11.126  66.594  1.00  0.00    -0.109 OA 
HETATM   21  O   UNL     4      -9.097  11.310  68.963  1.00  0.00    -0.104 OA 
HETATM   22  O   UNL     4      -7.540  12.896  68.380  1.00  0.00    -0.122 OA 
ENDBRANCH  14  17
ENDBRANCH  11  14
ENDBRANCH   8  11
ENDBRANCH   3   8
BRANCH   7  23
HETATM   23  C   UNL     5     -12.353  14.544  64.379  1.00  0.00    -0.413 C  
HETATM   24  O   UNL     5     -12.207  13.974  63.077  1.00  0.00    -1.006 OA 
HETATM   25  H   UNL     5     -12.916  13.356  62.941  1.00  0.00     0.000 HD 
BRANCH  23  26
HETATM   26  C   UNL     5     -12.371  13.448  65.467  1.00  0.00    -0.480 C  
HETATM   27  O   UNL     5     -12.302  12.148  64.839  1.00  0.00    -0.421 OA 
HETATM   28  H   UNL     5     -12.313  11.474  65.508  1.00  0.00     0.000 HD 
BRANCH  26  29
HETATM   29  C   UNL     5     -11.328  13.547  66.616  1.00  0.00    -0.322 C  
HETATM   30  O   UNL     5     -10.892  12.270  67.080  1.00  0.00    -0.230 OA 
HETATM   31  H   UNL     5     -10.254  12.330  67.783  1.00  0.00     0.000 HD 
BRANCH  29  32
HETATM   32  C   UNL     5     -11.636  14.494  67.787  1.00  0.00    -0.365 C  
HETATM   33  C   UNL     5     -10.418  15.179  68.441  1.00  0.00    -0.233 C  
HETATM   34  O   UNL     5     -12.439  13.803  68.809  1.00  0.00    -0.381 OA 
HETATM   35  O   UNL     5      -9.450  15.482  67.683  1.00  0.00    -0.207 OA 
HETATM   36  O   UNL     5     -10.519  15.293  69.715  1.00  0.00    -0.260 OA 
HETATM   37  H   UNL     5     -12.630  14.388  69.533  1.00  0.00     0.000 HD 
ENDBRANCH  29  32
ENDBRANCH  26  29
ENDBRANCH  23  26
ENDBRANCH   7  23
TORSDOF 8
ENDMDL
MODEL      237
REMARK 921   NORMALIZED FREE ENERGY PREDICTED BY IDOCK:   -4.99 KCAL/MOL
REMARK 922        TOTAL FREE ENERGY PREDICTED BY IDOCK:   -9.57 KCAL/MOL
REMARK 923 INTER-LIGAND FREE ENERGY PREDICTED BY IDOCK:   -7.98 KCAL/MOL
REMARK 924 INTRA-LIGAND FREE ENERGY PREDICTED BY IDOCK:   -1.59 KCAL/MOL
REMARK 927      BINDING AFFINITY PREDICTED BY RF-SCORE:    0.00 PKD
ROOT
HETATM    1 MG   UNL     3      -9.496  15.806  70.299  1.00  0.00    -0.252 Mg 
HETATM    2  O   UNL     4      -9.778  21.109  67.088  1.00  0.00    -0.655 OA 
HETATM    3  C   UNL     4     -10.419  19.918  67.501  1.00  0.00    -0.395 C  
HETATM    4  H   UNL     4     -10.087  21.877  67.556  1.00  0.00     0.000 HD 
HETATM    5  O   UNL     5      -8.766   8.412  68.298  1.00  0.00    -0.141 OA 
HETATM    6  H   UNL     5      -7.854   8.154  68.236  1.00  0.00     0.000 HD 
HETATM    7  C   UNL     5      -9.024   9.621  67.585  1.00  0.00    -0.125 C  
ENDROOT
BRANCH   3   8
HETATM    8  C   UNL     4      -9.918  18.677  66.746  1.00  0.00    -0.352 C  
HETATM    9  O   UNL     4     -10.581  18.587  65.471  1.00  0.00    -0.621 OA 
HETATM   10  H   UNL     4     -10.272  17.819  65.004  1.00  0.00     0.000 HD 
BRANCH   8  11
HETATM   11  C   UNL     4      -8.394  18.536  66.463  1.00  0.00    -0.281 C  
HETATM   12  O   UNL     4      -7.947  19.341  65.378  1.00  0.00    -0.275 OA 
HETATM   13  H   UNL     4      -7.016  19.254  65.205  1.00  0.00     0.000 HD 
BRANCH  11  14
HETATM   14  C   UNL     4      -7.419  18.615  67.668  1.00  0.00    -0.229 C  
HETATM   15  H   UNL     4      -7.205  17.607  69.328  1.00  0.00     0.000 HD 
HETATM   16  O   UNL     4      -7.802  17.558  68.590  1.00  0.00    -0.264 OA 
BRANCH  14  17
HETATM   17  C   UNL     4      -7.224  19.959  68.427  1.00  0.00    -0.296 C  
HETATM   18  C   UNL     4      -5.867  20.684  68.046  1.00  0.00    -0.274 C  
HETATM   19  H   UNL     4      -7.335  20.643  70.302  1.00  0.00     0.000 HD 
HETATM   20  O   UNL     4      -7.454  19.822  69.838  1.00  0.00    -0.052 OA 
HETATM   21  O   UNL     4      -5.551  20.576  66.787  1.00  0.00    -0.170 OA 
HETATM   22  O   UNL     4      -5.177  21.209  68.963  1.00  0.00    -0.326 OA 
ENDBRANCH  14  17
ENDBRANCH  11  14
ENDBRANCH   8  11
ENDBRANCH   3   8
BRANCH   7  23
HETATM   23  C   UNL     5     -10.504  10.039  67.685  1.00  0.00    -0.246 C  
HETATM   24  O   UNL     5     -11.270   8.892  68.057  1.00  0.00    -0.441 OA 
HETATM   25  H   UNL     5     -12.182   9.150  68.119  1.00  0.00     0.000 HD 
BRANCH  23  26
HETATM   26  C   UNL     5     -10.705  11.193  68.691  1.00  0.00    -0.198 C  
HETATM   27  O   UNL     5     -10.193  10.796  69.984  1.00  0.00    -0.422 OA 
HETATM   28  H   UNL     5     -10.316  11.506  70.603  1.00  0.00     0.000 HD 
BRANCH  26  29
HETATM   29  C   UNL     5     -10.163  12.598  68.306  1.00  0.00    -0.239 C  
HETATM   30  O   UNL     5      -9.012  12.975  69.060  1.00  0.00    -0.342 OA 
HETATM   31  H   UNL     5      -8.680  13.834  68.824  1.00  0.00     0.000 HD 
BRANCH  29  32
HETATM   32  C   UNL     5     -11.170  13.754  68.204  1.00  0.00    -0.271 C  
HETATM   33  C   UNL     5     -10.567  15.162  68.013  1.00  0.00    -0.258 C  
HETATM   34  O   UNL     5     -12.081  13.746  69.361  1.00  0.00    -0.326 OA 
HETATM   35  O   UNL     5      -9.508  15.247  67.324  1.00  0.00    -0.203 OA 
HETATM   36  O   UNL     5     -11.198  16.079  68.651  1.00  0.00    -0.327 OA 
HETATM   37  H   UNL     5     -12.704  14.460  69.298  1.00  0.00     0.000 HD 
ENDBRANCH  29  32
ENDBRANCH  26  29
ENDBRANCH  23  26
ENDBRANCH   7  23
TORSDOF 8
ENDMDL
MODEL      238
REMARK 921   NORMALIZED FREE ENERGY PREDICTED BY IDOCK:   -4.99 KCAL/MOL
REMARK 922        TOTAL FREE ENERGY PREDICTED BY IDOCK:   -9.57 KCAL/MOL
REMARK 923 INTER-LIGAND FREE ENERGY PREDICTED BY IDOCK:   -8.28 KCAL/MOL
REMARK 924 INTRA-LIGAND FREE ENERGY PREDICTED BY IDOCK:   -1.29 KCAL/MOL
REMARK 927      BINDING AFFINITY PREDICTED BY RF-SCORE:    0.00 PKD
ROOT
HETATM    1 MG   UNL     3     -13.374  10.376  69.110  1.00  0.00    -0.482 Mg 
HETATM    2  O   UNL     4     -12.707  13.631  63.869  1.00  0.00    -0.675 OA 
HETATM    3  C   UNL     4     -12.564  12.397  64.545  1.00  0.00    -0.391 C  
HETATM    4  H   UNL     4     -13.449  13.645  63.276  1.00  0.00     0.000 HD 
HETATM    5  O   UNL     5      -8.443   7.753  74.404  1.00  0.00    -0.266 OA 
HETATM    6  H   UNL     5      -8.295   8.392  75.092  1.00  0.00     0.000 HD 
HETATM    7  C   UNL     5      -8.304   8.331  73.106  1.00  0.00    -0.187 C  
ENDROOT
BRANCH   3   8
HETATM    8  C   UNL     4     -11.364  12.375  65.503  1.00  0.00    -0.346 C  
HETATM    9  O   UNL     4     -11.809  12.029  66.828  1.00  0.00    -0.581 OA 
HETATM   10  H   UNL     4     -11.067  12.016  67.421  1.00  0.00     0.000 HD 
BRANCH   8  11
HETATM   11  C   UNL     4     -10.165  11.436  65.182  1.00  0.00    -0.277 C  
HETATM   12  O   UNL     4      -9.310  11.944  64.163  1.00  0.00    -0.459 OA 
HETATM   13  H   UNL     4      -8.578  11.371  63.968  1.00  0.00     0.000 HD 
BRANCH  11  14
HETATM   14  C   UNL     4      -9.349  10.862  66.372  1.00  0.00    -0.176 C  
HETATM   15  H   UNL     4      -8.317  11.649  67.833  1.00  0.00     0.000 HD 
HETATM   16  O   UNL     4      -8.816  12.000  67.105  1.00  0.00    -0.174 OA 
BRANCH  14  17
HETATM   17  C   UNL     4      -8.236   9.806  66.118  1.00  0.00    -0.120 C  
HETATM   18  C   UNL     4      -7.847   9.003  67.428  1.00  0.00    -0.100 C  
HETATM   19  H   UNL     4      -6.441   9.711  65.245  1.00  0.00     0.000 HD 
HETATM   20  O   UNL     4      -7.121  10.356  65.400  1.00  0.00    -0.139 OA 
HETATM   21  O   UNL     4      -8.863   8.732  68.197  1.00  0.00    -0.140 OA 
HETATM   22  O   UNL     4      -6.629   8.775  67.665  1.00  0.00    -0.060 OA 
ENDBRANCH  14  17
ENDBRANCH  11  14
ENDBRANCH   8  11
ENDBRANCH   3   8
BRANCH   7  23
HETATM   23  C   UNL     5      -8.545   7.295  71.990  1.00  0.00    -0.107 C  
HETATM   24  O   UNL     5      -8.072   6.026  72.447  1.00  0.00    -0.109 OA 
HETATM   25  H   UNL     5      -8.220   5.388  71.760  1.00  0.00     0.000 HD 
BRANCH  23  26
HETATM   26  C   UNL     5     -10.034   7.222  71.589  1.00  0.00    -0.180 C  
HETATM   27  O   UNL     5     -10.369   5.861  71.234  1.00  0.00    -0.205 OA 
HETATM   28  H   UNL     5     -11.286   5.816  70.988  1.00  0.00     0.000 HD 
BRANCH  26  29
HETATM   29  C   UNL     5     -11.084   7.792  72.584  1.00  0.00    -0.376 C  
HETATM   30  O   UNL     5     -11.512   6.834  73.550  1.00  0.00    -0.381 OA 
HETATM   31  H   UNL     5     -12.154   7.182  74.158  1.00  0.00     0.000 HD 
BRANCH  29  32
HETATM   32  C   UNL     5     -12.274   8.573  72.003  1.00  0.00    -0.366 C  
HETATM   33  C   UNL     5     -11.942   9.938  71.365  1.00  0.00    -0.404 C  
HETATM   34  O   UNL     5     -13.330   8.730  73.017  1.00  0.00    -0.846 OA 
HETATM   35  O   UNL     5     -10.829  10.042  70.770  1.00  0.00    -0.312 OA 
HETATM   36  O   UNL     5     -12.832  10.835  71.586  1.00  0.00    -0.421 OA 
HETATM   37  H   UNL     5     -14.066   9.212  72.659  1.00  0.00     0.000 HD 
ENDBRANCH  29  32
ENDBRANCH  26  29
ENDBRANCH  23  26
ENDBRANCH   7  23
TORSDOF 8
ENDMDL
MODEL      239
REMARK 921   NORMALIZED FREE ENERGY PREDICTED BY IDOCK:   -4.98 KCAL/MOL
REMARK 922        TOTAL FREE ENERGY PREDICTED BY IDOCK:   -9.55 KCAL/MOL
REMARK 923 INTER-LIGAND FREE ENERGY PREDICTED BY IDOCK:   -7.64 KCAL/MOL
REMARK 924 INTRA-LIGAND FREE ENERGY PREDICTED BY IDOCK:   -1.91 KCAL/MOL
REMARK 927      BINDING AFFINITY PREDICTED BY RF-SCORE:    0.00 PKD
ROOT
HETATM    1 MG   UNL     3      -9.535  12.352  63.529  1.00  0.00    -0.414 Mg 
HETATM    2  O   UNL     4      -9.390  17.973  66.156  1.00  0.00    -0.468 OA 
HETATM    3  C   UNL     4      -8.790  16.701  66.003  1.00  0.00    -0.207 C  
HETATM    4  H   UNL     4      -8.934  18.657  65.679  1.00  0.00     0.000 HD 
HETATM    5  O   UNL     5     -11.261   5.315  66.121  1.00  0.00    -0.731 OA 
HETATM    6  H   UNL     5     -12.188   5.127  66.032  1.00  0.00     0.000 HD 
HETATM    7  C   UNL     5     -11.035   6.582  66.739  1.00  0.00    -0.239 C  
ENDROOT
BRANCH   3   8
HETATM    8  C   UNL     4      -9.527  15.595  66.774  1.00  0.00    -0.242 C  
HETATM    9  O   UNL     4      -9.212  14.313  66.199  1.00  0.00    -0.479 OA 
HETATM   10  H   UNL     4      -9.668  13.629  66.676  1.00  0.00     0.000 HD 
BRANCH   8  11
HETATM   11  C   UNL     4      -9.288  15.463  68.306  1.00  0.00    -0.193 C  
HETATM   12  O   UNL     4      -9.341  16.709  68.994  1.00  0.00    -0.260 OA 
HETATM   13  H   UNL     4      -9.196  16.627  69.929  1.00  0.00     0.000 HD 
BRANCH  11  14
HETATM   14  C   UNL     4     -10.067  14.360  69.072  1.00  0.00    -0.155 C  
HETATM   15  H   UNL     4     -10.086  12.407  69.019  1.00  0.00     0.000 HD 
HETATM   16  O   UNL     4      -9.609  13.082  68.550  1.00  0.00    -0.197 OA 
BRANCH  14  17
HETATM   17  C   UNL     4     -11.621  14.401  69.132  1.00  0.00    -0.307 C  
HETATM   18  C   UNL     4     -12.175  14.361  70.617  1.00  0.00    -0.344 C  
HETATM   19  H   UNL     4     -13.172  13.471  68.280  1.00  0.00     0.000 HD 
HETATM   20  O   UNL     4     -12.223  13.446  68.244  1.00  0.00    -0.286 OA 
HETATM   21  O   UNL     4     -11.455  15.041  71.463  1.00  0.00    -0.355 OA 
HETATM   22  O   UNL     4     -13.172  13.633  70.877  1.00  0.00    -0.184 OA 
ENDBRANCH  14  17
ENDBRANCH  11  14
ENDBRANCH   8  11
ENDBRANCH   3   8
BRANCH   7  23
HETATM   23  C   UNL     5      -9.531   6.888  66.883  1.00  0.00    -0.158 C  
HETATM   24  O   UNL     5      -8.830   6.185  65.855  1.00  0.00    -0.153 OA 
HETATM   25  H   UNL     5      -7.903   6.373  65.944  1.00  0.00     0.000 HD 
BRANCH  23  26
HETATM   26  C   UNL     5      -9.247   8.404  66.813  1.00  0.00    -0.171 C  
HETATM   27  O   UNL     5      -9.530   8.884  65.479  1.00  0.00    -0.399 OA 
HETATM   28  H   UNL     5      -9.355   9.817  65.436  1.00  0.00     0.000 HD 
BRANCH  26  29
HETATM   29  C   UNL     5      -9.925   9.321  67.869  1.00  0.00    -0.187 C  
HETATM   30  O   UNL     5     -10.109  10.658  67.407  1.00  0.00    -0.182 OA 
HETATM   31  H   UNL     5     -10.524  11.219  68.053  1.00  0.00     0.000 HD 
BRANCH  29  32
HETATM   32  C   UNL     5      -9.374   9.294  69.304  1.00  0.00    -0.160 C  
HETATM   33  C   UNL     5     -10.318   8.721  70.381  1.00  0.00    -0.199 C  
HETATM   34  O   UNL     5      -8.906  10.633  69.700  1.00  0.00    -0.394 OA 
HETATM   35  O   UNL     5     -11.086   7.776  70.032  1.00  0.00    -0.248 OA 
HETATM   36  O   UNL     5     -10.249   9.340  71.502  1.00  0.00    -0.330 OA 
HETATM   37  H   UNL     5      -8.565  10.617  70.586  1.00  0.00     0.000 HD 
ENDBRANCH  29  32
ENDBRANCH  26  29
ENDBRANCH  23  26
ENDBRANCH   7  23
TORSDOF 8
ENDMDL
MODEL      240
REMARK 921   NORMALIZED FREE ENERGY PREDICTED BY IDOCK:   -4.97 KCAL/MOL
REMARK 922        TOTAL FREE ENERGY PREDICTED BY IDOCK:   -9.54 KCAL/MOL
REMARK 923 INTER-LIGAND FREE ENERGY PREDICTED BY IDOCK:   -8.22 KCAL/MOL
REMARK 924 INTRA-LIGAND FREE ENERGY PREDICTED BY IDOCK:   -1.32 KCAL/MOL
REMARK 927      BINDING AFFINITY PREDICTED BY RF-SCORE:    0.00 PKD
ROOT
HETATM    1 MG   UNL     3     -10.615  10.103  66.427  1.00  0.00    -0.213 Mg 
HETATM    2  O   UNL     4     -11.356   5.621  70.655  1.00  0.00    -0.141 OA 
HETATM    3  C   UNL     4     -11.780   6.867  70.136  1.00  0.00    -0.253 C  
HETATM    4  H   UNL     4     -11.939   4.906  70.424  1.00  0.00     0.000 HD 
HETATM    5  O   UNL     5      -7.722  17.229  66.685  1.00  0.00    -0.212 OA 
HETATM    6  H   UNL     5      -6.787  17.234  66.516  1.00  0.00     0.000 HD 
HETATM    7  C   UNL     5      -8.078  16.257  67.667  1.00  0.00    -0.146 C  
ENDROOT
BRANCH   3   8
HETATM    8  C   UNL     4     -10.839   8.022  70.509  1.00  0.00    -0.241 C  
HETATM    9  O   UNL     4     -11.285   9.234  69.873  1.00  0.00    -0.343 OA 
HETATM   10  H   UNL     4     -10.702   9.949  70.104  1.00  0.00     0.000 HD 
BRANCH   8  11
HETATM   11  C   UNL     4     -10.631   8.364  72.013  1.00  0.00    -0.317 C  
HETATM   12  O   UNL     4     -11.732   7.987  72.833  1.00  0.00    -0.557 OA 
HETATM   13  H   UNL     4     -11.605   8.196  73.751  1.00  0.00     0.000 HD 
BRANCH  11  14
HETATM   14  C   UNL     4      -9.278   7.975  72.668  1.00  0.00    -0.239 C  
HETATM   15  H   UNL     4      -7.484   8.750  72.674  1.00  0.00     0.000 HD 
HETATM   16  O   UNL     4      -8.312   8.988  72.273  1.00  0.00    -0.354 OA 
BRANCH  14  17
HETATM   17  C   UNL     4      -8.691   6.549  72.460  1.00  0.00    -0.125 C  
HETATM   18  C   UNL     4      -9.304   5.485  73.462  1.00  0.00    -0.137 C  
HETATM   19  H   UNL     4      -6.898   5.687  72.273  1.00  0.00     0.000 HD 
HETATM   20  O   UNL     4      -7.256   6.558  72.400  1.00  0.00    -0.080 OA 
HETATM   21  O   UNL     4     -10.573   5.658  73.698  1.00  0.00    -0.246 OA 
HETATM   22  O   UNL     4      -8.535   4.645  74.006  1.00  0.00    -0.103 OA 
ENDBRANCH  14  17
ENDBRANCH  11  14
ENDBRANCH   8  11
ENDBRANCH   3   8
BRANCH   7  23
HETATM   23  C   UNL     5      -9.595  16.249  67.941  1.00  0.00    -0.227 C  
HETATM   24  O   UNL     5     -10.219  17.162  67.035  1.00  0.00    -0.298 OA 
HETATM   25  H   UNL     5     -11.153  17.157  67.203  1.00  0.00     0.000 HD 
BRANCH  23  26
HETATM   26  C   UNL     5     -10.193  14.832  67.802  1.00  0.00    -0.232 C  
HETATM   27  O   UNL     5     -10.195  14.184  69.095  1.00  0.00    -0.391 OA 
HETATM   28  H   UNL     5     -10.563  13.312  69.009  1.00  0.00     0.000 HD 
BRANCH  26  29
HETATM   29  C   UNL     5     -11.587  14.693  67.129  1.00  0.00    -0.378 C  
HETATM   30  O   UNL     5     -12.588  14.203  68.020  1.00  0.00    -0.442 OA 
HETATM   31  H   UNL     5     -13.441  14.118  67.609  1.00  0.00     0.000 HD 
BRANCH  29  32
HETATM   32  C   UNL     5     -11.660  13.990  65.764  1.00  0.00    -0.339 C  
HETATM   33  C   UNL     5     -11.764  14.914  64.532  1.00  0.00    -0.382 C  
HETATM   34  O   UNL     5     -12.751  13.002  65.751  1.00  0.00    -0.476 OA 
HETATM   35  O   UNL     5     -11.153  16.022  64.587  1.00  0.00    -0.548 OA 
HETATM   36  O   UNL     5     -12.534  14.456  63.614  1.00  0.00    -0.805 OA 
HETATM   37  H   UNL     5     -12.796  12.568  64.908  1.00  0.00     0.000 HD 
ENDBRANCH  29  32
ENDBRANCH  26  29
ENDBRANCH  23  26
ENDBRANCH   7  23
TORSDOF 8
ENDMDL
MODEL      241
REMARK 921   NORMALIZED FREE ENERGY PREDICTED BY IDOCK:   -4.97 KCAL/MOL
REMARK 922        TOTAL FREE ENERGY PREDICTED BY IDOCK:   -9.54 KCAL/MOL
REMARK 923 INTER-LIGAND FREE ENERGY PREDICTED BY IDOCK:   -7.70 KCAL/MOL
REMARK 924 INTRA-LIGAND FREE ENERGY PREDICTED BY IDOCK:   -1.84 KCAL/MOL
REMARK 927      BINDING AFFINITY PREDICTED BY RF-SCORE:    0.00 PKD
ROOT
HETATM    1 MG   UNL     3     -12.271   6.660  67.280  1.00  0.00    -0.664 Mg 
HETATM    2  O   UNL     4      -7.434   3.220  69.095  1.00  0.00    -0.048 OA 
HETATM    3  C   UNL     4      -8.378   4.227  69.405  1.00  0.00    -0.065 C  
HETATM    4  H   UNL     4      -7.632   2.388  69.508  1.00  0.00     0.000 HD 
HETATM    5  O   UNL     5     -13.072  14.021  65.184  1.00  0.00    -0.776 OA 
HETATM    6  H   UNL     5     -12.935  14.136  64.252  1.00  0.00     0.000 HD 
HETATM    7  C   UNL     5     -12.024  13.259  65.783  1.00  0.00    -0.417 C  
ENDROOT
BRANCH   3   8
HETATM    8  C   UNL     4      -8.059   5.573  68.737  1.00  0.00    -0.099 C  
HETATM    9  O   UNL     4      -7.141   5.366  67.647  1.00  0.00    -0.064 OA 
HETATM   10  H   UNL     4      -6.943   6.199  67.234  1.00  0.00     0.000 HD 
BRANCH   8  11
HETATM   11  C   UNL     4      -9.231   6.426  68.171  1.00  0.00    -0.111 C  
HETATM   12  O   UNL     4     -10.348   5.646  67.759  1.00  0.00    -0.182 OA 
HETATM   13  H   UNL     4     -11.063   6.167  67.414  1.00  0.00     0.000 HD 
BRANCH  11  14
HETATM   14  C   UNL     4      -9.679   7.675  68.978  1.00  0.00    -0.160 C  
HETATM   15  H   UNL     4      -8.845   8.799  70.340  1.00  0.00     0.000 HD 
HETATM   16  O   UNL     4      -8.570   8.035  69.847  1.00  0.00    -0.132 OA 
BRANCH  14  17
HETATM   17  C   UNL     4     -11.014   7.650  69.777  1.00  0.00    -0.170 C  
HETATM   18  C   UNL     4     -11.264   8.987  70.588  1.00  0.00    -0.270 C  
HETATM   19  H   UNL     4     -11.976   6.430  71.034  1.00  0.00     0.000 HD 
HETATM   20  O   UNL     4     -11.161   6.446  70.546  1.00  0.00    -0.300 OA 
HETATM   21  O   UNL     4     -10.883  10.062  69.958  1.00  0.00    -0.258 OA 
HETATM   22  O   UNL     4     -11.708   8.912  71.767  1.00  0.00    -0.314 OA 
ENDBRANCH  14  17
ENDBRANCH  11  14
ENDBRANCH   8  11
ENDBRANCH   3   8
BRANCH   7  23
HETATM   23  C   UNL     5     -12.247  13.071  67.297  1.00  0.00    -0.120 C  
HETATM   24  O   UNL     5     -11.783  11.769  67.661  1.00  0.00    -0.487 OA 
HETATM   25  H   UNL     5     -11.921  11.654  68.593  1.00  0.00     0.000 HD 
BRANCH  23  26
HETATM   26  C   UNL     5     -11.533  14.166  68.120  1.00  0.00    -0.310 C  
HETATM   27  O   UNL     5     -11.154  15.252  67.244  1.00  0.00    -0.327 OA 
HETATM   28  H   UNL     5     -10.714  15.926  67.750  1.00  0.00     0.000 HD 
BRANCH  26  29
HETATM   29  C   UNL     5     -12.256  14.717  69.380  1.00  0.00    -0.216 C  
HETATM   30  O   UNL     5     -12.662  16.078  69.237  1.00  0.00    -0.405 OA 
HETATM   31  H   UNL     5     -13.104  16.415  70.008  1.00  0.00     0.000 HD 
BRANCH  29  32
HETATM   32  C   UNL     5     -11.604  14.468  70.750  1.00  0.00    -0.205 C  
HETATM   33  C   UNL     5     -12.372  15.009  71.973  1.00  0.00    -0.347 C  
HETATM   34  O   UNL     5     -10.219  14.968  70.759  1.00  0.00    -0.448 OA 
HETATM   35  O   UNL     5     -13.638  14.989  71.916  1.00  0.00    -0.348 OA 
HETATM   36  O   UNL     5     -11.608  15.486  72.887  1.00  0.00    -0.455 OA 
HETATM   37  H   UNL     5      -9.816  14.815  71.604  1.00  0.00     0.000 HD 
ENDBRANCH  29  32
ENDBRANCH  26  29
ENDBRANCH  23  26
ENDBRANCH   7  23
TORSDOF 8
ENDMDL
MODEL      242
REMARK 921   NORMALIZED FREE ENERGY PREDICTED BY IDOCK:   -4.97 KCAL/MOL
REMARK 922        TOTAL FREE ENERGY PREDICTED BY IDOCK:   -9.54 KCAL/MOL
REMARK 923 INTER-LIGAND FREE ENERGY PREDICTED BY IDOCK:   -7.89 KCAL/MOL
REMARK 924 INTRA-LIGAND FREE ENERGY PREDICTED BY IDOCK:   -1.65 KCAL/MOL
REMARK 927      BINDING AFFINITY PREDICTED BY RF-SCORE:    0.00 PKD
ROOT
HETATM    1 MG   UNL     3     -10.902   7.536  65.861  1.00  0.00    -0.419 Mg 
HETATM    2  O   UNL     4     -11.582  12.953  62.911  1.00  0.00    -0.747 OA 
HETATM    3  C   UNL     4     -10.756  12.094  63.673  1.00  0.00    -0.467 C  
HETATM    4  H   UNL     4     -11.347  12.973  61.990  1.00  0.00     0.000 HD 
HETATM    5  O   UNL     5     -10.761   5.504  73.281  1.00  0.00    -0.234 OA 
HETATM    6  H   UNL     5     -11.631   5.308  73.608  1.00  0.00     0.000 HD 
HETATM    7  C   UNL     5     -10.724   6.748  72.583  1.00  0.00    -0.240 C  
ENDROOT
BRANCH   3   8
HETATM    8  C   UNL     4     -11.137  12.064  65.161  1.00  0.00    -0.318 C  
HETATM    9  O   UNL     4     -10.009  11.621  65.940  1.00  0.00    -0.216 OA 
HETATM   10  H   UNL     4     -10.245  11.602  66.860  1.00  0.00     0.000 HD 
BRANCH   8  11
HETATM   11  C   UNL     4     -11.650  13.372  65.831  1.00  0.00    -0.342 C  
HETATM   12  O   UNL     4     -12.246  13.155  67.105  1.00  0.00    -0.326 OA 
HETATM   13  H   UNL     4     -12.559  13.953  67.514  1.00  0.00     0.000 HD 
BRANCH  11  14
HETATM   14  C   UNL     4     -10.701  14.601  65.851  1.00  0.00    -0.309 C  
HETATM   15  H   UNL     4      -9.392  15.343  64.605  1.00  0.00     0.000 HD 
HETATM   16  O   UNL     4      -9.973  14.591  64.593  1.00  0.00    -0.194 OA 
BRANCH  14  17
HETATM   17  C   UNL     4      -9.726  14.814  67.045  1.00  0.00    -0.237 C  
HETATM   18  C   UNL     4     -10.224  15.939  68.045  1.00  0.00    -0.238 C  
HETATM   19  H   UNL     4      -7.769  15.088  67.342  1.00  0.00     0.000 HD 
HETATM   20  O   UNL     4      -8.364  14.958  66.613  1.00  0.00    -0.188 OA 
HETATM   21  O   UNL     4     -11.513  15.946  68.226  1.00  0.00    -0.363 OA 
HETATM   22  O   UNL     4      -9.386  16.766  68.499  1.00  0.00    -0.229 OA 
ENDBRANCH  14  17
ENDBRANCH  11  14
ENDBRANCH   8  11
ENDBRANCH   3   8
BRANCH   7  23
HETATM   23  C   UNL     5      -9.311   7.064  72.054  1.00  0.00    -0.139 C  
HETATM   24  O   UNL     5      -9.157   6.431  70.782  1.00  0.00    -0.149 OA 
HETATM   25  H   UNL     5      -8.286   6.626  70.456  1.00  0.00     0.000 HD 
BRANCH  23  26
HETATM   26  C   UNL     5      -9.067   8.586  71.950  1.00  0.00    -0.244 C  
HETATM   27  O   UNL     5      -8.011   8.965  72.863  1.00  0.00    -0.379 OA 
HETATM   28  H   UNL     5      -7.861   9.901  72.799  1.00  0.00     0.000 HD 
BRANCH  26  29
HETATM   29  C   UNL     5      -8.802   9.186  70.541  1.00  0.00    -0.224 C  
HETATM   30  O   UNL     5      -7.689  10.079  70.518  1.00  0.00    -0.365 OA 
HETATM   31  H   UNL     5      -7.527  10.446  69.657  1.00  0.00     0.000 HD 
BRANCH  29  32
HETATM   32  C   UNL     5      -9.999   9.764  69.770  1.00  0.00    -0.236 C  
HETATM   33  C   UNL     5     -10.491   8.937  68.564  1.00  0.00    -0.182 C  
HETATM   34  O   UNL     5      -9.724  11.150  69.355  1.00  0.00    -0.420 OA 
HETATM   35  O   UNL     5     -10.409   7.676  68.657  1.00  0.00    -0.197 OA 
HETATM   36  O   UNL     5     -10.865   9.655  67.569  1.00  0.00    -0.286 OA 
HETATM   37  H   UNL     5     -10.463  11.507  68.879  1.00  0.00     0.000 HD 
ENDBRANCH  29  32
ENDBRANCH  26  29
ENDBRANCH  23  26
ENDBRANCH   7  23
TORSDOF 8
ENDMDL
MODEL      243
REMARK 921   NORMALIZED FREE ENERGY PREDICTED BY IDOCK:   -4.97 KCAL/MOL
REMARK 922        TOTAL FREE ENERGY PREDICTED BY IDOCK:   -9.53 KCAL/MOL
REMARK 923 INTER-LIGAND FREE ENERGY PREDICTED BY IDOCK:   -7.51 KCAL/MOL
REMARK 924 INTRA-LIGAND FREE ENERGY PREDICTED BY IDOCK:   -2.02 KCAL/MOL
REMARK 927      BINDING AFFINITY PREDICTED BY RF-SCORE:    0.00 PKD
ROOT
HETATM    1 MG   UNL     3      -7.932  14.606  69.481  1.00  0.00    -0.142 Mg 
HETATM    2  O   UNL     4      -9.579  20.277  67.572  1.00  0.00    -0.387 OA 
HETATM    3  C   UNL     4      -9.975  19.013  68.070  1.00  0.00    -0.368 C  
HETATM    4  H   UNL     4      -9.607  20.960  68.232  1.00  0.00     0.000 HD 
HETATM    5  O   UNL     5      -8.445   7.589  66.365  1.00  0.00    -0.119 OA 
HETATM    6  H   UNL     5      -7.681   7.383  65.840  1.00  0.00     0.000 HD 
HETATM    7  C   UNL     5      -8.981   8.871  66.038  1.00  0.00    -0.193 C  
ENDROOT
BRANCH   3   8
HETATM    8  C   UNL     4      -9.930  17.909  67.003  1.00  0.00    -0.324 C  
HETATM    9  O   UNL     4      -8.956  18.247  65.997  1.00  0.00    -0.500 OA 
HETATM   10  H   UNL     4      -8.929  17.564  65.337  1.00  0.00     0.000 HD 
BRANCH   8  11
HETATM   11  C   UNL     4      -9.619  16.450  67.446  1.00  0.00    -0.231 C  
HETATM   12  O   UNL     4      -8.425  16.337  68.213  1.00  0.00    -0.176 OA 
HETATM   13  H   UNL     4      -8.236  15.447  68.484  1.00  0.00     0.000 HD 
BRANCH  11  14
HETATM   14  C   UNL     4     -10.772  15.615  68.066  1.00  0.00    -0.287 C  
HETATM   15  H   UNL     4     -12.722  15.735  68.034  1.00  0.00     0.000 HD 
HETATM   16  O   UNL     4     -12.016  16.246  67.655  1.00  0.00     0.358 OA 
BRANCH  14  17
HETATM   17  C   UNL     4     -10.787  15.319  69.593  1.00  0.00    -0.286 C  
HETATM   18  C   UNL     4     -11.595  14.004  69.951  1.00  0.00    -0.254 C  
HETATM   19  H   UNL     4     -11.161  16.294  71.297  1.00  0.00     0.000 HD 
HETATM   20  O   UNL     4     -11.152  16.474  70.365  1.00  0.00    -0.333 OA 
HETATM   21  O   UNL     4     -11.441  13.043  69.086  1.00  0.00    -0.268 OA 
HETATM   22  O   UNL     4     -12.365  14.013  70.951  1.00  0.00    -0.331 OA 
ENDBRANCH  14  17
ENDBRANCH  11  14
ENDBRANCH   8  11
ENDBRANCH   3   8
BRANCH   7  23
HETATM   23  C   UNL     5     -10.221   9.207  66.891  1.00  0.00    -0.266 C  
HETATM   24  O   UNL     5     -10.015   8.686  68.205  1.00  0.00    -0.168 OA 
HETATM   25  H   UNL     5     -10.779   8.892  68.730  1.00  0.00     0.000 HD 
BRANCH  23  26
HETATM   26  C   UNL     5     -10.493  10.726  66.931  1.00  0.00    -0.252 C  
HETATM   27  O   UNL     5      -9.549  11.359  67.825  1.00  0.00    -0.166 OA 
HETATM   28  H   UNL     5      -9.716  12.294  67.850  1.00  0.00     0.000 HD 
BRANCH  26  29
HETATM   29  C   UNL     5     -10.548  11.491  65.579  1.00  0.00    -0.281 C  
HETATM   30  O   UNL     5      -9.381  12.277  65.337  1.00  0.00    -0.435 OA 
HETATM   31  H   UNL     5      -9.415  12.744  64.510  1.00  0.00     0.000 HD 
BRANCH  29  32
HETATM   32  C   UNL     5     -11.829  12.274  65.248  1.00  0.00    -0.355 C  
HETATM   33  C   UNL     5     -11.910  12.869  63.827  1.00  0.00    -0.504 C  
HETATM   34  O   UNL     5     -12.063  13.325  66.252  1.00  0.00    -0.407 OA 
HETATM   35  O   UNL     5     -11.373  12.205  62.891  1.00  0.00    -0.086 OA 
HETATM   36  O   UNL     5     -12.467  14.024  63.787  1.00  0.00    -0.753 OA 
HETATM   37  H   UNL     5     -12.854  13.809  66.048  1.00  0.00     0.000 HD 
ENDBRANCH  29  32
ENDBRANCH  26  29
ENDBRANCH  23  26
ENDBRANCH   7  23
TORSDOF 8
ENDMDL
MODEL      244
REMARK 921   NORMALIZED FREE ENERGY PREDICTED BY IDOCK:   -4.96 KCAL/MOL
REMARK 922        TOTAL FREE ENERGY PREDICTED BY IDOCK:   -9.53 KCAL/MOL
REMARK 923 INTER-LIGAND FREE ENERGY PREDICTED BY IDOCK:   -8.72 KCAL/MOL
REMARK 924 INTRA-LIGAND FREE ENERGY PREDICTED BY IDOCK:   -0.80 KCAL/MOL
REMARK 927      BINDING AFFINITY PREDICTED BY RF-SCORE:    0.00 PKD
ROOT
HETATM    1 MG   UNL     3      -7.827  13.232  69.551  1.00  0.00    -0.307 Mg 
HETATM    2  O   UNL     4      -7.214   8.181  73.104  1.00  0.00    -0.114 OA 
HETATM    3  C   UNL     4      -7.023   8.796  71.844  1.00  0.00    -0.043 C  
HETATM    4  H   UNL     4      -6.409   8.104  73.604  1.00  0.00     0.000 HD 
HETATM    5  O   UNL     5     -12.567  15.142  63.797  1.00  0.00    -0.982 OA 
HETATM    6  H   UNL     5     -13.359  15.554  64.119  1.00  0.00     0.000 HD 
HETATM    7  C   UNL     5     -12.278  13.931  64.497  1.00  0.00    -0.417 C  
ENDROOT
BRANCH   3   8
HETATM    8  C   UNL     4      -8.324   8.920  71.036  1.00  0.00    -0.191 C  
HETATM    9  O   UNL     4      -8.226  10.035  70.130  1.00  0.00    -0.276 OA 
HETATM   10  H   UNL     4      -9.030  10.112  69.630  1.00  0.00     0.000 HD 
BRANCH   8  11
HETATM   11  C   UNL     4      -8.800   7.704  70.190  1.00  0.00    -0.146 C  
HETATM   12  O   UNL     4      -8.538   6.449  70.810  1.00  0.00    -0.133 OA 
HETATM   13  H   UNL     4      -8.829   5.707  70.293  1.00  0.00     0.000 HD 
BRANCH  11  14
HETATM   14  C   UNL     4     -10.230   7.750  69.588  1.00  0.00    -0.206 C  
HETATM   15  H   UNL     4     -11.597   9.135  69.406  1.00  0.00     0.000 HD 
HETATM   16  O   UNL     4     -10.721   9.106  69.774  1.00  0.00    -0.224 OA 
BRANCH  14  17
HETATM   17  C   UNL     4     -11.300   6.715  70.037  1.00  0.00    -0.382 C  
HETATM   18  C   UNL     4     -11.824   6.978  71.510  1.00  0.00    -0.314 C  
HETATM   19  H   UNL     4     -11.540   4.730  70.057  1.00  0.00     0.000 HD 
HETATM   20  O   UNL     4     -10.886   5.363  69.782  1.00  0.00    -0.297 OA 
HETATM   21  O   UNL     4     -11.952   8.241  71.802  1.00  0.00    -0.283 OA 
HETATM   22  O   UNL     4     -11.982   5.996  72.286  1.00  0.00    -0.318 OA 
ENDBRANCH  14  17
ENDBRANCH  11  14
ENDBRANCH   8  11
ENDBRANCH   3   8
BRANCH   7  23
HETATM   23  C   UNL     5     -10.991  13.262  63.975  1.00  0.00    -0.287 C  
HETATM   24  O   UNL     5      -9.912  13.636  64.833  1.00  0.00    -0.583 OA 
HETATM   25  H   UNL     5      -9.119  13.224  64.511  1.00  0.00     0.000 HD 
BRANCH  23  26
HETATM   26  C   UNL     5     -11.136  11.726  63.900  1.00  0.00    -0.408 C  
HETATM   27  O   UNL     5     -12.080  11.384  62.860  1.00  0.00    -0.919 OA 
HETATM   28  H   UNL     5     -12.169  10.439  62.814  1.00  0.00     0.000 HD 
BRANCH  26  29
HETATM   29  C   UNL     5      -9.841  10.880  63.751  1.00  0.00    -0.337 C  
HETATM   30  O   UNL     5      -9.680  10.336  62.442  1.00  0.00    -0.622 OA 
HETATM   31  H   UNL     5      -8.888   9.819  62.350  1.00  0.00     0.000 HD 
BRANCH  29  32
HETATM   32  C   UNL     5      -9.539   9.831  64.834  1.00  0.00    -0.246 C  
HETATM   33  C   UNL     5      -9.579  10.334  66.292  1.00  0.00    -0.189 C  
HETATM   34  O   UNL     5      -8.254   9.166  64.562  1.00  0.00    -0.134 OA 
HETATM   35  O   UNL     5     -10.426  11.234  66.570  1.00  0.00    -0.235 OA 
HETATM   36  O   UNL     5      -8.677   9.809  67.038  1.00  0.00    -0.133 OA 
HETATM   37  H   UNL     5      -8.067   8.518  65.230  1.00  0.00     0.000 HD 
ENDBRANCH  29  32
ENDBRANCH  26  29
ENDBRANCH  23  26
ENDBRANCH   7  23
TORSDOF 8
ENDMDL
MODEL      245
REMARK 921   NORMALIZED FREE ENERGY PREDICTED BY IDOCK:   -4.96 KCAL/MOL
REMARK 922        TOTAL FREE ENERGY PREDICTED BY IDOCK:   -9.52 KCAL/MOL
REMARK 923 INTER-LIGAND FREE ENERGY PREDICTED BY IDOCK:   -7.68 KCAL/MOL
REMARK 924 INTRA-LIGAND FREE ENERGY PREDICTED BY IDOCK:   -1.85 KCAL/MOL
REMARK 927      BINDING AFFINITY PREDICTED BY RF-SCORE:    0.00 PKD
ROOT
HETATM    1 MG   UNL     3     -12.295   6.834  66.849  1.00  0.00    -0.597 Mg 
HETATM    2  O   UNL     4      -7.771   2.777  68.108  1.00  0.00    -0.055 OA 
HETATM    3  C   UNL     4      -8.385   4.020  68.390  1.00  0.00    -0.090 C  
HETATM    4  H   UNL     4      -7.960   2.114  68.763  1.00  0.00     0.000 HD 
HETATM    5  O   UNL     5     -12.499  13.606  63.201  1.00  0.00    -1.033 OA 
HETATM    6  H   UNL     5     -12.653  13.498  62.270  1.00  0.00     0.000 HD 
HETATM    7  C   UNL     5     -11.456  12.752  63.668  1.00  0.00    -0.481 C  
ENDROOT
BRANCH   3   8
HETATM    8  C   UNL     4      -8.080   5.091  67.332  1.00  0.00    -0.103 C  
HETATM    9  O   UNL     4      -8.333   4.559  66.018  1.00  0.00    -0.112 OA 
HETATM   10  H   UNL     4      -8.144   5.221  65.363  1.00  0.00     0.000 HD 
BRANCH   8  11
HETATM   11  C   UNL     4      -8.826   6.454  67.407  1.00  0.00    -0.104 C  
HETATM   12  O   UNL     4      -9.623   6.724  66.259  1.00  0.00    -0.326 OA 
HETATM   13  H   UNL     4     -10.079   7.556  66.306  1.00  0.00     0.000 HD 
BRANCH  11  14
HETATM   14  C   UNL     4      -9.585   6.797  68.717  1.00  0.00    -0.132 C  
HETATM   15  H   UNL     4     -11.420   6.552  69.344  1.00  0.00     0.000 HD 
HETATM   16  O   UNL     4     -10.955   6.342  68.542  1.00  0.00    -0.290 OA 
BRANCH  14  17
HETATM   17  C   UNL     4      -9.559   8.249  69.277  1.00  0.00    -0.164 C  
HETATM   18  C   UNL     4      -9.417   8.292  70.855  1.00  0.00    -0.162 C  
HETATM   19  H   UNL     4     -10.611   9.938  69.092  1.00  0.00     0.000 HD 
HETATM   20  O   UNL     4     -10.627   9.051  68.751  1.00  0.00    -0.217 OA 
HETATM   21  O   UNL     4      -8.624   7.376  71.334  1.00  0.00    -0.117 OA 
HETATM   22  O   UNL     4     -10.120   9.110  71.509  1.00  0.00    -0.319 OA 
ENDBRANCH  14  17
ENDBRANCH  11  14
ENDBRANCH   8  11
ENDBRANCH   3   8
BRANCH   7  23
HETATM   23  C   UNL     5     -11.207  12.928  65.180  1.00  0.00    -0.288 C  
HETATM   24  O   UNL     5     -10.622  11.724  65.681  1.00  0.00    -0.252 OA 
HETATM   25  H   UNL     5     -10.469  11.832  66.612  1.00  0.00     0.000 HD 
BRANCH  23  26
HETATM   26  C   UNL     5     -10.307  14.148  65.473  1.00  0.00    -0.351 C  
HETATM   27  O   UNL     5     -10.881  15.325  64.861  1.00  0.00    -0.423 OA 
HETATM   28  H   UNL     5     -10.327  16.076  65.041  1.00  0.00     0.000 HD 
BRANCH  26  29
HETATM   29  C   UNL     5      -9.934  14.438  66.953  1.00  0.00    -0.261 C  
HETATM   30  O   UNL     5      -9.713  13.251  67.714  1.00  0.00    -0.205 OA 
HETATM   31  H   UNL     5      -9.485  13.428  68.619  1.00  0.00     0.000 HD 
BRANCH  29  32
HETATM   32  C   UNL     5     -10.797  15.447  67.727  1.00  0.00    -0.302 C  
HETATM   33  C   UNL     5     -10.353  15.748  69.174  1.00  0.00    -0.240 C  
HETATM   34  O   UNL     5     -12.211  15.038  67.706  1.00  0.00    -0.494 OA 
HETATM   35  O   UNL     5      -9.108  15.742  69.409  1.00  0.00    -0.253 OA 
HETATM   36  O   UNL     5     -11.332  15.902  69.988  1.00  0.00    -0.305 OA 
HETATM   37  H   UNL     5     -12.745  15.661  68.184  1.00  0.00     0.000 HD 
ENDBRANCH  29  32
ENDBRANCH  26  29
ENDBRANCH  23  26
ENDBRANCH   7  23
TORSDOF 8
ENDMDL
MODEL      246
REMARK 921   NORMALIZED FREE ENERGY PREDICTED BY IDOCK:   -4.96 KCAL/MOL
REMARK 922        TOTAL FREE ENERGY PREDICTED BY IDOCK:   -9.52 KCAL/MOL
REMARK 923 INTER-LIGAND FREE ENERGY PREDICTED BY IDOCK:   -8.20 KCAL/MOL
REMARK 924 INTRA-LIGAND FREE ENERGY PREDICTED BY IDOCK:   -1.32 KCAL/MOL
REMARK 927      BINDING AFFINITY PREDICTED BY RF-SCORE:    0.00 PKD
ROOT
HETATM    1 MG   UNL     3      -7.101  13.755  66.635  1.00  0.00    -0.327 Mg 
HETATM    2  O   UNL     4     -11.766  16.364  63.480  1.00  0.00    -1.225 OA 
HETATM    3  C   UNL     4     -11.262  15.901  64.718  1.00  0.00    -0.355 C  
HETATM    4  H   UNL     4     -11.757  17.312  63.408  1.00  0.00     0.000 HD 
HETATM    5  O   UNL     5      -5.965   6.756  69.624  1.00  0.00    -0.018 OA 
HETATM    6  H   UNL     5      -5.563   6.168  68.996  1.00  0.00     0.000 HD 
HETATM    7  C   UNL     5      -7.089   7.436  69.068  1.00  0.00    -0.079 C  
ENDROOT
BRANCH   3   8
HETATM    8  C   UNL     4     -11.276  14.369  64.834  1.00  0.00    -0.389 C  
HETATM    9  O   UNL     4      -9.926  13.880  64.946  1.00  0.00    -0.597 OA 
HETATM   10  H   UNL     4      -9.935  12.932  65.017  1.00  0.00     0.000 HD 
BRANCH   8  11
HETATM   11  C   UNL     4     -12.081  13.712  65.992  1.00  0.00    -0.441 C  
HETATM   12  O   UNL     4     -13.140  12.876  65.538  1.00  0.00    -0.439 OA 
HETATM   13  H   UNL     4     -13.631  12.474  66.245  1.00  0.00     0.000 HD 
BRANCH  11  14
HETATM   14  C   UNL     4     -11.285  13.042  67.145  1.00  0.00    -0.286 C  
HETATM   15  H   UNL     4     -11.683  11.655  68.461  1.00  0.00     0.000 HD 
HETATM   16  O   UNL     4     -12.171  12.064  67.756  1.00  0.00    -0.474 OA 
BRANCH  14  17
HETATM   17  C   UNL     4     -10.603  13.919  68.234  1.00  0.00    -0.257 C  
HETATM   18  C   UNL     4     -11.633  14.845  69.004  1.00  0.00    -0.305 C  
HETATM   19  H   UNL     4      -9.027  15.137  68.397  1.00  0.00     0.000 HD 
HETATM   20  O   UNL     4      -9.444  14.602  67.732  1.00  0.00    -0.200 OA 
HETATM   21  O   UNL     4     -12.783  14.276  69.228  1.00  0.00    -0.012 OA 
HETATM   22  O   UNL     4     -11.313  16.040  69.252  1.00  0.00    -0.325 OA 
ENDBRANCH  14  17
ENDBRANCH  11  14
ENDBRANCH   8  11
ENDBRANCH   3   8
BRANCH   7  23
HETATM   23  C   UNL     5      -7.742   8.391  70.088  1.00  0.00    -0.083 C  
HETATM   24  O   UNL     5      -7.915   9.664  69.463  1.00  0.00    -0.099 OA 
HETATM   25  H   UNL     5      -8.317  10.253  70.091  1.00  0.00     0.000 HD 
BRANCH  23  26
HETATM   26  C   UNL     5      -9.087   7.839  70.609  1.00  0.00    -0.153 C  
HETATM   27  O   UNL     5      -9.538   8.646  71.721  1.00  0.00    -0.237 OA 
HETATM   28  H   UNL     5     -10.365   8.306  72.041  1.00  0.00     0.000 HD 
BRANCH  26  29
HETATM   29  C   UNL     5     -10.238   7.644  69.583  1.00  0.00    -0.204 C  
HETATM   30  O   UNL     5     -10.747   8.877  69.078  1.00  0.00    -0.328 OA 
HETATM   31  H   UNL     5     -11.451   8.758  68.451  1.00  0.00     0.000 HD 
BRANCH  29  32
HETATM   32  C   UNL     5     -11.376   6.679  69.956  1.00  0.00    -0.382 C  
HETATM   33  C   UNL     5     -12.320   7.149  71.082  1.00  0.00    -0.364 C  
HETATM   34  O   UNL     5     -10.837   5.345  70.269  1.00  0.00    -0.266 OA 
HETATM   35  O   UNL     5     -12.560   8.391  71.154  1.00  0.00    -0.260 OA 
HETATM   36  O   UNL     5     -12.696   6.202  71.861  1.00  0.00    -0.094 OA 
HETATM   37  H   UNL     5     -11.540   4.749  70.499  1.00  0.00     0.000 HD 
ENDBRANCH  29  32
ENDBRANCH  26  29
ENDBRANCH  23  26
ENDBRANCH   7  23
TORSDOF 8
ENDMDL
MODEL      247
REMARK 921   NORMALIZED FREE ENERGY PREDICTED BY IDOCK:   -4.96 KCAL/MOL
REMARK 922        TOTAL FREE ENERGY PREDICTED BY IDOCK:   -9.52 KCAL/MOL
REMARK 923 INTER-LIGAND FREE ENERGY PREDICTED BY IDOCK:   -6.97 KCAL/MOL
REMARK 924 INTRA-LIGAND FREE ENERGY PREDICTED BY IDOCK:   -2.55 KCAL/MOL
REMARK 927      BINDING AFFINITY PREDICTED BY RF-SCORE:    0.00 PKD
ROOT
HETATM    1 MG   UNL     3      -8.473  11.794  69.380  1.00  0.00    -0.317 Mg 
HETATM    2  O   UNL     4     -12.852  15.745  71.311  1.00  0.00    -0.475 OA 
HETATM    3  C   UNL     4     -12.127  14.552  71.533  1.00  0.00    -0.331 C  
HETATM    4  H   UNL     4     -12.568  16.461  71.868  1.00  0.00     0.000 HD 
HETATM    5  O   UNL     5      -8.661   4.790  66.199  1.00  0.00    -0.114 OA 
HETATM    6  H   UNL     5      -8.711   4.836  65.252  1.00  0.00     0.000 HD 
HETATM    7  C   UNL     5      -9.630   5.632  66.823  1.00  0.00    -0.146 C  
ENDROOT
BRANCH   3   8
HETATM    8  C   UNL     4     -12.586  13.396  70.632  1.00  0.00    -0.253 C  
HETATM    9  O   UNL     4     -11.806  13.386  69.422  1.00  0.00    -0.300 OA 
HETATM   10  H   UNL     4     -12.090  12.671  68.864  1.00  0.00     0.000 HD 
BRANCH   8  11
HETATM   11  C   UNL     4     -12.546  11.945  71.194  1.00  0.00    -0.288 C  
HETATM   12  O   UNL     4     -13.436  11.740  72.286  1.00  0.00    -0.611 OA 
HETATM   13  H   UNL     4     -13.412  10.854  72.629  1.00  0.00     0.000 HD 
BRANCH  11  14
HETATM   14  C   UNL     4     -12.611  10.769  70.182  1.00  0.00    -0.240 C  
HETATM   15  H   UNL     4     -13.547   9.055  70.130  1.00  0.00     0.000 HD 
HETATM   16  O   UNL     4     -13.507   9.774  70.749  1.00  0.00    -0.252 OA 
BRANCH  14  17
HETATM   17  C   UNL     4     -11.300  10.100  69.679  1.00  0.00    -0.235 C  
HETATM   18  C   UNL     4     -10.357   9.637  70.865  1.00  0.00    -0.264 C  
HETATM   19  H   UNL     4      -9.847  10.474  68.358  1.00  0.00     0.000 HD 
HETATM   20  O   UNL     4     -10.647  10.883  68.666  1.00  0.00    -0.174 OA 
HETATM   21  O   UNL     4     -11.002   9.156  71.889  1.00  0.00    -0.364 OA 
HETATM   22  O   UNL     4      -9.115   9.843  70.774  1.00  0.00    -0.046 OA 
ENDBRANCH  14  17
ENDBRANCH  11  14
ENDBRANCH   8  11
ENDBRANCH   3   8
BRANCH   7  23
HETATM   23  C   UNL     5      -9.549   5.557  68.361  1.00  0.00    -0.124 C  
HETATM   24  O   UNL     5      -8.231   5.938  68.759  1.00  0.00    -0.102 OA 
HETATM   25  H   UNL     5      -8.181   5.891  69.707  1.00  0.00     0.000 HD 
BRANCH  23  26
HETATM   26  C   UNL     5     -10.614   6.450  69.033  1.00  0.00    -0.257 C  
HETATM   27  O   UNL     5     -11.609   6.829  68.055  1.00  0.00    -0.510 OA 
HETATM   28  H   UNL     5     -12.264   7.378  68.469  1.00  0.00     0.000 HD 
BRANCH  26  29
HETATM   29  C   UNL     5     -11.301   5.918  70.322  1.00  0.00    -0.162 C  
HETATM   30  O   UNL     5     -12.447   6.682  70.696  1.00  0.00    -0.438 OA 
HETATM   31  H   UNL     5     -12.867   6.357  71.484  1.00  0.00     0.000 HD 
BRANCH  29  32
HETATM   32  C   UNL     5     -10.411   5.610  71.537  1.00  0.00    -0.239 C  
HETATM   33  C   UNL     5     -11.138   5.479  72.892  1.00  0.00    -0.299 C  
HETATM   34  O   UNL     5      -9.321   6.594  71.638  1.00  0.00    -0.150 OA 
HETATM   35  O   UNL     5     -12.301   4.978  72.877  1.00  0.00    -0.019 OA 
HETATM   36  O   UNL     5     -10.477   5.972  73.875  1.00  0.00    -0.257 OA 
HETATM   37  H   UNL     5      -8.771   6.404  72.389  1.00  0.00     0.000 HD 
ENDBRANCH  29  32
ENDBRANCH  26  29
ENDBRANCH  23  26
ENDBRANCH   7  23
TORSDOF 8
ENDMDL
MODEL      248
REMARK 921   NORMALIZED FREE ENERGY PREDICTED BY IDOCK:   -4.95 KCAL/MOL
REMARK 922        TOTAL FREE ENERGY PREDICTED BY IDOCK:   -9.51 KCAL/MOL
REMARK 923 INTER-LIGAND FREE ENERGY PREDICTED BY IDOCK:   -7.29 KCAL/MOL
REMARK 924 INTRA-LIGAND FREE ENERGY PREDICTED BY IDOCK:   -2.22 KCAL/MOL
REMARK 927      BINDING AFFINITY PREDICTED BY RF-SCORE:    0.00 PKD
ROOT
HETATM    1 MG   UNL     3      -8.376   8.933  68.607  1.00  0.00    -0.107 Mg 
HETATM    2  O   UNL     4     -12.080   6.197  72.767  1.00  0.00    -0.514 OA 
HETATM    3  C   UNL     4     -11.958   7.010  71.616  1.00  0.00    -0.329 C  
HETATM    4  H   UNL     4     -12.370   5.314  72.568  1.00  0.00     0.000 HD 
HETATM    5  O   UNL     5      -6.137  16.203  67.451  1.00  0.00    -0.148 OA 
HETATM    6  H   UNL     5      -5.352  16.410  67.943  1.00  0.00     0.000 HD 
HETATM    7  C   UNL     5      -7.125  15.578  68.269  1.00  0.00    -0.114 C  
ENDROOT
BRANCH   3   8
HETATM    8  C   UNL     4     -11.490   8.437  71.939  1.00  0.00    -0.318 C  
HETATM    9  O   UNL     4     -10.052   8.469  72.014  1.00  0.00    -0.258 OA 
HETATM   10  H   UNL     4      -9.762   9.351  72.214  1.00  0.00     0.000 HD 
BRANCH   8  11
HETATM   11  C   UNL     4     -11.908   9.597  70.989  1.00  0.00    -0.347 C  
HETATM   12  O   UNL     4     -12.179  10.815  71.674  1.00  0.00    -0.268 OA 
HETATM   13  H   UNL     4     -12.434  11.523  71.094  1.00  0.00     0.000 HD 
BRANCH  11  14
HETATM   14  C   UNL     4     -11.052   9.840  69.717  1.00  0.00    -0.237 C  
HETATM   15  H   UNL     4      -9.228  10.457  69.389  1.00  0.00     0.000 HD 
HETATM   16  O   UNL     4      -9.751  10.308  70.167  1.00  0.00    -0.114 OA 
BRANCH  14  17
HETATM   17  C   UNL     4     -11.593  10.747  68.574  1.00  0.00    -0.255 C  
HETATM   18  C   UNL     4     -10.701  10.679  67.267  1.00  0.00    -0.285 C  
HETATM   19  H   UNL     4     -12.216  12.631  68.334  1.00  0.00     0.000 HD 
HETATM   20  O   UNL     4     -11.885  12.077  69.031  1.00  0.00    -0.306 OA 
HETATM   21  O   UNL     4     -10.235   9.490  67.012  1.00  0.00    -0.224 OA 
HETATM   22  O   UNL     4     -10.442  11.748  66.648  1.00  0.00    -0.213 OA 
ENDBRANCH  14  17
ENDBRANCH  11  14
ENDBRANCH   8  11
ENDBRANCH   3   8
BRANCH   7  23
HETATM   23  C   UNL     5      -8.400  15.242  67.470  1.00  0.00    -0.175 C  
HETATM   24  O   UNL     5      -9.003  14.086  68.053  1.00  0.00    -0.167 OA 
HETATM   25  H   UNL     5      -9.788  13.879  67.561  1.00  0.00     0.000 HD 
BRANCH  23  26
HETATM   26  C   UNL     5      -9.387  16.430  67.442  1.00  0.00    -0.221 C  
HETATM   27  O   UNL     5     -10.712  15.945  67.125  1.00  0.00    -0.316 OA 
HETATM   28  H   UNL     5     -11.318  16.676  67.108  1.00  0.00     0.000 HD 
BRANCH  26  29
HETATM   29  C   UNL     5      -9.438  17.363  68.684  1.00  0.00    -0.280 C  
HETATM   30  O   UNL     5     -10.652  17.237  69.423  1.00  0.00    -0.360 OA 
HETATM   31  H   UNL     5     -10.683  17.808  70.183  1.00  0.00     0.000 HD 
BRANCH  29  32
HETATM   32  C   UNL     5      -9.049  18.837  68.492  1.00  0.00    -0.342 C  
HETATM   33  C   UNL     5      -9.859  19.619  67.437  1.00  0.00    -0.368 C  
HETATM   34  O   UNL     5      -7.608  18.957  68.215  1.00  0.00    -0.267 OA 
HETATM   35  O   UNL     5     -11.083  19.315  67.307  1.00  0.00    -0.442 OA 
HETATM   36  O   UNL     5      -9.153  20.451  66.763  1.00  0.00    -0.313 OA 
HETATM   37  H   UNL     5      -7.367  19.868  68.096  1.00  0.00     0.000 HD 
ENDBRANCH  29  32
ENDBRANCH  26  29
ENDBRANCH  23  26
ENDBRANCH   7  23
TORSDOF 8
ENDMDL
MODEL      249
REMARK 921   NORMALIZED FREE ENERGY PREDICTED BY IDOCK:   -4.94 KCAL/MOL
REMARK 922        TOTAL FREE ENERGY PREDICTED BY IDOCK:   -9.50 KCAL/MOL
REMARK 923 INTER-LIGAND FREE ENERGY PREDICTED BY IDOCK:   -8.01 KCAL/MOL
REMARK 924 INTRA-LIGAND FREE ENERGY PREDICTED BY IDOCK:   -1.48 KCAL/MOL
REMARK 927      BINDING AFFINITY PREDICTED BY RF-SCORE:    0.00 PKD
ROOT
HETATM    1 MG   UNL     3      -7.739  11.381  70.189  1.00  0.00    -0.354 Mg 
HETATM    2  O   UNL     4      -9.888   5.672  69.043  1.00  0.00    -0.138 OA 
HETATM    3  C   UNL     4      -9.297   6.857  68.546  1.00  0.00    -0.134 C  
HETATM    4  H   UNL     4      -9.269   4.956  69.127  1.00  0.00     0.000 HD 
HETATM    5  O   UNL     5     -10.408  18.454  68.752  1.00  0.00    -0.408 OA 
HETATM    6  H   UNL     5     -10.960  18.770  69.457  1.00  0.00     0.000 HD 
HETATM    7  C   UNL     5     -10.780  17.140  68.336  1.00  0.00    -0.347 C  
ENDROOT
BRANCH   3   8
HETATM    8  C   UNL     4     -10.298   8.014  68.410  1.00  0.00    -0.199 C  
HETATM    9  O   UNL     4     -11.113   7.814  67.239  1.00  0.00    -0.520 OA 
HETATM   10  H   UNL     4     -11.732   8.530  67.155  1.00  0.00     0.000 HD 
BRANCH   8  11
HETATM   11  C   UNL     4     -11.278   8.300  69.585  1.00  0.00     0.095 C  
HETATM   12  O   UNL     4     -11.768   7.118  70.210  1.00  0.00    -0.475 OA 
HETATM   13  H   UNL     4     -12.365   7.293  70.927  1.00  0.00     0.000 HD 
BRANCH  11  14
HETATM   14  C   UNL     4     -10.864   9.366  70.635  1.00  0.00    -0.283 C  
HETATM   15  H   UNL     4      -9.690  10.927  70.615  1.00  0.00     0.000 HD 
HETATM   16  O   UNL     4      -9.943  10.275  69.972  1.00  0.00    -0.208 OA 
BRANCH  14  17
HETATM   17  C   UNL     4     -10.298   8.924  72.015  1.00  0.00    -0.307 C  
HETATM   18  C   UNL     4      -8.789   8.447  71.930  1.00  0.00    -0.203 C  
HETATM   19  H   UNL     4     -10.831   7.742  73.536  1.00  0.00     0.000 HD 
HETATM   20  O   UNL     4     -11.177   8.012  72.694  1.00  0.00    -0.358 OA 
HETATM   21  O   UNL     4      -8.064   9.145  71.104  1.00  0.00    -0.242 OA 
HETATM   22  O   UNL     4      -8.438   7.416  72.569  1.00  0.00    -0.105 OA 
ENDBRANCH  14  17
ENDBRANCH  11  14
ENDBRANCH   8  11
ENDBRANCH   3   8
BRANCH   7  23
HETATM   23  C   UNL     5      -9.884  16.627  67.191  1.00  0.00    -0.257 C  
HETATM   24  O   UNL     5      -8.831  15.848  67.761  1.00  0.00    -0.173 OA 
HETATM   25  H   UNL     5      -8.279  15.532  67.056  1.00  0.00     0.000 HD 
BRANCH  23  26
HETATM   26  C   UNL     5     -10.689  15.805  66.161  1.00  0.00    -0.290 C  
HETATM   27  O   UNL     5     -10.546  16.404  64.853  1.00  0.00    -0.677 OA 
HETATM   28  H   UNL     5     -11.041  15.898  64.219  1.00  0.00     0.000 HD 
BRANCH  26  29
HETATM   29  C   UNL     5     -10.425  14.275  66.084  1.00  0.00    -0.292 C  
HETATM   30  O   UNL     5     -10.711  13.726  64.798  1.00  0.00    -0.371 OA 
HETATM   31  H   UNL     5     -10.549  12.790  64.751  1.00  0.00     0.000 HD 
BRANCH  29  32
HETATM   32  C   UNL     5     -10.987  13.391  67.209  1.00  0.00    -0.272 C  
HETATM   33  C   UNL     5     -10.946  11.869  66.957  1.00  0.00    -0.278 C  
HETATM   34  O   UNL     5     -12.354  13.811  67.558  1.00  0.00    -0.425 OA 
HETATM   35  O   UNL     5      -9.964  11.419  66.295  1.00  0.00    -0.211 OA 
HETATM   36  O   UNL     5     -11.976  11.250  67.405  1.00  0.00    -0.581 OA 
HETATM   37  H   UNL     5     -12.701  13.265  68.253  1.00  0.00     0.000 HD 
ENDBRANCH  29  32
ENDBRANCH  26  29
ENDBRANCH  23  26
ENDBRANCH   7  23
TORSDOF 8
ENDMDL
MODEL      250
REMARK 921   NORMALIZED FREE ENERGY PREDICTED BY IDOCK:   -4.94 KCAL/MOL
REMARK 922        TOTAL FREE ENERGY PREDICTED BY IDOCK:   -9.50 KCAL/MOL
REMARK 923 INTER-LIGAND FREE ENERGY PREDICTED BY IDOCK:   -7.52 KCAL/MOL
REMARK 924 INTRA-LIGAND FREE ENERGY PREDICTED BY IDOCK:   -1.97 KCAL/MOL
REMARK 927      BINDING AFFINITY PREDICTED BY RF-SCORE:    0.00 PKD
ROOT
HETATM    1 MG   UNL     3     -11.972  11.938  68.923  1.00  0.00    -0.215 Mg 
HETATM    2  O   UNL     4     -12.531  13.632  62.979  1.00  0.00    -1.020 OA 
HETATM    3  C   UNL     4     -12.382  12.589  63.923  1.00  0.00    -0.485 C  
HETATM    4  H   UNL     4     -13.414  13.695  62.632  1.00  0.00     0.000 HD 
HETATM    5  O   UNL     5      -6.087   9.450  73.212  1.00  0.00    -0.309 OA 
HETATM    6  H   UNL     5      -5.617  10.171  73.613  1.00  0.00     0.000 HD 
HETATM    7  C   UNL     5      -6.289   9.662  71.815  1.00  0.00     0.267 C  
ENDROOT
BRANCH   3   8
HETATM    8  C   UNL     4     -10.956  12.488  64.483  1.00  0.00    -0.323 C  
HETATM    9  O   UNL     4     -10.022  13.028  63.529  1.00  0.00    -0.650 OA 
HETATM   10  H   UNL     4      -9.139  12.964  63.875  1.00  0.00     0.000 HD 
BRANCH   8  11
HETATM   11  C   UNL     4     -10.635  13.167  65.847  1.00  0.00    -0.280 C  
HETATM   12  O   UNL     4      -9.998  12.294  66.774  1.00  0.00    -0.201 OA 
HETATM   13  H   UNL     4      -9.802  12.709  67.606  1.00  0.00     0.000 HD 
BRANCH  11  14
HETATM   14  C   UNL     4      -9.955  14.563  65.823  1.00  0.00    -0.334 C  
HETATM   15  H   UNL     4      -8.376  15.333  66.678  1.00  0.00     0.000 HD 
HETATM   16  O   UNL     4      -8.792  14.479  66.692  1.00  0.00    -0.243 OA 
BRANCH  14  17
HETATM   17  C   UNL     4     -10.784  15.840  66.142  1.00  0.00    -0.290 C  
HETATM   18  C   UNL     4     -11.099  16.701  64.849  1.00  0.00    -0.129 C  
HETATM   19  H   UNL     4     -10.737  17.365  67.432  1.00  0.00     0.000 HD 
HETATM   20  O   UNL     4     -10.231  16.586  67.237  1.00  0.00    -0.275 OA 
HETATM   21  O   UNL     4     -11.355  15.984  63.792  1.00  0.00    -0.497 OA 
HETATM   22  O   UNL     4     -10.992  17.957  64.911  1.00  0.00    -0.827 OA 
ENDBRANCH  14  17
ENDBRANCH  11  14
ENDBRANCH   8  11
ENDBRANCH   3   8
BRANCH   7  23
HETATM   23  C   UNL     5      -7.052   8.491  71.163  1.00  0.00    -0.073 C  
HETATM   24  O   UNL     5      -7.534   7.637  72.202  1.00  0.00    -0.067 OA 
HETATM   25  H   UNL     5      -8.004   6.916  71.801  1.00  0.00     0.000 HD 
BRANCH  23  26
HETATM   26  C   UNL     5      -8.210   8.990  70.272  1.00  0.00    -0.143 C  
HETATM   27  O   UNL     5      -7.704   9.287  68.950  1.00  0.00    -0.077 OA 
HETATM   28  H   UNL     5      -8.416   9.595  68.402  1.00  0.00     0.000 HD 
BRANCH  26  29
HETATM   29  C   UNL     5      -9.485   8.107  70.173  1.00  0.00    -0.167 C  
HETATM   30  O   UNL     5      -9.199   6.710  70.224  1.00  0.00    -0.155 OA 
HETATM   31  H   UNL     5      -9.978   6.170  70.164  1.00  0.00     0.000 HD 
BRANCH  29  32
HETATM   32  C   UNL     5     -10.500   8.431  69.065  1.00  0.00    -0.201 C  
HETATM   33  C   UNL     5     -10.106   7.993  67.638  1.00  0.00    -0.209 C  
HETATM   34  O   UNL     5     -10.839   9.863  69.080  1.00  0.00    -0.218 OA 
HETATM   35  O   UNL     5      -9.440   6.922  67.526  1.00  0.00    -0.127 OA 
HETATM   36  O   UNL     5     -10.456   8.831  66.732  1.00  0.00    -0.275 OA 
HETATM   37  H   UNL     5     -11.466  10.063  68.395  1.00  0.00     0.000 HD 
ENDBRANCH  29  32
ENDBRANCH  26  29
ENDBRANCH  23  26
ENDBRANCH   7  23
TORSDOF 8
ENDMDL
MODEL      251
REMARK 921   NORMALIZED FREE ENERGY PREDICTED BY IDOCK:   -4.94 KCAL/MOL
REMARK 922        TOTAL FREE ENERGY PREDICTED BY IDOCK:   -9.49 KCAL/MOL
REMARK 923 INTER-LIGAND FREE ENERGY PREDICTED BY IDOCK:   -7.96 KCAL/MOL
REMARK 924 INTRA-LIGAND FREE ENERGY PREDICTED BY IDOCK:   -1.53 KCAL/MOL
REMARK 927      BINDING AFFINITY PREDICTED BY RF-SCORE:    0.00 PKD
ROOT
HETATM    1 MG   UNL     3      -7.906  11.827  69.873  1.00  0.00    -0.345 Mg 
HETATM    2  O   UNL     4     -10.841  16.061  66.413  1.00  0.00    -0.269 OA 
HETATM    3  C   UNL     4     -10.698  15.421  67.667  1.00  0.00    -0.292 C  
HETATM    4  H   UNL     4     -10.469  16.936  66.399  1.00  0.00     0.000 HD 
HETATM    5  O   UNL     5      -9.841   4.874  72.542  1.00  0.00    -0.149 OA 
HETATM    6  H   UNL     5      -9.618   4.187  71.925  1.00  0.00     0.000 HD 
HETATM    7  C   UNL     5     -10.554   5.939  71.914  1.00  0.00    -0.231 C  
ENDROOT
BRANCH   3   8
HETATM    8  C   UNL     4     -11.300  14.008  67.689  1.00  0.00    -0.312 C  
HETATM    9  O   UNL     4     -12.401  13.966  68.615  1.00  0.00    -0.486 OA 
HETATM   10  H   UNL     4     -12.773  13.091  68.629  1.00  0.00     0.000 HD 
BRANCH   8  11
HETATM   11  C   UNL     4     -11.819  13.393  66.357  1.00  0.00    -0.396 C  
HETATM   12  O   UNL     4     -12.831  14.176  65.732  1.00  0.00    -0.502 OA 
HETATM   13  H   UNL     4     -13.147  13.800  64.919  1.00  0.00     0.000 HD 
BRANCH  11  14
HETATM   14  C   UNL     4     -10.769  12.896  65.326  1.00  0.00    -0.296 C  
HETATM   15  H   UNL     4      -9.734  13.747  63.904  1.00  0.00     0.000 HD 
HETATM   16  O   UNL     4     -10.376  14.051  64.535  1.00  0.00    -0.419 OA 
BRANCH  14  17
HETATM   17  C   UNL     4     -11.094  11.687  64.403  1.00  0.00    -0.317 C  
HETATM   18  C   UNL     4      -9.802  10.865  63.997  1.00  0.00    -0.322 C  
HETATM   19  H   UNL     4     -12.138  11.318  62.739  1.00  0.00     0.000 HD 
HETATM   20  O   UNL     4     -11.939  12.057  63.302  1.00  0.00    -0.447 OA 
HETATM   21  O   UNL     4      -8.926  10.758  64.955  1.00  0.00    -0.192 OA 
HETATM   22  O   UNL     4      -9.678  10.472  62.804  1.00  0.00    -0.313 OA 
ENDBRANCH  14  17
ENDBRANCH  11  14
ENDBRANCH   8  11
ENDBRANCH   3   8
BRANCH   7  23
HETATM   23  C   UNL     5     -10.916   7.054  72.916  1.00  0.00    -0.302 C  
HETATM   24  O   UNL     5     -10.829   6.515  74.236  1.00  0.00    -0.360 OA 
HETATM   25  H   UNL     5     -11.052   7.201  74.853  1.00  0.00     0.000 HD 
BRANCH  23  26
HETATM   26  C   UNL     5      -9.998   8.285  72.756  1.00  0.00    -0.263 C  
HETATM   27  O   UNL     5      -9.102   8.365  73.888  1.00  0.00    -0.203 OA 
HETATM   28  H   UNL     5      -8.537   9.122  73.790  1.00  0.00     0.000 HD 
BRANCH  26  29
HETATM   29  C   UNL     5      -9.202   8.433  71.429  1.00  0.00    -0.186 C  
HETATM   30  O   UNL     5      -7.954   9.104  71.601  1.00  0.00    -0.342 OA 
HETATM   31  H   UNL     5      -7.468   9.194  70.790  1.00  0.00     0.000 HD 
BRANCH  29  32
HETATM   32  C   UNL     5      -9.954   8.957  70.195  1.00  0.00    -0.185 C  
HETATM   33  C   UNL     5      -9.470   8.422  68.831  1.00  0.00    -0.147 C  
HETATM   34  O   UNL     5      -9.968  10.429  70.187  1.00  0.00    -0.422 OA 
HETATM   35  O   UNL     5      -9.047   7.229  68.795  1.00  0.00    -0.130 OA 
HETATM   36  O   UNL     5      -9.496   9.303  67.899  1.00  0.00    -0.136 OA 
HETATM   37  H   UNL     5     -10.433  10.752  69.425  1.00  0.00     0.000 HD 
ENDBRANCH  29  32
ENDBRANCH  26  29
ENDBRANCH  23  26
ENDBRANCH   7  23
TORSDOF 8
ENDMDL
MODEL      252
REMARK 921   NORMALIZED FREE ENERGY PREDICTED BY IDOCK:   -4.93 KCAL/MOL
REMARK 922        TOTAL FREE ENERGY PREDICTED BY IDOCK:   -9.49 KCAL/MOL
REMARK 923 INTER-LIGAND FREE ENERGY PREDICTED BY IDOCK:   -7.11 KCAL/MOL
REMARK 924 INTRA-LIGAND FREE ENERGY PREDICTED BY IDOCK:   -2.38 KCAL/MOL
REMARK 927      BINDING AFFINITY PREDICTED BY RF-SCORE:    0.00 PKD
ROOT
HETATM    1 MG   UNL     3     -12.283   6.676  66.525  1.00  0.00    -0.503 Mg 
HETATM    2  O   UNL     4      -7.703   2.601  67.495  1.00  0.00    -0.060 OA 
HETATM    3  C   UNL     4      -8.307   3.836  67.832  1.00  0.00    -0.092 C  
HETATM    4  H   UNL     4      -7.863   1.922  68.140  1.00  0.00     0.000 HD 
HETATM    5  O   UNL     5     -12.652  13.534  63.055  1.00  0.00    -0.886 OA 
HETATM    6  H   UNL     5     -12.844  13.448  62.129  1.00  0.00     0.000 HD 
HETATM    7  C   UNL     5     -11.588  12.671  63.458  1.00  0.00    -0.514 C  
ENDROOT
BRANCH   3   8
HETATM    8  C   UNL     4      -8.048   4.933  66.789  1.00  0.00    -0.107 C  
HETATM    9  O   UNL     4      -8.116   4.368  65.466  1.00  0.00    -0.103 OA 
HETATM   10  H   UNL     4      -7.956   5.047  64.820  1.00  0.00     0.000 HD 
BRANCH   8  11
HETATM   11  C   UNL     4      -8.965   6.191  66.779  1.00  0.00    -0.124 C  
HETATM   12  O   UNL     4     -10.142   6.035  67.565  1.00  0.00    -0.132 OA 
HETATM   13  H   UNL     4     -10.701   6.803  67.559  1.00  0.00     0.000 HD 
BRANCH  11  14
HETATM   14  C   UNL     4      -8.304   7.575  67.017  1.00  0.00    -0.121 C  
HETATM   15  H   UNL     4      -7.921   8.659  68.597  1.00  0.00     0.000 HD 
HETATM   16  O   UNL     4      -8.325   7.811  68.452  1.00  0.00    -0.123 OA 
BRANCH  14  17
HETATM   17  C   UNL     4      -8.817   8.827  66.249  1.00  0.00    -0.157 C  
HETATM   18  C   UNL     4      -7.645   9.805  65.824  1.00  0.00    -0.108 C  
HETATM   19  H   UNL     4     -10.227  10.229  66.456  1.00  0.00     0.000 HD 
HETATM   20  O   UNL     4      -9.913   9.465  66.925  1.00  0.00    -0.196 OA 
HETATM   21  O   UNL     4      -6.560   9.190  65.449  1.00  0.00    -0.067 OA 
HETATM   22  O   UNL     4      -7.808  11.049  65.960  1.00  0.00    -0.149 OA 
ENDBRANCH  14  17
ENDBRANCH  11  14
ENDBRANCH   8  11
ENDBRANCH   3   8
BRANCH   7  23
HETATM   23  C   UNL     5     -11.277  12.811  64.961  1.00  0.00    -0.298 C  
HETATM   24  O   UNL     5     -10.663  11.600  65.406  1.00  0.00    -0.276 OA 
HETATM   25  H   UNL     5     -10.472  11.686  66.332  1.00  0.00     0.000 HD 
BRANCH  23  26
HETATM   26  C   UNL     5     -10.373  14.030  65.246  1.00  0.00    -0.383 C  
HETATM   27  O   UNL     5     -10.939  15.203  64.619  1.00  0.00    -0.572 OA 
HETATM   28  H   UNL     5     -10.382  15.953  64.795  1.00  0.00     0.000 HD 
BRANCH  26  29
HETATM   29  C   UNL     5     -10.007  14.334  66.726  1.00  0.00    -0.265 C  
HETATM   30  O   UNL     5      -9.454  13.207  67.405  1.00  0.00    -0.201 OA 
HETATM   31  H   UNL     5      -9.230  13.393  68.309  1.00  0.00     0.000 HD 
BRANCH  29  32
HETATM   32  C   UNL     5     -11.055  15.051  67.593  1.00  0.00    -0.316 C  
HETATM   33  C   UNL     5     -10.770  15.084  69.109  1.00  0.00    -0.249 C  
HETATM   34  O   UNL     5     -12.396  14.498  67.341  1.00  0.00    -0.614 OA 
HETATM   35  O   UNL     5      -9.557  15.169  69.467  1.00  0.00    -0.212 OA 
HETATM   36  O   UNL     5     -11.822  14.949  69.830  1.00  0.00    -0.280 OA 
HETATM   37  H   UNL     5     -13.043  14.941  67.876  1.00  0.00     0.000 HD 
ENDBRANCH  29  32
ENDBRANCH  26  29
ENDBRANCH  23  26
ENDBRANCH   7  23
TORSDOF 8
ENDMDL
MODEL      253
REMARK 921   NORMALIZED FREE ENERGY PREDICTED BY IDOCK:   -4.93 KCAL/MOL
REMARK 922        TOTAL FREE ENERGY PREDICTED BY IDOCK:   -9.48 KCAL/MOL
REMARK 923 INTER-LIGAND FREE ENERGY PREDICTED BY IDOCK:   -7.54 KCAL/MOL
REMARK 924 INTRA-LIGAND FREE ENERGY PREDICTED BY IDOCK:   -1.94 KCAL/MOL
REMARK 927      BINDING AFFINITY PREDICTED BY RF-SCORE:    0.00 PKD
ROOT
HETATM    1 MG   UNL     3     -11.420  13.700  69.557  1.00  0.00    -0.222 Mg 
HETATM    2  O   UNL     4     -12.675  14.633  63.551  1.00  0.00    -0.907 OA 
HETATM    3  C   UNL     4     -12.859  13.843  64.710  1.00  0.00    -0.091 C  
HETATM    4  H   UNL     4     -13.427  15.177  63.350  1.00  0.00     0.000 HD 
HETATM    5  O   UNL     5      -6.966   8.695  73.343  1.00  0.00    -0.295 OA 
HETATM    6  H   UNL     5      -6.081   9.023  73.446  1.00  0.00     0.000 HD 
HETATM    7  C   UNL     5      -7.419   8.811  71.994  1.00  0.00     0.025 C  
ENDROOT
BRANCH   3   8
HETATM    8  C   UNL     4     -11.643  12.963  65.034  1.00  0.00    -0.332 C  
HETATM    9  O   UNL     4     -11.152  12.351  63.826  1.00  0.00    -0.375 OA 
HETATM   10  H   UNL     4     -10.400  11.806  64.027  1.00  0.00     0.000 HD 
BRANCH   8  11
HETATM   11  C   UNL     4     -10.411  13.613  65.730  1.00  0.00    -0.293 C  
HETATM   12  O   UNL     4      -9.206  13.476  64.985  1.00  0.00     0.019 OA 
HETATM   13  H   UNL     4      -8.455  13.873  65.410  1.00  0.00     0.000 HD 
BRANCH  11  14
HETATM   14  C   UNL     4     -10.569  15.051  66.295  1.00  0.00    -0.307 C  
HETATM   15  H   UNL     4     -10.844  16.814  65.500  1.00  0.00     0.000 HD 
HETATM   16  O   UNL     4     -10.748  15.934  65.154  1.00  0.00    -0.414 OA 
BRANCH  14  17
HETATM   17  C   UNL     4      -9.502  15.627  67.270  1.00  0.00    -0.216 C  
HETATM   18  C   UNL     4     -10.135  16.558  68.386  1.00  0.00    -0.255 C  
HETATM   19  H   UNL     4      -7.734  16.553  67.169  1.00  0.00     0.000 HD 
HETATM   20  O   UNL     4      -8.386  16.202  66.574  1.00  0.00    -0.261 OA 
HETATM   21  O   UNL     4     -11.287  16.139  68.827  1.00  0.00    -0.346 OA 
HETATM   22  O   UNL     4      -9.551  17.636  68.685  1.00  0.00    -0.294 OA 
ENDBRANCH  14  17
ENDBRANCH  11  14
ENDBRANCH   8  11
ENDBRANCH   3   8
BRANCH   7  23
HETATM   23  C   UNL     5      -8.857   8.279  71.826  1.00  0.00    -0.173 C  
HETATM   24  O   UNL     5      -9.551   8.466  73.061  1.00  0.00    -0.246 OA 
HETATM   25  H   UNL     5     -10.436   8.138  72.957  1.00  0.00     0.000 HD 
BRANCH  23  26
HETATM   26  C   UNL     5      -9.593   8.979  70.663  1.00  0.00    -0.237 C  
HETATM   27  O   UNL     5      -8.797   8.873  69.460  1.00  0.00    -0.138 OA 
HETATM   28  H   UNL     5      -9.250   9.304  68.744  1.00  0.00     0.000 HD 
BRANCH  26  29
HETATM   29  C   UNL     5     -11.061   8.561  70.374  1.00  0.00    -0.231 C  
HETATM   30  O   UNL     5     -11.266   8.142  69.026  1.00  0.00    -0.407 OA 
HETATM   31  H   UNL     5     -12.164   7.886  68.849  1.00  0.00     0.000 HD 
BRANCH  29  32
HETATM   32  C   UNL     5     -12.182   9.503  70.844  1.00  0.00    -0.254 C  
HETATM   33  C   UNL     5     -12.173  10.921  70.235  1.00  0.00    -0.348 C  
HETATM   34  O   UNL     5     -12.205   9.582  72.314  1.00  0.00    -0.278 OA 
HETATM   35  O   UNL     5     -11.779  11.032  69.036  1.00  0.00    -0.288 OA 
HETATM   36  O   UNL     5     -12.510  11.836  71.068  1.00  0.00    -0.372 OA 
HETATM   37  H   UNL     5     -12.898  10.164  72.604  1.00  0.00     0.000 HD 
ENDBRANCH  29  32
ENDBRANCH  26  29
ENDBRANCH  23  26
ENDBRANCH   7  23
TORSDOF 8
ENDMDL
MODEL      254
REMARK 921   NORMALIZED FREE ENERGY PREDICTED BY IDOCK:   -4.93 KCAL/MOL
REMARK 922        TOTAL FREE ENERGY PREDICTED BY IDOCK:   -9.48 KCAL/MOL
REMARK 923 INTER-LIGAND FREE ENERGY PREDICTED BY IDOCK:   -8.48 KCAL/MOL
REMARK 924 INTRA-LIGAND FREE ENERGY PREDICTED BY IDOCK:   -1.00 KCAL/MOL
REMARK 927      BINDING AFFINITY PREDICTED BY RF-SCORE:    0.00 PKD
ROOT
HETATM    1 MG   UNL     3     -13.477  10.055  69.681  1.00  0.00    -0.593 Mg 
HETATM    2  O   UNL     4     -10.470   5.234  72.178  1.00  0.00    -0.209 OA 
HETATM    3  C   UNL     4     -10.475   6.611  71.851  1.00  0.00    -0.201 C  
HETATM    4  H   UNL     4     -10.613   5.073  73.103  1.00  0.00     0.000 HD 
HETATM    5  O   UNL     5     -12.724  13.958  63.093  1.00  0.00    -0.924 OA 
HETATM    6  H   UNL     5     -13.240  13.571  62.395  1.00  0.00     0.000 HD 
HETATM    7  C   UNL     5     -11.937  12.981  63.773  1.00  0.00    -0.518 C  
ENDROOT
BRANCH   3   8
HETATM    8  C   UNL     4     -10.243   6.872  70.356  1.00  0.00    -0.192 C  
HETATM    9  O   UNL     4      -8.830   6.933  70.088  1.00  0.00    -0.144 OA 
HETATM   10  H   UNL     4      -8.686   7.095  69.163  1.00  0.00     0.000 HD 
BRANCH   8  11
HETATM   11  C   UNL     4     -10.846   5.879  69.319  1.00  0.00    -0.344 C  
HETATM   12  O   UNL     4     -11.814   6.478  68.463  1.00  0.00    -0.325 OA 
HETATM   13  H   UNL     4     -12.181   5.872  67.831  1.00  0.00     0.000 HD 
BRANCH  11  14
HETATM   14  C   UNL     4      -9.867   4.975  68.522  1.00  0.00    -0.151 C  
HETATM   15  H   UNL     4      -8.411   3.768  69.010  1.00  0.00     0.000 HD 
HETATM   16  O   UNL     4      -9.010   4.321  69.497  1.00  0.00    -0.086 OA 
BRANCH  14  17
HETATM   17  C   UNL     4      -9.020   5.574  67.363  1.00  0.00    -0.107 C  
HETATM   18  C   UNL     4      -9.317   4.881  65.969  1.00  0.00    -0.156 C  
HETATM   19  H   UNL     4      -7.109   6.030  66.993  1.00  0.00     0.000 HD 
HETATM   20  O   UNL     4      -7.627   5.664  67.701  1.00  0.00    -0.086 OA 
HETATM   21  O   UNL     4     -10.571   4.577  65.792  1.00  0.00    -0.285 OA 
HETATM   22  O   UNL     4      -8.351   4.602  65.207  1.00  0.00    -0.117 OA 
ENDBRANCH  14  17
ENDBRANCH  11  14
ENDBRANCH   8  11
ENDBRANCH   3   8
BRANCH   7  23
HETATM   23  C   UNL     5     -11.099  13.609  64.905  1.00  0.00    -0.351 C  
HETATM   24  O   UNL     5     -10.814  14.964  64.553  1.00  0.00    -0.609 OA 
HETATM   25  H   UNL     5     -10.298  15.351  65.250  1.00  0.00     0.000 HD 
BRANCH  23  26
HETATM   26  C   UNL     5     -11.826  13.529  66.265  1.00  0.00    -0.392 C  
HETATM   27  O   UNL     5     -12.256  12.169  66.499  1.00  0.00    -0.584 OA 
HETATM   28  H   UNL     5     -12.703  12.119  67.336  1.00  0.00     0.000 HD 
BRANCH  26  29
HETATM   29  C   UNL     5     -11.090  14.084  67.517  1.00  0.00    -0.298 C  
HETATM   30  O   UNL     5      -9.729  13.664  67.593  1.00  0.00    -0.218 OA 
HETATM   31  H   UNL     5      -9.279  14.003  68.358  1.00  0.00     0.000 HD 
BRANCH  29  32
HETATM   32  C   UNL     5     -11.793  13.957  68.879  1.00  0.00    -0.358 C  
HETATM   33  C   UNL     5     -11.930  15.261  69.693  1.00  0.00    -0.338 C  
HETATM   34  O   UNL     5     -11.148  12.915  69.694  1.00  0.00    -0.466 OA 
HETATM   35  O   UNL     5     -12.107  16.333  69.041  1.00  0.00    -0.148 OA 
HETATM   36  O   UNL     5     -11.775  15.093  70.955  1.00  0.00    -0.284 OA 
HETATM   37  H   UNL     5     -11.582  12.836  70.536  1.00  0.00     0.000 HD 
ENDBRANCH  29  32
ENDBRANCH  26  29
ENDBRANCH  23  26
ENDBRANCH   7  23
TORSDOF 8
ENDMDL
MODEL      255
REMARK 921   NORMALIZED FREE ENERGY PREDICTED BY IDOCK:   -4.92 KCAL/MOL
REMARK 922        TOTAL FREE ENERGY PREDICTED BY IDOCK:   -9.47 KCAL/MOL
REMARK 923 INTER-LIGAND FREE ENERGY PREDICTED BY IDOCK:   -6.88 KCAL/MOL
REMARK 924 INTRA-LIGAND FREE ENERGY PREDICTED BY IDOCK:   -2.58 KCAL/MOL
REMARK 927      BINDING AFFINITY PREDICTED BY RF-SCORE:    0.00 PKD
ROOT
HETATM    1 MG   UNL     3     -12.352  10.701  67.397  1.00  0.00     0.013 Mg 
HETATM    2  O   UNL     4     -14.410   8.755  72.920  1.00  0.00    -1.023 OA 
HETATM    3  C   UNL     4     -13.463   9.507  72.186  1.00  0.00    -0.456 C  
HETATM    4  H   UNL     4     -15.062   9.297  73.350  1.00  0.00     0.000 HD 
HETATM    5  O   UNL     5      -6.316   8.821  63.010  1.00  0.00    -0.090 OA 
HETATM    6  H   UNL     5      -6.520   8.103  62.422  1.00  0.00     0.000 HD 
HETATM    7  C   UNL     5      -6.706   8.533  64.352  1.00  0.00    -0.066 C  
ENDROOT
BRANCH   3   8
HETATM    8  C   UNL     4     -12.411   8.631  71.491  1.00  0.00    -0.324 C  
HETATM    9  O   UNL     4     -13.065   7.574  70.763  1.00  0.00    -0.579 OA 
HETATM   10  H   UNL     4     -12.413   7.032  70.334  1.00  0.00     0.000 HD 
BRANCH   8  11
HETATM   11  C   UNL     4     -11.414   9.299  70.500  1.00  0.00    -0.248 C  
HETATM   12  O   UNL     4     -11.236   8.559  69.297  1.00  0.00    -0.433 OA 
HETATM   13  H   UNL     4     -10.628   8.967  68.692  1.00  0.00     0.000 HD 
BRANCH  11  14
HETATM   14  C   UNL     4     -11.579  10.816  70.213  1.00  0.00    -0.338 C  
HETATM   15  H   UNL     4     -12.916  11.899  69.288  1.00  0.00     0.000 HD 
HETATM   16  O   UNL     4     -12.815  10.971  69.464  1.00  0.00    -0.188 OA 
BRANCH  14  17
HETATM   17  C   UNL     4     -10.426  11.611  69.535  1.00  0.00     0.221 C  
HETATM   18  C   UNL     4     -10.919  12.974  68.896  1.00  0.00    -0.230 C  
HETATM   19  H   UNL     4      -8.938  11.273  68.244  1.00  0.00     0.000 HD 
HETATM   20  O   UNL     4      -9.643  10.787  68.657  1.00  0.00    -0.171 OA 
HETATM   21  O   UNL     4     -11.828  13.585  69.601  1.00  0.00    -0.300 OA 
HETATM   22  O   UNL     4     -10.485  13.308  67.759  1.00  0.00    -0.232 OA 
ENDBRANCH  14  17
ENDBRANCH  11  14
ENDBRANCH   8  11
ENDBRANCH   3   8
BRANCH   7  23
HETATM   23  C   UNL     5      -6.375   9.699  65.306  1.00  0.00    -0.081 C  
HETATM   24  O   UNL     5      -5.838  10.773  64.531  1.00  0.00    -0.354 OA 
HETATM   25  H   UNL     5      -5.633  11.490  65.119  1.00  0.00     0.000 HD 
BRANCH  23  26
HETATM   26  C   UNL     5      -7.616  10.155  66.103  1.00  0.00    -0.114 C  
HETATM   27  O   UNL     5      -7.204  10.611  67.412  1.00  0.00    -0.088 OA 
HETATM   28  H   UNL     5      -7.968  10.891  67.903  1.00  0.00     0.000 HD 
BRANCH  26  29
HETATM   29  C   UNL     5      -8.562  11.197  65.444  1.00  0.00    -0.009 C  
HETATM   30  O   UNL     5      -8.516  12.472  66.083  1.00  0.00    -0.376 OA 
HETATM   31  H   UNL     5      -9.094  13.109  65.679  1.00  0.00     0.000 HD 
BRANCH  29  32
HETATM   32  C   UNL     5     -10.010  10.769  65.151  1.00  0.00    -0.291 C  
HETATM   33  C   UNL     5     -10.983  11.900  64.759  1.00  0.00    -0.312 C  
HETATM   34  O   UNL     5     -10.556   9.998  66.280  1.00  0.00    -0.156 OA 
HETATM   35  O   UNL     5     -10.509  12.862  64.083  1.00  0.00    -0.403 OA 
HETATM   36  O   UNL     5     -12.162  11.749  65.240  1.00  0.00    -0.256 OA 
HETATM   37  H   UNL     5     -11.450   9.734  66.099  1.00  0.00     0.000 HD 
ENDBRANCH  29  32
ENDBRANCH  26  29
ENDBRANCH  23  26
ENDBRANCH   7  23
TORSDOF 8
ENDMDL
MODEL      256
REMARK 921   NORMALIZED FREE ENERGY PREDICTED BY IDOCK:   -4.91 KCAL/MOL
REMARK 922        TOTAL FREE ENERGY PREDICTED BY IDOCK:   -9.45 KCAL/MOL
REMARK 923 INTER-LIGAND FREE ENERGY PREDICTED BY IDOCK:   -8.15 KCAL/MOL
REMARK 924 INTRA-LIGAND FREE ENERGY PREDICTED BY IDOCK:   -1.29 KCAL/MOL
REMARK 927      BINDING AFFINITY PREDICTED BY RF-SCORE:    0.00 PKD
ROOT
HETATM    1 MG   UNL     3     -12.179  10.451  68.016  1.00  0.00    -0.430 Mg 
HETATM    2  O   UNL     4     -12.353  13.672  62.713  1.00  0.00    -0.858 OA 
HETATM    3  C   UNL     4     -12.022  12.469  63.380  1.00  0.00    -0.514 C  
HETATM    4  H   UNL     4     -13.147  13.602  62.196  1.00  0.00     0.000 HD 
HETATM    5  O   UNL     5      -6.521   8.419  72.819  1.00  0.00    -0.089 OA 
HETATM    6  H   UNL     5      -6.373   9.080  73.485  1.00  0.00     0.000 HD 
HETATM    7  C   UNL     5      -6.568   8.987  71.510  1.00  0.00    -0.064 C  
ENDROOT
BRANCH   3   8
HETATM    8  C   UNL     4     -10.739  12.582  64.217  1.00  0.00    -0.369 C  
HETATM    9  O   UNL     4      -9.602  12.220  63.410  1.00  0.00    -0.663 OA 
HETATM   10  H   UNL     4      -8.808  12.289  63.928  1.00  0.00     0.000 HD 
BRANCH   8  11
HETATM   11  C   UNL     4     -10.393  13.947  64.879  1.00  0.00    -0.406 C  
HETATM   12  O   UNL     4     -11.169  15.030  64.375  1.00  0.00    -0.626 OA 
HETATM   13  H   UNL     4     -10.958  15.863  64.780  1.00  0.00     0.000 HD 
BRANCH  11  14
HETATM   14  C   UNL     4     -10.286  14.000  66.427  1.00  0.00    -0.291 C  
HETATM   15  H   UNL     4      -9.358  12.931  67.774  1.00  0.00     0.000 HD 
HETATM   16  O   UNL     4      -9.423  12.899  66.827  1.00  0.00    -0.233 OA 
BRANCH  14  17
HETATM   17  C   UNL     4     -11.574  14.029  67.298  1.00  0.00    -0.369 C  
HETATM   18  C   UNL     4     -11.288  14.453  68.798  1.00  0.00    -0.273 C  
HETATM   19  H   UNL     4     -13.140  12.848  67.684  1.00  0.00     0.000 HD 
HETATM   20  O   UNL     4     -12.353  12.830  67.153  1.00  0.00    -0.357 OA 
HETATM   21  O   UNL     4     -10.381  15.380  68.916  1.00  0.00    -0.217 OA 
HETATM   22  O   UNL     4     -11.864  13.827  69.730  1.00  0.00    -0.293 OA 
ENDBRANCH  14  17
ENDBRANCH  11  14
ENDBRANCH   8  11
ENDBRANCH   3   8
BRANCH   7  23
HETATM   23  C   UNL     5      -6.809   7.914  70.430  1.00  0.00    -0.041 C  
HETATM   24  O   UNL     5      -6.055   6.751  70.777  1.00  0.00    -0.027 OA 
HETATM   25  H   UNL     5      -6.204   6.090  70.111  1.00  0.00     0.000 HD 
BRANCH  23  26
HETATM   26  C   UNL     5      -8.310   7.580  70.281  1.00  0.00    -0.133 C  
HETATM   27  O   UNL     5      -8.572   7.143  68.928  1.00  0.00    -0.128 OA 
HETATM   28  H   UNL     5      -9.495   6.938  68.837  1.00  0.00     0.000 HD 
BRANCH  26  29
HETATM   29  C   UNL     5      -8.938   6.587  71.298  1.00  0.00    -0.141 C  
HETATM   30  O   UNL     5      -8.905   5.234  70.847  1.00  0.00    -0.131 OA 
HETATM   31  H   UNL     5      -9.289   4.627  71.469  1.00  0.00     0.000 HD 
BRANCH  29  32
HETATM   32  C   UNL     5     -10.308   6.944  71.898  1.00  0.00    -0.189 C  
HETATM   33  C   UNL     5     -11.489   6.994  70.906  1.00  0.00    -0.308 C  
HETATM   34  O   UNL     5     -10.226   8.205  72.653  1.00  0.00    -0.283 OA 
HETATM   35  O   UNL     5     -11.469   6.172  69.942  1.00  0.00    -0.421 OA 
HETATM   36  O   UNL     5     -12.326   7.933  71.155  1.00  0.00    -0.298 OA 
HETATM   37  H   UNL     5     -11.072   8.426  73.024  1.00  0.00     0.000 HD 
ENDBRANCH  29  32
ENDBRANCH  26  29
ENDBRANCH  23  26
ENDBRANCH   7  23
TORSDOF 8
ENDMDL
MODEL      257
REMARK 921   NORMALIZED FREE ENERGY PREDICTED BY IDOCK:   -4.91 KCAL/MOL
REMARK 922        TOTAL FREE ENERGY PREDICTED BY IDOCK:   -9.45 KCAL/MOL
REMARK 923 INTER-LIGAND FREE ENERGY PREDICTED BY IDOCK:   -7.36 KCAL/MOL
REMARK 924 INTRA-LIGAND FREE ENERGY PREDICTED BY IDOCK:   -2.09 KCAL/MOL
REMARK 927      BINDING AFFINITY PREDICTED BY RF-SCORE:    0.00 PKD
ROOT
HETATM    1 MG   UNL     3      -6.238  10.710  69.249  1.00  0.00    -0.042 Mg 
HETATM    2  O   UNL     4      -6.797  16.870  68.746  1.00  0.00    -0.173 OA 
HETATM    3  C   UNL     4      -7.233  15.668  69.351  1.00  0.00    -0.212 C  
HETATM    4  H   UNL     4      -6.254  17.398  69.320  1.00  0.00     0.000 HD 
HETATM    5  O   UNL     5     -10.480   4.770  66.813  1.00  0.00    -0.224 OA 
HETATM    6  H   UNL     5     -10.224   4.490  65.942  1.00  0.00     0.000 HD 
HETATM    7  C   UNL     5     -10.679   6.182  66.879  1.00  0.00    -0.340 C  
ENDROOT
BRANCH   3   8
HETATM    8  C   UNL     4      -8.111  14.815  68.422  1.00  0.00    -0.144 C  
HETATM    9  O   UNL     4      -8.450  13.579  69.078  1.00  0.00    -0.352 OA 
HETATM   10  H   UNL     4      -8.992  13.051  68.503  1.00  0.00     0.000 HD 
BRANCH   8  11
HETATM   11  C   UNL     4      -9.446  15.415  67.893  1.00  0.00    -0.197 C  
HETATM   12  O   UNL     4      -9.443  16.837  67.840  1.00  0.00    -0.226 OA 
HETATM   13  H   UNL     4     -10.258  17.203  67.517  1.00  0.00     0.000 HD 
BRANCH  11  14
HETATM   14  C   UNL     4     -10.060  14.801  66.605  1.00  0.00    -0.264 C  
HETATM   15  H   UNL     4     -10.386  15.458  64.794  1.00  0.00     0.000 HD 
HETATM   16  O   UNL     4     -10.010  15.833  65.582  1.00  0.00    -0.325 OA 
BRANCH  14  17
HETATM   17  C   UNL     4     -11.469  14.143  66.650  1.00  0.00    -0.366 C  
HETATM   18  C   UNL     4     -11.401  12.566  66.788  1.00  0.00    -0.334 C  
HETATM   19  H   UNL     4     -13.181  14.214  65.622  1.00  0.00     0.000 HD 
HETATM   20  O   UNL     4     -12.321  14.615  65.594  1.00  0.00    -0.271 OA 
HETATM   21  O   UNL     4     -10.444  12.149  67.566  1.00  0.00    -0.205 OA 
HETATM   22  O   UNL     4     -12.182  11.858  66.094  1.00  0.00    -0.459 OA 
ENDBRANCH  14  17
ENDBRANCH  11  14
ENDBRANCH   8  11
ENDBRANCH   3   8
BRANCH   7  23
HETATM   23  C   UNL     5     -11.094   6.635  68.293  1.00  0.00    -0.198 C  
HETATM   24  O   UNL     5     -10.688   5.630  69.224  1.00  0.00    -0.291 OA 
HETATM   25  H   UNL     5     -10.944   5.909  70.095  1.00  0.00     0.000 HD 
BRANCH  23  26
HETATM   26  C   UNL     5     -10.485   8.007  68.655  1.00  0.00    -0.167 C  
HETATM   27  O   UNL     5     -11.191   9.048  67.942  1.00  0.00    -0.476 OA 
HETATM   28  H   UNL     5     -10.816   9.892  68.164  1.00  0.00     0.000 HD 
BRANCH  26  29
HETATM   29  C   UNL     5     -10.362   8.374  70.160  1.00  0.00    -0.211 C  
HETATM   30  O   UNL     5      -9.520   7.477  70.884  1.00  0.00    -0.164 OA 
HETATM   31  H   UNL     5      -9.444   7.702  71.804  1.00  0.00     0.000 HD 
BRANCH  29  32
HETATM   32  C   UNL     5     -11.655   8.677  70.935  1.00  0.00    -0.269 C  
HETATM   33  C   UNL     5     -12.478   7.450  71.382  1.00  0.00    -0.368 C  
HETATM   34  O   UNL     5     -12.505   9.607  70.173  1.00  0.00    -0.460 OA 
HETATM   35  O   UNL     5     -11.833   6.408  71.705  1.00  0.00    -0.310 OA 
HETATM   36  O   UNL     5     -13.745   7.629  71.302  1.00  0.00    -0.314 OA 
HETATM   37  H   UNL     5     -13.303   9.794  70.652  1.00  0.00     0.000 HD 
ENDBRANCH  29  32
ENDBRANCH  26  29
ENDBRANCH  23  26
ENDBRANCH   7  23
TORSDOF 8
ENDMDL
MODEL      258
REMARK 921   NORMALIZED FREE ENERGY PREDICTED BY IDOCK:   -4.90 KCAL/MOL
REMARK 922        TOTAL FREE ENERGY PREDICTED BY IDOCK:   -9.44 KCAL/MOL
REMARK 923 INTER-LIGAND FREE ENERGY PREDICTED BY IDOCK:   -7.17 KCAL/MOL
REMARK 924 INTRA-LIGAND FREE ENERGY PREDICTED BY IDOCK:   -2.27 KCAL/MOL
REMARK 927      BINDING AFFINITY PREDICTED BY RF-SCORE:    0.00 PKD
ROOT
HETATM    1 MG   UNL     3     -10.355  14.710  64.647  1.00  0.00    -0.330 Mg 
HETATM    2  O   UNL     4     -11.088   9.537  67.996  1.00  0.00    -0.495 OA 
HETATM    3  C   UNL     4     -11.291  10.932  67.877  1.00  0.00    -0.308 C  
HETATM    4  H   UNL     4     -11.878   9.033  67.838  1.00  0.00     0.000 HD 
HETATM    5  O   UNL     5      -5.727  20.827  65.257  1.00  0.00    -0.200 OA 
HETATM    6  H   UNL     5      -4.905  20.692  64.801  1.00  0.00     0.000 HD 
HETATM    7  C   UNL     5      -6.049  19.727  66.107  1.00  0.00    -0.176 C  
ENDROOT
BRANCH   3   8
HETATM    8  C   UNL     4     -10.015  11.747  68.133  1.00  0.00    -0.194 C  
HETATM    9  O   UNL     4     -10.340  12.935  68.878  1.00  0.00    -0.400 OA 
HETATM   10  H   UNL     4      -9.550  13.439  69.036  1.00  0.00     0.000 HD 
BRANCH   8  11
HETATM   11  C   UNL     4      -8.829  11.068  68.879  1.00  0.00    -0.113 C  
HETATM   12  O   UNL     4      -9.241  10.276  69.988  1.00  0.00    -0.399 OA 
HETATM   13  H   UNL     4      -8.517   9.863  70.443  1.00  0.00     0.000 HD 
BRANCH  11  14
HETATM   14  C   UNL     4      -7.755  10.337  68.028  1.00  0.00    -0.089 C  
HETATM   15  H   UNL     4      -7.240  10.375  66.144  1.00  0.00     0.000 HD 
HETATM   16  O   UNL     4      -7.896  10.823  66.664  1.00  0.00    -0.128 OA 
BRANCH  14  17
HETATM   17  C   UNL     4      -7.669   8.784  68.049  1.00  0.00    -0.101 C  
HETATM   18  C   UNL     4      -6.277   8.244  67.518  1.00  0.00    -0.053 C  
HETATM   19  H   UNL     4      -8.766   7.221  67.459  1.00  0.00     0.000 HD 
HETATM   20  O   UNL     4      -8.818   8.169  67.446  1.00  0.00    -0.126 OA 
HETATM   21  O   UNL     4      -5.260   8.974  67.877  1.00  0.00    -0.034 OA 
HETATM   22  O   UNL     4      -6.263   7.245  66.747  1.00  0.00    -0.040 OA 
ENDBRANCH  14  17
ENDBRANCH  11  14
ENDBRANCH   8  11
ENDBRANCH   3   8
BRANCH   7  23
HETATM   23  C   UNL     5      -7.383  19.948  66.847  1.00  0.00    -0.232 C  
HETATM   24  O   UNL     5      -7.638  21.353  66.903  1.00  0.00    -0.769 OA 
HETATM   25  H   UNL     5      -8.460  21.488  67.359  1.00  0.00     0.000 HD 
BRANCH  23  26
HETATM   26  C   UNL     5      -8.547  19.198  66.163  1.00  0.00    -0.223 C  
HETATM   27  O   UNL     5      -8.077  17.915  65.688  1.00  0.00    -0.514 OA 
HETATM   28  H   UNL     5      -8.793  17.454  65.267  1.00  0.00     0.000 HD 
BRANCH  26  29
HETATM   29  C   UNL     5      -9.870  19.025  66.960  1.00  0.00    -0.322 C  
HETATM   30  O   UNL     5      -9.744  19.393  68.333  1.00  0.00    -0.356 OA 
HETATM   31  H   UNL     5     -10.553  19.288  68.820  1.00  0.00     0.000 HD 
BRANCH  29  32
HETATM   32  C   UNL     5     -10.637  17.702  66.802  1.00  0.00    -0.224 C  
HETATM   33  C   UNL     5     -10.120  16.517  67.644  1.00  0.00    -0.266 C  
HETATM   34  O   UNL     5     -10.717  17.320  65.383  1.00  0.00    -0.583 OA 
HETATM   35  O   UNL     5      -9.643  16.784  68.787  1.00  0.00    -0.244 OA 
HETATM   36  O   UNL     5     -10.179  15.391  67.032  1.00  0.00    -0.253 OA 
HETATM   37  H   UNL     5     -11.190  16.503  65.285  1.00  0.00     0.000 HD 
ENDBRANCH  29  32
ENDBRANCH  26  29
ENDBRANCH  23  26
ENDBRANCH   7  23
TORSDOF 8
ENDMDL
MODEL      259
REMARK 921   NORMALIZED FREE ENERGY PREDICTED BY IDOCK:   -4.90 KCAL/MOL
REMARK 922        TOTAL FREE ENERGY PREDICTED BY IDOCK:   -9.44 KCAL/MOL
REMARK 923 INTER-LIGAND FREE ENERGY PREDICTED BY IDOCK:   -7.79 KCAL/MOL
REMARK 924 INTRA-LIGAND FREE ENERGY PREDICTED BY IDOCK:   -1.64 KCAL/MOL
REMARK 927      BINDING AFFINITY PREDICTED BY RF-SCORE:    0.00 PKD
ROOT
HETATM    1 MG   UNL     3     -13.015  11.502  69.353  1.00  0.00    -0.142 Mg 
HETATM    2  O   UNL     4     -10.966  17.300  68.512  1.00  0.00    -0.290 OA 
HETATM    3  C   UNL     4     -11.083  15.981  68.014  1.00  0.00    -0.334 C  
HETATM    4  H   UNL     4     -11.563  17.909  68.093  1.00  0.00     0.000 HD 
HETATM    5  O   UNL     5      -9.568   4.842  71.077  1.00  0.00    -0.154 OA 
HETATM    6  H   UNL     5      -9.508   4.711  72.015  1.00  0.00     0.000 HD 
HETATM    7  C   UNL     5      -9.108   6.138  70.693  1.00  0.00    -0.150 C  
ENDROOT
BRANCH   3   8
HETATM    8  C   UNL     4     -10.118  14.997  68.691  1.00  0.00    -0.233 C  
HETATM    9  O   UNL     4     -10.056  15.275  70.103  1.00  0.00    -0.470 OA 
HETATM   10  H   UNL     4      -9.458  14.666  70.522  1.00  0.00     0.000 HD 
BRANCH   8  11
HETATM   11  C   UNL     4     -10.384  13.470  68.553  1.00  0.00    -0.240 C  
HETATM   12  O   UNL     4     -11.734  13.108  68.822  1.00  0.00    -0.284 OA 
HETATM   13  H   UNL     4     -11.897  12.176  68.738  1.00  0.00     0.000 HD 
BRANCH  11  14
HETATM   14  C   UNL     4      -9.845  12.748  67.289  1.00  0.00    -0.207 C  
HETATM   15  H   UNL     4      -8.495  13.168  65.941  1.00  0.00     0.000 HD 
HETATM   16  O   UNL     4      -8.825  13.610  66.715  1.00  0.00    -0.214 OA 
BRANCH  14  17
HETATM   17  C   UNL     4     -10.831  12.259  66.190  1.00  0.00    -0.279 C  
HETATM   18  C   UNL     4     -11.366  13.442  65.281  1.00  0.00    -0.296 C  
HETATM   19  H   UNL     4     -12.456  11.105  66.050  1.00  0.00     0.000 HD 
HETATM   20  O   UNL     4     -11.854  11.404  66.721  1.00  0.00    -0.443 OA 
HETATM   21  O   UNL     4     -10.468  14.349  65.018  1.00  0.00    -0.388 OA 
HETATM   22  O   UNL     4     -12.588  13.468  64.969  1.00  0.00    -0.542 OA 
ENDBRANCH  14  17
ENDBRANCH  11  14
ENDBRANCH   8  11
ENDBRANCH   3   8
BRANCH   7  23
HETATM   23  C   UNL     5      -9.204   6.350  69.168  1.00  0.00    -0.133 C  
HETATM   24  O   UNL     5      -8.272   5.473  68.534  1.00  0.00    -0.098 OA 
HETATM   25  H   UNL     5      -8.332   5.604  67.595  1.00  0.00     0.000 HD 
BRANCH  23  26
HETATM   26  C   UNL     5     -10.638   6.110  68.648  1.00  0.00    -0.270 C  
HETATM   27  O   UNL     5     -11.589   6.636  69.602  1.00  0.00    -0.572 OA 
HETATM   28  H   UNL     5     -12.471   6.489  69.281  1.00  0.00     0.000 HD 
BRANCH  26  29
HETATM   29  C   UNL     5     -10.984   6.603  67.215  1.00  0.00    -0.385 C  
HETATM   30  O   UNL     5     -10.573   5.689  66.199  1.00  0.00    -0.458 OA 
HETATM   31  H   UNL     5     -10.784   5.990  65.323  1.00  0.00     0.000 HD 
BRANCH  29  32
HETATM   32  C   UNL     5     -10.623   8.051  66.846  1.00  0.00    -0.254 C  
HETATM   33  C   UNL     5      -9.165   8.292  66.403  1.00  0.00    -0.195 C  
HETATM   34  O   UNL     5     -10.977   8.965  67.944  1.00  0.00    -0.488 OA 
HETATM   35  O   UNL     5      -8.597   7.364  65.753  1.00  0.00    -0.147 OA 
HETATM   36  O   UNL     5      -8.681   9.404  66.821  1.00  0.00    -0.126 OA 
HETATM   37  H   UNL     5     -10.754   9.860  67.717  1.00  0.00     0.000 HD 
ENDBRANCH  29  32
ENDBRANCH  26  29
ENDBRANCH  23  26
ENDBRANCH   7  23
TORSDOF 8
ENDMDL
MODEL      260
REMARK 921   NORMALIZED FREE ENERGY PREDICTED BY IDOCK:   -4.90 KCAL/MOL
REMARK 922        TOTAL FREE ENERGY PREDICTED BY IDOCK:   -9.43 KCAL/MOL
REMARK 923 INTER-LIGAND FREE ENERGY PREDICTED BY IDOCK:   -8.00 KCAL/MOL
REMARK 924 INTRA-LIGAND FREE ENERGY PREDICTED BY IDOCK:   -1.43 KCAL/MOL
REMARK 927      BINDING AFFINITY PREDICTED BY RF-SCORE:    0.00 PKD
ROOT
HETATM    1 MG   UNL     3     -13.478  10.344  69.703  1.00  0.00    -0.542 Mg 
HETATM    2  O   UNL     4     -10.930   5.283  72.234  1.00  0.00    -0.228 OA 
HETATM    3  C   UNL     4     -10.788   6.637  71.849  1.00  0.00    -0.236 C  
HETATM    4  H   UNL     4     -11.036   5.173  73.172  1.00  0.00     0.000 HD 
HETATM    5  O   UNL     5     -12.657  13.885  62.921  1.00  0.00    -0.966 OA 
HETATM    6  H   UNL     5     -13.257  13.540  62.270  1.00  0.00     0.000 HD 
HETATM    7  C   UNL     5     -11.954  12.844  63.598  1.00  0.00    -0.541 C  
ENDROOT
BRANCH   3   8
HETATM    8  C   UNL     4     -10.617   6.813  70.333  1.00  0.00    -0.227 C  
HETATM    9  O   UNL     4     -11.886   6.626  69.678  1.00  0.00    -0.649 OA 
HETATM   10  H   UNL     4     -11.780   6.735  68.740  1.00  0.00     0.000 HD 
BRANCH   8  11
HETATM   11  C   UNL     4     -10.037   8.154  69.795  1.00  0.00    -0.197 C  
HETATM   12  O   UNL     4     -10.770   9.297  70.223  1.00  0.00    -0.215 OA 
HETATM   13  H   UNL     4     -10.415  10.114  69.894  1.00  0.00     0.000 HD 
BRANCH  11  14
HETATM   14  C   UNL     4      -8.506   8.385  69.915  1.00  0.00    -0.126 C  
HETATM   15  H   UNL     4      -6.950   7.213  70.064  1.00  0.00     0.000 HD 
HETATM   16  O   UNL     4      -7.886   7.072  69.991  1.00  0.00    -0.108 OA 
BRANCH  14  17
HETATM   17  C   UNL     4      -7.943   9.320  71.022  1.00  0.00    -0.069 C  
HETATM   18  C   UNL     4      -6.390   9.591  70.861  1.00  0.00    -0.089 C  
HETATM   19  H   UNL     4      -8.000   9.476  73.014  1.00  0.00     0.000 HD 
HETATM   20  O   UNL     4      -8.344   8.905  72.338  1.00  0.00    -0.386 OA 
HETATM   21  O   UNL     4      -6.006   9.716  69.622  1.00  0.00    -0.036 OA 
HETATM   22  O   UNL     4      -5.657   9.575  71.888  1.00  0.00    -0.076 OA 
ENDBRANCH  14  17
ENDBRANCH  11  14
ENDBRANCH   8  11
ENDBRANCH   3   8
BRANCH   7  23
HETATM   23  C   UNL     5     -10.980  13.405  64.654  1.00  0.00    -0.377 C  
HETATM   24  O   UNL     5     -11.100  14.828  64.663  1.00  0.00    -0.510 OA 
HETATM   25  H   UNL     5     -10.500  15.174  65.313  1.00  0.00     0.000 HD 
BRANCH  23  26
HETATM   26  C   UNL     5     -11.254  12.815  66.054  1.00  0.00    -0.299 C  
HETATM   27  O   UNL     5     -10.496  11.595  66.217  1.00  0.00    -0.230 OA 
HETATM   28  H   UNL     5     -10.664  11.232  67.079  1.00  0.00     0.000 HD 
BRANCH  26  29
HETATM   29  C   UNL     5     -11.055  13.741  67.286  1.00  0.00    -0.304 C  
HETATM   30  O   UNL     5     -11.780  14.966  67.184  1.00  0.00    -0.356 OA 
HETATM   31  H   UNL     5     -11.658  15.532  67.937  1.00  0.00     0.000 HD 
BRANCH  29  32
HETATM   32  C   UNL     5      -9.619  13.981  67.780  1.00  0.00    -0.216 C  
HETATM   33  C   UNL     5      -9.417  15.195  68.711  1.00  0.00    -0.209 C  
HETATM   34  O   UNL     5      -8.689  14.055  66.641  1.00  0.00    -0.416 OA 
HETATM   35  O   UNL     5     -10.363  15.477  69.505  1.00  0.00    -0.234 OA 
HETATM   36  O   UNL     5      -8.315  15.818  68.506  1.00  0.00    -0.160 OA 
HETATM   37  H   UNL     5      -7.802  14.203  66.946  1.00  0.00     0.000 HD 
ENDBRANCH  29  32
ENDBRANCH  26  29
ENDBRANCH  23  26
ENDBRANCH   7  23
TORSDOF 8
ENDMDL
MODEL      261
REMARK 921   NORMALIZED FREE ENERGY PREDICTED BY IDOCK:   -4.90 KCAL/MOL
REMARK 922        TOTAL FREE ENERGY PREDICTED BY IDOCK:   -9.43 KCAL/MOL
REMARK 923 INTER-LIGAND FREE ENERGY PREDICTED BY IDOCK:   -8.43 KCAL/MOL
REMARK 924 INTRA-LIGAND FREE ENERGY PREDICTED BY IDOCK:   -1.00 KCAL/MOL
REMARK 927      BINDING AFFINITY PREDICTED BY RF-SCORE:    0.00 PKD
ROOT
HETATM    1 MG   UNL     3     -10.529   9.779  66.021  1.00  0.00    -0.224 Mg 
HETATM    2  O   UNL     4     -12.392  15.187  63.611  1.00  0.00    -0.982 OA 
HETATM    3  C   UNL     4     -11.644  14.504  64.599  1.00  0.00    -0.408 C  
HETATM    4  H   UNL     4     -11.848  15.561  62.928  1.00  0.00     0.000 HD 
HETATM    5  O   UNL     5     -12.429   5.845  72.355  1.00  0.00    -0.464 OA 
HETATM    6  H   UNL     5     -13.160   5.259  72.197  1.00  0.00     0.000 HD 
HETATM    7  C   UNL     5     -12.696   7.163  71.878  1.00  0.00    -0.277 C  
ENDROOT
BRANCH   3   8
HETATM    8  C   UNL     4     -12.523  13.899  65.703  1.00  0.00    -0.505 C  
HETATM    9  O   UNL     4     -12.663  12.482  65.489  1.00  0.00    -0.583 OA 
HETATM   10  H   UNL     4     -13.207  12.108  66.172  1.00  0.00     0.000 HD 
BRANCH   8  11
HETATM   11  C   UNL     4     -12.092  14.080  67.188  1.00  0.00    -0.401 C  
HETATM   12  O   UNL     4     -11.917  12.847  67.878  1.00  0.00    -0.349 OA 
HETATM   13  H   UNL     4     -11.654  12.957  68.784  1.00  0.00     0.000 HD 
BRANCH  11  14
HETATM   14  C   UNL     4     -10.935  15.070  67.496  1.00  0.00    -0.307 C  
HETATM   15  H   UNL     4      -9.078  14.873  68.068  1.00  0.00     0.000 HD 
HETATM   16  O   UNL     4      -9.785  14.267  67.880  1.00  0.00    -0.213 OA 
BRANCH  14  17
HETATM   17  C   UNL     4     -11.152  16.233  68.506  1.00  0.00    -0.368 C  
HETATM   18  C   UNL     4     -10.416  17.566  68.068  1.00  0.00    -0.387 C  
HETATM   19  H   UNL     4     -11.034  16.537  70.478  1.00  0.00     0.000 HD 
HETATM   20  O   UNL     4     -10.901  15.827  69.861  1.00  0.00    -0.271 OA 
HETATM   21  O   UNL     4     -10.443  17.782  66.784  1.00  0.00    -0.340 OA 
HETATM   22  O   UNL     4      -9.805  18.241  68.942  1.00  0.00    -0.362 OA 
ENDBRANCH  14  17
ENDBRANCH  11  14
ENDBRANCH   8  11
ENDBRANCH   3   8
BRANCH   7  23
HETATM   23  C   UNL     5     -11.509   8.115  72.134  1.00  0.00    -0.350 C  
HETATM   24  O   UNL     5     -10.713   7.565  73.185  1.00  0.00    -0.348 OA 
HETATM   25  H   UNL     5      -9.982   8.151  73.343  1.00  0.00     0.000 HD 
BRANCH  23  26
HETATM   26  C   UNL     5     -10.669   8.337  70.857  1.00  0.00    -0.218 C  
HETATM   27  O   UNL     5      -9.965   9.595  70.960  1.00  0.00    -0.276 OA 
HETATM   28  H   UNL     5      -9.448   9.731  70.174  1.00  0.00     0.000 HD 
BRANCH  26  29
HETATM   29  C   UNL     5      -9.693   7.207  70.423  1.00  0.00    -0.176 C  
HETATM   30  O   UNL     5     -10.275   5.907  70.509  1.00  0.00    -0.189 OA 
HETATM   31  H   UNL     5      -9.678   5.216  70.244  1.00  0.00     0.000 HD 
BRANCH  29  32
HETATM   32  C   UNL     5      -8.271   7.224  71.005  1.00  0.00    -0.107 C  
HETATM   33  C   UNL     5      -7.526   5.873  71.010  1.00  0.00    -0.094 C  
HETATM   34  O   UNL     5      -8.274   7.806  72.357  1.00  0.00    -0.105 OA 
HETATM   35  O   UNL     5      -7.754   5.084  70.045  1.00  0.00    -0.061 OA 
HETATM   36  O   UNL     5      -6.805   5.691  72.055  1.00  0.00    -0.067 OA 
HETATM   37  H   UNL     5      -7.396   7.817  72.716  1.00  0.00     0.000 HD 
ENDBRANCH  29  32
ENDBRANCH  26  29
ENDBRANCH  23  26
ENDBRANCH   7  23
TORSDOF 8
ENDMDL
MODEL      262
REMARK 921   NORMALIZED FREE ENERGY PREDICTED BY IDOCK:   -4.88 KCAL/MOL
REMARK 922        TOTAL FREE ENERGY PREDICTED BY IDOCK:   -9.41 KCAL/MOL
REMARK 923 INTER-LIGAND FREE ENERGY PREDICTED BY IDOCK:   -7.44 KCAL/MOL
REMARK 924 INTRA-LIGAND FREE ENERGY PREDICTED BY IDOCK:   -1.96 KCAL/MOL
REMARK 927      BINDING AFFINITY PREDICTED BY RF-SCORE:    0.00 PKD
ROOT
HETATM    1 MG   UNL     3      -9.952   3.733  69.467  1.00  0.00    -0.169 Mg 
HETATM    2  O   UNL     4      -8.946   2.749  63.422  1.00  0.00    -0.092 OA 
HETATM    3  C   UNL     4      -8.691   3.531  64.572  1.00  0.00    -0.101 C  
HETATM    4  H   UNL     4      -8.223   2.175  63.196  1.00  0.00     0.000 HD 
HETATM    5  O   UNL     5     -14.073   8.908  73.397  1.00  0.00    -1.256 OA 
HETATM    6  H   UNL     5     -14.966   8.615  73.532  1.00  0.00     0.000 HD 
HETATM    7  C   UNL     5     -13.672   8.774  72.034  1.00  0.00    -0.443 C  
ENDROOT
BRANCH   3   8
HETATM    8  C   UNL     4      -9.860   4.458  64.937  1.00  0.00    -0.133 C  
HETATM    9  O   UNL     4     -11.071   3.970  64.331  1.00  0.00    -0.655 OA 
HETATM   10  H   UNL     4     -11.795   4.543  64.557  1.00  0.00     0.000 HD 
BRANCH   8  11
HETATM   11  C   UNL     4     -10.185   4.699  66.441  1.00  0.00    -0.260 C  
HETATM   12  O   UNL     4      -9.921   3.566  67.262  1.00  0.00    -0.269 OA 
HETATM   13  H   UNL     4     -10.119   3.714  68.179  1.00  0.00     0.000 HD 
BRANCH  11  14
HETATM   14  C   UNL     4      -9.668   6.008  67.097  1.00  0.00    -0.131 C  
HETATM   15  H   UNL     4     -10.141   7.897  66.945  1.00  0.00     0.000 HD 
HETATM   16  O   UNL     4     -10.457   7.096  66.544  1.00  0.00    -0.167 OA 
BRANCH  14  17
HETATM   17  C   UNL     4      -8.152   6.355  67.055  1.00  0.00    -0.112 C  
HETATM   18  C   UNL     4      -7.421   6.061  68.430  1.00  0.00    -0.086 C  
HETATM   19  H   UNL     4      -6.986   7.878  66.493  1.00  0.00     0.000 HD 
HETATM   20  O   UNL     4      -7.912   7.666  66.518  1.00  0.00    -0.102 OA 
HETATM   21  O   UNL     4      -7.843   4.984  69.028  1.00  0.00    -0.079 OA 
HETATM   22  O   UNL     4      -6.589   6.901  68.871  1.00  0.00    -0.041 OA 
ENDBRANCH  14  17
ENDBRANCH  11  14
ENDBRANCH   8  11
ENDBRANCH   3   8
BRANCH   7  23
HETATM   23  C   UNL     5     -12.222   9.250  71.814  1.00  0.00    -0.385 C  
HETATM   24  O   UNL     5     -11.366   8.106  71.838  1.00  0.00    -0.263 OA 
HETATM   25  H   UNL     5     -10.473   8.399  71.703  1.00  0.00     0.000 HD 
BRANCH  23  26
HETATM   26  C   UNL     5     -12.071  10.030  70.490  1.00  0.00    -0.251 C  
HETATM   27  O   UNL     5     -12.126  11.449  70.761  1.00  0.00    -0.363 OA 
HETATM   28  H   UNL     5     -12.033  11.929  69.946  1.00  0.00     0.000 HD 
BRANCH  26  29
HETATM   29  C   UNL     5     -10.848   9.702  69.588  1.00  0.00    -0.244 C  
HETATM   30  O   UNL     5      -9.601  10.002  70.212  1.00  0.00    -0.380 OA 
HETATM   31  H   UNL     5      -8.853   9.802  69.661  1.00  0.00     0.000 HD 
BRANCH  29  32
HETATM   32  C   UNL     5     -10.878  10.192  68.131  1.00  0.00    -0.262 C  
HETATM   33  C   UNL     5      -9.601  10.898  67.629  1.00  0.00    -0.163 C  
HETATM   34  O   UNL     5     -12.054  11.047  67.900  1.00  0.00    -0.721 OA 
HETATM   35  O   UNL     5      -8.494  10.482  68.083  1.00  0.00    -0.117 OA 
HETATM   36  O   UNL     5      -9.838  11.887  66.847  1.00  0.00    -0.198 OA 
HETATM   37  H   UNL     5     -12.073  11.349  67.000  1.00  0.00     0.000 HD 
ENDBRANCH  29  32
ENDBRANCH  26  29
ENDBRANCH  23  26
ENDBRANCH   7  23
TORSDOF 8
ENDMDL
MODEL      263
REMARK 921   NORMALIZED FREE ENERGY PREDICTED BY IDOCK:   -4.88 KCAL/MOL
REMARK 922        TOTAL FREE ENERGY PREDICTED BY IDOCK:   -9.41 KCAL/MOL
REMARK 923 INTER-LIGAND FREE ENERGY PREDICTED BY IDOCK:   -7.73 KCAL/MOL
REMARK 924 INTRA-LIGAND FREE ENERGY PREDICTED BY IDOCK:   -1.67 KCAL/MOL
REMARK 927      BINDING AFFINITY PREDICTED BY RF-SCORE:    0.00 PKD
ROOT
HETATM    1 MG   UNL     3      -9.958   9.299  64.281  1.00  0.00    -0.406 Mg 
HETATM    2  O   UNL     4     -12.109  15.093  63.708  1.00  0.00    -0.939 OA 
HETATM    3  C   UNL     4     -11.133  14.219  64.242  1.00  0.00    -0.087 C  
HETATM    4  H   UNL     4     -11.790  15.597  62.968  1.00  0.00     0.000 HD 
HETATM    5  O   UNL     5      -9.987   4.159  70.007  1.00  0.00    -0.213 OA 
HETATM    6  H   UNL     5     -10.769   3.621  69.990  1.00  0.00     0.000 HD 
HETATM    7  C   UNL     5     -10.298   5.549  69.907  1.00  0.00    -0.298 C  
ENDROOT
BRANCH   3   8
HETATM    8  C   UNL     4     -11.649  13.405  65.437  1.00  0.00    -0.314 C  
HETATM    9  O   UNL     4     -10.808  12.253  65.637  1.00  0.00    -0.268 OA 
HETATM   10  H   UNL     4     -11.127  11.748  66.376  1.00  0.00     0.000 HD 
BRANCH   8  11
HETATM   11  C   UNL     4     -11.776  14.103  66.822  1.00  0.00    -0.410 C  
HETATM   12  O   UNL     4     -12.101  13.205  67.878  1.00  0.00    -0.321 OA 
HETATM   13  H   UNL     4     -12.179  13.632  68.723  1.00  0.00     0.000 HD 
BRANCH  11  14
HETATM   14  C   UNL     4     -10.657  15.093  67.245  1.00  0.00    -0.286 C  
HETATM   15  H   UNL     4      -8.807  14.897  67.841  1.00  0.00     0.000 HD 
HETATM   16  O   UNL     4      -9.492  14.292  67.582  1.00  0.00    -0.203 OA 
BRANCH  14  17
HETATM   17  C   UNL     4     -10.930  16.154  68.349  1.00  0.00    -0.341 C  
HETATM   18  C   UNL     4     -10.383  17.590  67.964  1.00  0.00    -0.368 C  
HETATM   19  H   UNL     4     -10.704  16.340  70.326  1.00  0.00     0.000 HD 
HETATM   20  O   UNL     4     -10.537  15.693  69.651  1.00  0.00    -0.239 OA 
HETATM   21  O   UNL     4     -10.528  17.886  66.704  1.00  0.00    -0.354 OA 
HETATM   22  O   UNL     4      -9.791  18.274  68.844  1.00  0.00    -0.362 OA 
ENDBRANCH  14  17
ENDBRANCH  11  14
ENDBRANCH   8  11
ENDBRANCH   3   8
BRANCH   7  23
HETATM   23  C   UNL     5      -9.028   6.423  69.934  1.00  0.00    -0.142 C  
HETATM   24  O   UNL     5      -7.925   5.625  69.500  1.00  0.00    -0.089 OA 
HETATM   25  H   UNL     5      -7.143   6.163  69.517  1.00  0.00     0.000 HD 
BRANCH  23  26
HETATM   26  C   UNL     5      -9.183   7.683  69.055  1.00  0.00    -0.140 C  
HETATM   27  O   UNL     5     -10.168   7.431  68.027  1.00  0.00    -0.175 OA 
HETATM   28  H   UNL     5     -10.264   8.207  67.486  1.00  0.00     0.000 HD 
BRANCH  26  29
HETATM   29  C   UNL     5      -9.478   9.034  69.764  1.00  0.00    -0.175 C  
HETATM   30  O   UNL     5      -8.558   9.321  70.816  1.00  0.00    -0.204 OA 
HETATM   31  H   UNL     5      -8.738  10.147  71.250  1.00  0.00     0.000 HD 
BRANCH  29  32
HETATM   32  C   UNL     5     -10.927   9.318  70.194  1.00  0.00    -0.246 C  
HETATM   33  C   UNL     5     -11.645  10.456  69.438  1.00  0.00    -0.202 C  
HETATM   34  O   UNL     5     -10.996   9.551  71.646  1.00  0.00    -0.362 OA 
HETATM   35  O   UNL     5     -11.358  10.607  68.214  1.00  0.00    -0.286 OA 
HETATM   36  O   UNL     5     -12.410  11.163  70.187  1.00  0.00    -0.304 OA 
HETATM   37  H   UNL     5     -11.890   9.727  71.912  1.00  0.00     0.000 HD 
ENDBRANCH  29  32
ENDBRANCH  26  29
ENDBRANCH  23  26
ENDBRANCH   7  23
TORSDOF 8
ENDMDL
MODEL      264
REMARK 921   NORMALIZED FREE ENERGY PREDICTED BY IDOCK:   -4.87 KCAL/MOL
REMARK 922        TOTAL FREE ENERGY PREDICTED BY IDOCK:   -9.39 KCAL/MOL
REMARK 923 INTER-LIGAND FREE ENERGY PREDICTED BY IDOCK:   -7.73 KCAL/MOL
REMARK 924 INTRA-LIGAND FREE ENERGY PREDICTED BY IDOCK:   -1.66 KCAL/MOL
REMARK 927      BINDING AFFINITY PREDICTED BY RF-SCORE:    0.00 PKD
ROOT
HETATM    1 MG   UNL     3     -10.838  14.804  71.524  1.00  0.00    -0.437 Mg 
HETATM    2  O   UNL     4     -11.893   8.689  71.571  1.00  0.00    -0.275 OA 
HETATM    3  C   UNL     4     -11.004   9.754  71.296  1.00  0.00    -0.261 C  
HETATM    4  H   UNL     4     -11.677   8.223  72.371  1.00  0.00     0.000 HD 
HETATM    5  O   UNL     5     -10.436  20.087  65.944  1.00  0.00    -0.474 OA 
HETATM    6  H   UNL     5     -11.287  20.466  65.758  1.00  0.00     0.000 HD 
HETATM    7  C   UNL     5     -10.486  18.661  65.971  1.00  0.00    -0.414 C  
ENDROOT
BRANCH   3   8
HETATM    8  C   UNL     4     -11.353  10.506  70.004  1.00  0.00    -0.318 C  
HETATM    9  O   UNL     4     -11.454  11.917  70.278  1.00  0.00    -0.515 OA 
HETATM   10  H   UNL     4     -11.671  12.382  69.478  1.00  0.00     0.000 HD 
BRANCH   8  11
HETATM   11  C   UNL     4     -10.410  10.362  68.774  1.00  0.00    -0.196 C  
HETATM   12  O   UNL     4     -11.015   9.686  67.677  1.00  0.00    -0.428 OA 
HETATM   13  H   UNL     4     -10.440   9.599  66.926  1.00  0.00     0.000 HD 
BRANCH  11  14
HETATM   14  C   UNL     4      -9.629  11.619  68.303  1.00  0.00    -0.198 C  
HETATM   15  H   UNL     4      -9.876  12.934  66.880  1.00  0.00     0.000 HD 
HETATM   16  O   UNL     4     -10.354  12.165  67.168  1.00  0.00    -0.212 OA 
BRANCH  14  17
HETATM   17  C   UNL     4      -8.109  11.519  67.985  1.00  0.00    -0.136 C  
HETATM   18  C   UNL     4      -7.330  12.862  68.303  1.00  0.00    -0.118 C  
HETATM   19  H   UNL     4      -6.937  10.920  66.482  1.00  0.00     0.000 HD 
HETATM   20  O   UNL     4      -7.865  10.981  66.676  1.00  0.00    -0.141 OA 
HETATM   21  O   UNL     4      -7.749  13.469  69.377  1.00  0.00     0.237 OA 
HETATM   22  O   UNL     4      -6.464  13.274  67.484  1.00  0.00    -0.164 OA 
ENDBRANCH  14  17
ENDBRANCH  11  14
ENDBRANCH   8  11
ENDBRANCH   3   8
BRANCH   7  23
HETATM   23  C   UNL     5      -9.104  18.047  66.272  1.00  0.00    -0.178 C  
HETATM   24  O   UNL     5      -8.100  18.981  65.870  1.00  0.00    -0.458 OA 
HETATM   25  H   UNL     5      -7.249  18.602  66.056  1.00  0.00     0.000 HD 
BRANCH  23  26
HETATM   26  C   UNL     5      -8.956  17.679  67.765  1.00  0.00    -0.247 C  
HETATM   27  O   UNL     5      -7.917  18.491  68.358  1.00  0.00    -0.296 OA 
HETATM   28  H   UNL     5      -7.826  18.265  69.276  1.00  0.00     0.000 HD 
BRANCH  26  29
HETATM   29  C   UNL     5     -10.232  17.708  68.651  1.00  0.00    -0.377 C  
HETATM   30  O   UNL     5     -10.301  18.860  69.491  1.00  0.00    -0.395 OA 
HETATM   31  H   UNL     5     -11.081  18.877  70.032  1.00  0.00     0.000 HD 
BRANCH  29  32
HETATM   32  C   UNL     5     -10.600  16.430  69.423  1.00  0.00    -0.317 C  
HETATM   33  C   UNL     5     -11.370  15.356  68.626  1.00  0.00    -0.330 C  
HETATM   34  O   UNL     5     -11.331  16.766  70.656  1.00  0.00    -0.483 OA 
HETATM   35  O   UNL     5     -11.087  15.236  67.397  1.00  0.00    -0.320 OA 
HETATM   36  O   UNL     5     -12.269  14.755  69.315  1.00  0.00    -0.277 OA 
HETATM   37  H   UNL     5     -11.558  15.977  71.133  1.00  0.00     0.000 HD 
ENDBRANCH  29  32
ENDBRANCH  26  29
ENDBRANCH  23  26
ENDBRANCH   7  23
TORSDOF 8
ENDMDL
MODEL      265
REMARK 921   NORMALIZED FREE ENERGY PREDICTED BY IDOCK:   -4.87 KCAL/MOL
REMARK 922        TOTAL FREE ENERGY PREDICTED BY IDOCK:   -9.39 KCAL/MOL
REMARK 923 INTER-LIGAND FREE ENERGY PREDICTED BY IDOCK:   -8.30 KCAL/MOL
REMARK 924 INTRA-LIGAND FREE ENERGY PREDICTED BY IDOCK:   -1.09 KCAL/MOL
REMARK 927      BINDING AFFINITY PREDICTED BY RF-SCORE:    0.00 PKD
ROOT
HETATM    1 MG   UNL     3      -6.877  11.203  65.164  1.00  0.00    -0.290 Mg 
HETATM    2  O   UNL     4      -8.472  17.161  65.851  1.00  0.00    -0.529 OA 
HETATM    3  C   UNL     4      -8.120  15.932  66.457  1.00  0.00    -0.235 C  
HETATM    4  H   UNL     4      -7.764  17.796  65.862  1.00  0.00     0.000 HD 
HETATM    5  O   UNL     5     -10.592   4.549  66.230  1.00  0.00    -0.391 OA 
HETATM    6  H   UNL     5     -11.054   4.276  65.446  1.00  0.00     0.000 HD 
HETATM    7  C   UNL     5     -10.864   5.911  66.558  1.00  0.00    -0.139 C  
ENDROOT
BRANCH   3   8
HETATM    8  C   UNL     4      -9.264  14.908  66.438  1.00  0.00    -0.284 C  
HETATM    9  O   UNL     4      -8.724  13.578  66.553  1.00  0.00    -0.441 OA 
HETATM   10  H   UNL     4      -9.432  12.944  66.541  1.00  0.00     0.000 HD 
BRANCH   8  11
HETATM   11  C   UNL     4     -10.390  15.020  67.508  1.00  0.00    -0.241 C  
HETATM   12  O   UNL     4     -10.583  16.348  67.983  1.00  0.00    -0.290 OA 
HETATM   13  H   UNL     4     -11.270  16.416  68.636  1.00  0.00     0.000 HD 
BRANCH  11  14
HETATM   14  C   UNL     4     -11.744  14.319  67.217  1.00  0.00    -0.395 C  
HETATM   15  H   UNL     4     -13.205  13.645  68.325  1.00  0.00     0.000 HD 
HETATM   16  O   UNL     4     -12.376  14.074  68.503  1.00  0.00    -0.265 OA 
BRANCH  14  17
HETATM   17  C   UNL     4     -11.786  13.040  66.334  1.00  0.00    -0.405 C  
HETATM   18  C   UNL     4     -12.612  13.247  64.997  1.00  0.00    -0.423 C  
HETATM   19  H   UNL     4     -12.177  11.091  66.549  1.00  0.00     0.000 HD 
HETATM   20  O   UNL     4     -12.152  11.873  67.088  1.00  0.00    -0.590 OA 
HETATM   21  O   UNL     4     -12.455  14.424  64.461  1.00  0.00    -0.608 OA 
HETATM   22  O   UNL     4     -13.398  12.336  64.617  1.00  0.00    -0.717 OA 
ENDBRANCH  14  17
ENDBRANCH  11  14
ENDBRANCH   8  11
ENDBRANCH   3   8
BRANCH   7  23
HETATM   23  C   UNL     5     -10.114   6.353  67.830  1.00  0.00    -0.148 C  
HETATM   24  O   UNL     5      -8.988   5.492  68.009  1.00  0.00    -0.109 OA 
HETATM   25  H   UNL     5      -8.526   5.765  68.793  1.00  0.00     0.000 HD 
BRANCH  23  26
HETATM   26  C   UNL     5      -9.676   7.832  67.750  1.00  0.00    -0.153 C  
HETATM   27  O   UNL     5     -10.807   8.683  68.043  1.00  0.00    -0.458 OA 
HETATM   28  H   UNL     5     -10.538   9.593  67.993  1.00  0.00     0.000 HD 
BRANCH  26  29
HETATM   29  C   UNL     5      -8.441   8.272  68.585  1.00  0.00    -0.125 C  
HETATM   30  O   UNL     5      -7.205   8.064  67.901  1.00  0.00    -0.087 OA 
HETATM   31  H   UNL     5      -6.450   8.333  68.412  1.00  0.00     0.000 HD 
BRANCH  29  32
HETATM   32  C   UNL     5      -8.358   7.803  70.047  1.00  0.00    -0.130 C  
HETATM   33  C   UNL     5      -9.090   8.683  71.082  1.00  0.00    -0.209 C  
HETATM   34  O   UNL     5      -6.954   7.611  70.446  1.00  0.00    -0.046 OA 
HETATM   35  O   UNL     5     -10.163   9.244  70.707  1.00  0.00    -0.241 OA 
HETATM   36  O   UNL     5      -8.463   8.789  72.196  1.00  0.00    -0.351 OA 
HETATM   37  H   UNL     5      -6.902   7.322  71.349  1.00  0.00     0.000 HD 
ENDBRANCH  29  32
ENDBRANCH  26  29
ENDBRANCH  23  26
ENDBRANCH   7  23
TORSDOF 8
ENDMDL
MODEL      266
REMARK 921   NORMALIZED FREE ENERGY PREDICTED BY IDOCK:   -4.86 KCAL/MOL
REMARK 922        TOTAL FREE ENERGY PREDICTED BY IDOCK:   -9.38 KCAL/MOL
REMARK 923 INTER-LIGAND FREE ENERGY PREDICTED BY IDOCK:   -8.11 KCAL/MOL
REMARK 924 INTRA-LIGAND FREE ENERGY PREDICTED BY IDOCK:   -1.27 KCAL/MOL
REMARK 927      BINDING AFFINITY PREDICTED BY RF-SCORE:    0.00 PKD
ROOT
HETATM    1 MG   UNL     3     -12.395  11.151  69.014  1.00  0.00    -0.284 Mg 
HETATM    2  O   UNL     4     -11.436  12.990  63.165  1.00  0.00    -0.743 OA 
HETATM    3  C   UNL     4     -11.913  11.996  64.051  1.00  0.00    -0.403 C  
HETATM    4  H   UNL     4     -12.134  13.484  62.751  1.00  0.00     0.000 HD 
HETATM    5  O   UNL     5      -8.951   6.029  73.610  1.00  0.00    -0.128 OA 
HETATM    6  H   UNL     5      -8.234   6.419  74.094  1.00  0.00     0.000 HD 
HETATM    7  C   UNL     5      -8.877   6.333  72.217  1.00  0.00    -0.136 C  
ENDROOT
BRANCH   3   8
HETATM    8  C   UNL     4     -10.784  11.198  64.719  1.00  0.00    -0.264 C  
HETATM    9  O   UNL     4      -9.509  11.678  64.251  1.00  0.00    -0.400 OA 
HETATM   10  H   UNL     4      -8.810  11.184  64.665  1.00  0.00     0.000 HD 
BRANCH   8  11
HETATM   11  C   UNL     4     -10.702  11.173  66.274  1.00  0.00    -0.240 C  
HETATM   12  O   UNL     4     -11.863  11.699  66.907  1.00  0.00    -0.577 OA 
HETATM   13  H   UNL     4     -11.813  11.683  67.855  1.00  0.00     0.000 HD 
BRANCH  11  14
HETATM   14  C   UNL     4     -10.229   9.861  66.957  1.00  0.00    -0.233 C  
HETATM   15  H   UNL     4     -10.242   9.189  68.791  1.00  0.00     0.000 HD 
HETATM   16  O   UNL     4     -10.531   9.991  68.373  1.00  0.00    -0.185 OA 
BRANCH  14  17
HETATM   17  C   UNL     4      -8.771   9.358  66.753  1.00  0.00    -0.127 C  
HETATM   18  C   UNL     4      -7.719  10.542  66.692  1.00  0.00    -0.123 C  
HETATM   19  H   UNL     4      -7.780   8.104  65.553  1.00  0.00     0.000 HD 
HETATM   20  O   UNL     4      -8.670   8.412  65.677  1.00  0.00    -0.165 OA 
HETATM   21  O   UNL     4      -7.980  11.517  67.515  1.00  0.00    -0.122 OA 
HETATM   22  O   UNL     4      -6.801  10.499  65.828  1.00  0.00    -0.130 OA 
ENDBRANCH  14  17
ENDBRANCH  11  14
ENDBRANCH   8  11
ENDBRANCH   3   8
BRANCH   7  23
HETATM   23  C   UNL     5     -10.042   5.698  71.430  1.00  0.00    -0.200 C  
HETATM   24  O   UNL     5      -9.836   4.285  71.389  1.00  0.00    -0.177 OA 
HETATM   25  H   UNL     5     -10.554   3.894  70.904  1.00  0.00     0.000 HD 
BRANCH  23  26
HETATM   26  C   UNL     5     -11.410   6.044  72.058  1.00  0.00    -0.290 C  
HETATM   27  O   UNL     5     -11.244   6.263  73.477  1.00  0.00    -0.450 OA 
HETATM   28  H   UNL     5     -12.086   6.476  73.863  1.00  0.00     0.000 HD 
BRANCH  26  29
HETATM   29  C   UNL     5     -12.228   7.204  71.425  1.00  0.00    -0.362 C  
HETATM   30  O   UNL     5     -12.294   7.126  70.002  1.00  0.00    -0.460 OA 
HETATM   31  H   UNL     5     -12.795   7.835  69.615  1.00  0.00     0.000 HD 
BRANCH  29  32
HETATM   32  C   UNL     5     -11.925   8.636  71.894  1.00  0.00    -0.356 C  
HETATM   33  C   UNL     5     -13.131   9.596  71.959  1.00  0.00    -0.445 C  
HETATM   34  O   UNL     5     -10.849   9.227  71.081  1.00  0.00    -0.280 OA 
HETATM   35  O   UNL     5     -14.249   9.098  72.286  1.00  0.00    -0.412 OA 
HETATM   36  O   UNL     5     -12.850  10.794  71.596  1.00  0.00    -0.421 OA 
HETATM   37  H   UNL     5     -10.662  10.111  71.370  1.00  0.00     0.000 HD 
ENDBRANCH  29  32
ENDBRANCH  26  29
ENDBRANCH  23  26
ENDBRANCH   7  23
TORSDOF 8
ENDMDL
MODEL      267
REMARK 921   NORMALIZED FREE ENERGY PREDICTED BY IDOCK:   -4.85 KCAL/MOL
REMARK 922        TOTAL FREE ENERGY PREDICTED BY IDOCK:   -9.36 KCAL/MOL
REMARK 923 INTER-LIGAND FREE ENERGY PREDICTED BY IDOCK:   -7.72 KCAL/MOL
REMARK 924 INTRA-LIGAND FREE ENERGY PREDICTED BY IDOCK:   -1.63 KCAL/MOL
REMARK 927      BINDING AFFINITY PREDICTED BY RF-SCORE:    0.00 PKD
ROOT
HETATM    1 MG   UNL     3      -8.110  10.348  70.312  1.00  0.00    -0.163 Mg 
HETATM    2  O   UNL     4      -6.482   8.039  64.786  1.00  0.00    -0.048 OA 
HETATM    3  C   UNL     4      -6.566   9.161  65.644  1.00  0.00    -0.068 C  
HETATM    4  H   UNL     4      -5.598   7.698  64.708  1.00  0.00     0.000 HD 
HETATM    5  O   UNL     5     -13.927  14.772  72.720  1.00  0.00    -0.484 OA 
HETATM    6  H   UNL     5     -14.681  14.252  72.974  1.00  0.00     0.000 HD 
HETATM    7  C   UNL     5     -13.425  14.387  71.441  1.00  0.00    -0.351 C  
ENDROOT
BRANCH   3   8
HETATM    8  C   UNL     4      -7.994   9.711  65.770  1.00  0.00    -0.109 C  
HETATM    9  O   UNL     4      -8.198  10.226  67.099  1.00  0.00    -0.120 OA 
HETATM   10  H   UNL     4      -9.082  10.566  67.178  1.00  0.00     0.000 HD 
BRANCH   8  11
HETATM   11  C   UNL     4      -8.458  10.827  64.789  1.00  0.00    -0.038 C  
HETATM   12  O   UNL     4      -7.656  10.914  63.616  1.00  0.00    -0.337 OA 
HETATM   13  H   UNL     4      -7.939  11.595  63.017  1.00  0.00     0.000 HD 
BRANCH  11  14
HETATM   14  C   UNL     4      -9.970  10.916  64.449  1.00  0.00    -0.322 C  
HETATM   15  H   UNL     4     -11.084  10.278  62.976  1.00  0.00     0.000 HD 
HETATM   16  O   UNL     4     -10.159  10.224  63.184  1.00  0.00    -0.067 OA 
BRANCH  14  17
HETATM   17  C   UNL     4     -10.685  12.297  64.428  1.00  0.00    -0.331 C  
HETATM   18  C   UNL     4     -11.882  12.380  65.464  1.00  0.00    -0.412 C  
HETATM   19  H   UNL     4     -11.454  13.559  63.082  1.00  0.00     0.000 HD 
HETATM   20  O   UNL     4     -11.018  12.715  63.095  1.00  0.00    -0.289 OA 
HETATM   21  O   UNL     4     -11.645  11.767  66.589  1.00  0.00    -0.490 OA 
HETATM   22  O   UNL     4     -12.961  12.928  65.107  1.00  0.00    -0.758 OA 
ENDBRANCH  14  17
ENDBRANCH  11  14
ENDBRANCH   8  11
ENDBRANCH   3   8
BRANCH   7  23
HETATM   23  C   UNL     5     -12.202  15.231  71.030  1.00  0.00    -0.350 C  
HETATM   24  O   UNL     5     -11.290  15.263  72.129  1.00  0.00    -0.442 OA 
HETATM   25  H   UNL     5     -10.536  15.783  71.876  1.00  0.00     0.000 HD 
BRANCH  23  26
HETATM   26  C   UNL     5     -11.523  14.672  69.760  1.00  0.00    -0.282 C  
HETATM   27  O   UNL     5     -11.947  13.306  69.552  1.00  0.00    -0.307 OA 
HETATM   28  H   UNL     5     -11.530  12.962  68.771  1.00  0.00     0.000 HD 
BRANCH  26  29
HETATM   29  C   UNL     5     -11.662  15.485  68.443  1.00  0.00    -0.309 C  
HETATM   30  O   UNL     5     -12.298  14.748  67.399  1.00  0.00    -0.517 OA 
HETATM   31  H   UNL     5     -12.383  15.245  66.594  1.00  0.00     0.000 HD 
BRANCH  29  32
HETATM   32  C   UNL     5     -10.423  16.233  67.925  1.00  0.00    -0.295 C  
HETATM   33  C   UNL     5      -9.151  15.381  67.731  1.00  0.00    -0.178 C  
HETATM   34  O   UNL     5     -10.129  17.395  68.780  1.00  0.00    -0.312 OA 
HETATM   35  O   UNL     5      -9.310  14.182  67.354  1.00  0.00    -0.202 OA 
HETATM   36  O   UNL     5      -8.071  15.995  68.053  1.00  0.00    -0.142 OA 
HETATM   37  H   UNL     5      -9.364  17.858  68.460  1.00  0.00     0.000 HD 
ENDBRANCH  29  32
ENDBRANCH  26  29
ENDBRANCH  23  26
ENDBRANCH   7  23
TORSDOF 8
ENDMDL
MODEL      268
REMARK 921   NORMALIZED FREE ENERGY PREDICTED BY IDOCK:   -4.84 KCAL/MOL
REMARK 922        TOTAL FREE ENERGY PREDICTED BY IDOCK:   -9.35 KCAL/MOL
REMARK 923 INTER-LIGAND FREE ENERGY PREDICTED BY IDOCK:   -7.26 KCAL/MOL
REMARK 924 INTRA-LIGAND FREE ENERGY PREDICTED BY IDOCK:   -2.09 KCAL/MOL
REMARK 927      BINDING AFFINITY PREDICTED BY RF-SCORE:    0.00 PKD
ROOT
HETATM    1 MG   UNL     3      -9.818   4.485  69.631  1.00  0.00    -0.119 Mg 
HETATM    2  O   UNL     4      -8.932   2.065  63.985  1.00  0.00    -0.091 OA 
HETATM    3  C   UNL     4      -8.591   3.054  64.936  1.00  0.00    -0.102 C  
HETATM    4  H   UNL     4      -8.276   1.381  63.909  1.00  0.00     0.000 HD 
HETATM    5  O   UNL     5     -13.343  10.822  72.206  1.00  0.00    -0.623 OA 
HETATM    6  H   UNL     5     -14.263  10.664  72.382  1.00  0.00     0.000 HD 
HETATM    7  C   UNL     5     -12.961  10.342  70.917  1.00  0.00    -0.387 C  
ENDROOT
BRANCH   3   8
HETATM    8  C   UNL     4      -9.652   4.159  65.057  1.00  0.00    -0.180 C  
HETATM    9  O   UNL     4     -10.954   3.612  64.776  1.00  0.00    -0.511 OA 
HETATM   10  H   UNL     4     -11.610   4.296  64.850  1.00  0.00     0.000 HD 
BRANCH   8  11
HETATM   11  C   UNL     4      -9.779   4.932  66.402  1.00  0.00    -0.189 C  
HETATM   12  O   UNL     4      -9.427   4.148  67.537  1.00  0.00    -0.162 OA 
HETATM   13  H   UNL     4      -9.504   4.621  68.358  1.00  0.00     0.000 HD 
BRANCH  11  14
HETATM   14  C   UNL     4      -9.168   6.356  66.485  1.00  0.00    -0.155 C  
HETATM   15  H   UNL     4      -8.098   7.461  65.280  1.00  0.00     0.000 HD 
HETATM   16  O   UNL     4      -8.472   6.589  65.229  1.00  0.00    -0.146 OA 
BRANCH  14  17
HETATM   17  C   UNL     4      -8.266   6.750  67.690  1.00  0.00    -0.119 C  
HETATM   18  C   UNL     4      -9.074   7.474  68.845  1.00  0.00    -0.140 C  
HETATM   19  H   UNL     4      -6.523   7.674  68.010  1.00  0.00     0.000 HD 
HETATM   20  O   UNL     4      -7.074   7.434  67.274  1.00  0.00    -0.079 OA 
HETATM   21  O   UNL     4     -10.267   6.988  69.034  1.00  0.00    -0.175 OA 
HETATM   22  O   UNL     4      -8.563   8.481  69.408  1.00  0.00    -0.125 OA 
ENDBRANCH  14  17
ENDBRANCH  11  14
ENDBRANCH   8  11
ENDBRANCH   3   8
BRANCH   7  23
HETATM   23  C   UNL     5     -11.467  10.599  70.631  1.00  0.00    -0.281 C  
HETATM   24  O   UNL     5     -10.701   9.635  71.355  1.00  0.00    -0.327 OA 
HETATM   25  H   UNL     5      -9.781   9.793  71.179  1.00  0.00     0.000 HD 
BRANCH  23  26
HETATM   26  C   UNL     5     -11.156  10.536  69.120  1.00  0.00    -0.250 C  
HETATM   27  O   UNL     5     -12.396  10.482  68.377  1.00  0.00    -0.700 OA 
HETATM   28  H   UNL     5     -12.204  10.444  67.447  1.00  0.00     0.000 HD 
BRANCH  26  29
HETATM   29  C   UNL     5     -10.219  11.624  68.524  1.00  0.00    -0.210 C  
HETATM   30  O   UNL     5      -8.883  11.536  69.017  1.00  0.00    -0.371 OA 
HETATM   31  H   UNL     5      -8.309  12.201  68.653  1.00  0.00     0.000 HD 
BRANCH  29  32
HETATM   32  C   UNL     5     -10.719  13.077  68.516  1.00  0.00    -0.255 C  
HETATM   33  C   UNL     5     -11.442  13.537  67.233  1.00  0.00    -0.339 C  
HETATM   34  O   UNL     5      -9.618  14.001  68.837  1.00  0.00    -0.371 OA 
HETATM   35  O   UNL     5     -12.143  12.675  66.624  1.00  0.00    -0.519 OA 
HETATM   36  O   UNL     5     -11.177  14.748  66.903  1.00  0.00    -0.332 OA 
HETATM   37  H   UNL     5      -9.926  14.899  68.832  1.00  0.00     0.000 HD 
ENDBRANCH  29  32
ENDBRANCH  26  29
ENDBRANCH  23  26
ENDBRANCH   7  23
TORSDOF 8
ENDMDL
MODEL      269
REMARK 921   NORMALIZED FREE ENERGY PREDICTED BY IDOCK:   -4.82 KCAL/MOL
REMARK 922        TOTAL FREE ENERGY PREDICTED BY IDOCK:   -9.32 KCAL/MOL
REMARK 923 INTER-LIGAND FREE ENERGY PREDICTED BY IDOCK:   -7.98 KCAL/MOL
REMARK 924 INTRA-LIGAND FREE ENERGY PREDICTED BY IDOCK:   -1.34 KCAL/MOL
REMARK 927      BINDING AFFINITY PREDICTED BY RF-SCORE:    0.00 PKD
ROOT
HETATM    1 MG   UNL     3      -8.154  11.190  69.992  1.00  0.00    -0.350 Mg 
HETATM    2  O   UNL     4      -6.615   5.429  71.712  1.00  0.00    -0.044 OA 
HETATM    3  C   UNL     4      -6.537   6.456  70.743  1.00  0.00    -0.053 C  
HETATM    4  H   UNL     4      -5.814   5.331  72.214  1.00  0.00     0.000 HD 
HETATM    5  O   UNL     5     -13.134  14.060  64.876  1.00  0.00    -0.693 OA 
HETATM    6  H   UNL     5     -13.993  14.193  65.259  1.00  0.00     0.000 HD 
HETATM    7  C   UNL     5     -12.625  12.756  65.155  1.00  0.00    -0.444 C  
ENDROOT
BRANCH   3   8
HETATM    8  C   UNL     4      -7.832   6.614  69.933  1.00  0.00    -0.115 C  
HETATM    9  O   UNL     4      -8.553   5.367  69.924  1.00  0.00    -0.104 OA 
HETATM   10  H   UNL     4      -9.354   5.465  69.422  1.00  0.00     0.000 HD 
BRANCH   8  11
HETATM   11  C   UNL     4      -8.853   7.710  70.356  1.00  0.00    -0.144 C  
HETATM   12  O   UNL     4      -8.731   8.914  69.605  1.00  0.00    -0.132 OA 
HETATM   13  H   UNL     4      -9.354   9.582  69.864  1.00  0.00     0.000 HD 
BRANCH  11  14
HETATM   14  C   UNL     4     -10.340   7.296  70.523  1.00  0.00    -0.206 C  
HETATM   15  H   UNL     4     -11.745   6.707  69.300  1.00  0.00     0.000 HD 
HETATM   16  O   UNL     4     -10.835   6.960  69.198  1.00  0.00    -0.233 OA 
BRANCH  14  17
HETATM   17  C   UNL     4     -11.335   8.240  71.257  1.00  0.00    -0.267 C  
HETATM   18  C   UNL     4     -12.675   7.505  71.679  1.00  0.00    -0.355 C  
HETATM   19  H   UNL     4     -12.136  10.053  70.999  1.00  0.00     0.000 HD 
HETATM   20  O   UNL     4     -11.528   9.476  70.552  1.00  0.00    -0.262 OA 
HETATM   21  O   UNL     4     -12.495   6.280  72.083  1.00  0.00    -0.291 OA 
HETATM   22  O   UNL     4     -13.775   8.099  71.513  1.00  0.00    -0.344 OA 
ENDBRANCH  14  17
ENDBRANCH  11  14
ENDBRANCH   8  11
ENDBRANCH   3   8
BRANCH   7  23
HETATM   23  C   UNL     5     -11.231  12.540  64.532  1.00  0.00    -0.325 C  
HETATM   24  O   UNL     5     -11.389  12.398  63.119  1.00  0.00    -0.681 OA 
HETATM   25  H   UNL     5     -10.530  12.265  62.736  1.00  0.00     0.000 HD 
BRANCH  23  26
HETATM   26  C   UNL     5     -10.269  13.700  64.871  1.00  0.00    -0.339 C  
HETATM   27  O   UNL     5     -10.841  14.946  64.413  1.00  0.00    -0.621 OA 
HETATM   28  H   UNL     5     -10.249  15.659  64.622  1.00  0.00     0.000 HD 
BRANCH  26  29
HETATM   29  C   UNL     5      -9.785  13.837  66.341  1.00  0.00    -0.294 C  
HETATM   30  O   UNL     5      -8.418  13.466  66.514  1.00  0.00    -0.421 OA 
HETATM   31  H   UNL     5      -8.122  13.550  67.413  1.00  0.00     0.000 HD 
BRANCH  29  32
HETATM   32  C   UNL     5     -10.671  13.243  67.448  1.00  0.00    -0.258 C  
HETATM   33  C   UNL     5     -11.654  14.220  68.126  1.00  0.00    -0.332 C  
HETATM   34  O   UNL     5      -9.843  12.571  68.464  1.00  0.00    -0.291 OA 
HETATM   35  O   UNL     5     -12.156  15.129  67.401  1.00  0.00    -0.093 OA 
HETATM   36  O   UNL     5     -11.786  14.020  69.386  1.00  0.00    -0.289 OA 
HETATM   37  H   UNL     5     -10.390  12.203  69.148  1.00  0.00     0.000 HD 
ENDBRANCH  29  32
ENDBRANCH  26  29
ENDBRANCH  23  26
ENDBRANCH   7  23
TORSDOF 8
ENDMDL
MODEL      270
REMARK 921   NORMALIZED FREE ENERGY PREDICTED BY IDOCK:   -4.81 KCAL/MOL
REMARK 922        TOTAL FREE ENERGY PREDICTED BY IDOCK:   -9.31 KCAL/MOL
REMARK 923 INTER-LIGAND FREE ENERGY PREDICTED BY IDOCK:   -7.49 KCAL/MOL
REMARK 924 INTRA-LIGAND FREE ENERGY PREDICTED BY IDOCK:   -1.81 KCAL/MOL
REMARK 927      BINDING AFFINITY PREDICTED BY RF-SCORE:    0.00 PKD
ROOT
HETATM    1 MG   UNL     3     -12.190   6.447  67.583  1.00  0.00    -0.573 Mg 
HETATM    2  O   UNL     4      -8.461   3.529  71.594  1.00  0.00    -0.074 OA 
HETATM    3  C   UNL     4      -9.361   4.591  71.342  1.00  0.00    -0.147 C  
HETATM    4  H   UNL     4      -8.848   2.830  72.108  1.00  0.00     0.000 HD 
HETATM    5  O   UNL     5     -11.657  13.048  63.663  1.00  0.00    -0.499 OA 
HETATM    6  H   UNL     5     -11.233  12.923  62.823  1.00  0.00     0.000 HD 
HETATM    7  C   UNL     5     -10.913  12.451  64.725  1.00  0.00    -0.301 C  
ENDROOT
BRANCH   3   8
HETATM    8  C   UNL     4      -8.735   5.721  70.512  1.00  0.00    -0.139 C  
HETATM    9  O   UNL     4      -7.700   5.184  69.667  1.00  0.00    -0.067 OA 
HETATM   10  H   UNL     4      -7.312   5.883  69.153  1.00  0.00     0.000 HD 
BRANCH   8  11
HETATM   11  C   UNL     4      -9.656   6.575  69.592  1.00  0.00    -0.147 C  
HETATM   12  O   UNL     4     -10.818   5.878  69.155  1.00  0.00    -0.308 OA 
HETATM   13  H   UNL     4     -11.380   6.399  68.595  1.00  0.00     0.000 HD 
BRANCH  11  14
HETATM   14  C   UNL     4      -9.999   8.020  70.045  1.00  0.00    -0.191 C  
HETATM   15  H   UNL     4      -9.233   9.272  71.335  1.00  0.00     0.000 HD 
HETATM   16  O   UNL     4      -9.022   8.388  71.057  1.00  0.00    -0.143 OA 
BRANCH  14  17
HETATM   17  C   UNL     4     -11.439   8.366  70.524  1.00  0.00    -0.179 C  
HETATM   18  C   UNL     4     -11.670   9.926  70.683  1.00  0.00    -0.323 C  
HETATM   19  H   UNL     4     -12.713   7.794  71.953  1.00  0.00     0.000 HD 
HETATM   20  O   UNL     4     -11.834   7.584  71.661  1.00  0.00    -0.270 OA 
HETATM   21  O   UNL     4     -11.081  10.639  69.766  1.00  0.00    -0.257 OA 
HETATM   22  O   UNL     4     -12.300  10.350  71.691  1.00  0.00    -0.370 OA 
ENDBRANCH  14  17
ENDBRANCH  11  14
ENDBRANCH   8  11
ENDBRANCH   3   8
BRANCH   7  23
HETATM   23  C   UNL     5     -11.601  12.654  66.090  1.00  0.00    -0.393 C  
HETATM   24  O   UNL     5     -11.661  11.391  66.754  1.00  0.00    -0.474 OA 
HETATM   25  H   UNL     5     -12.085  11.516  67.595  1.00  0.00     0.000 HD 
BRANCH  23  26
HETATM   26  C   UNL     5     -10.863  13.701  66.952  1.00  0.00    -0.283 C  
HETATM   27  O   UNL     5      -9.436  13.548  66.774  1.00  0.00    -0.254 OA 
HETATM   28  H   UNL     5      -8.982  14.192  67.305  1.00  0.00     0.000 HD 
BRANCH  26  29
HETATM   29  C   UNL     5     -11.268  15.193  66.790  1.00  0.00    -0.285 C  
HETATM   30  O   UNL     5     -10.510  15.869  65.786  1.00  0.00    -0.331 OA 
HETATM   31  H   UNL     5     -10.758  16.781  65.687  1.00  0.00     0.000 HD 
BRANCH  29  32
HETATM   32  C   UNL     5     -11.397  16.045  68.063  1.00  0.00    -0.266 C  
HETATM   33  C   UNL     5     -10.110  16.213  68.898  1.00  0.00    -0.238 C  
HETATM   34  O   UNL     5     -12.490  15.541  68.911  1.00  0.00    -0.590 OA 
HETATM   35  O   UNL     5      -9.014  16.270  68.265  1.00  0.00    -0.184 OA 
HETATM   36  O   UNL     5     -10.318  16.205  70.163  1.00  0.00    -0.209 OA 
HETATM   37  H   UNL     5     -12.569  16.067  69.697  1.00  0.00     0.000 HD 
ENDBRANCH  29  32
ENDBRANCH  26  29
ENDBRANCH  23  26
ENDBRANCH   7  23
TORSDOF 8
ENDMDL
MODEL      271
REMARK 921   NORMALIZED FREE ENERGY PREDICTED BY IDOCK:   -4.80 KCAL/MOL
REMARK 922        TOTAL FREE ENERGY PREDICTED BY IDOCK:   -9.29 KCAL/MOL
REMARK 923 INTER-LIGAND FREE ENERGY PREDICTED BY IDOCK:   -7.83 KCAL/MOL
REMARK 924 INTRA-LIGAND FREE ENERGY PREDICTED BY IDOCK:   -1.47 KCAL/MOL
REMARK 927      BINDING AFFINITY PREDICTED BY RF-SCORE:    0.00 PKD
ROOT
HETATM    1 MG   UNL     3      -6.900   8.795  67.174  1.00  0.00    -0.058 Mg 
HETATM    2  O   UNL     4      -7.332   5.097  72.139  1.00  0.00    -0.086 OA 
HETATM    3  C   UNL     4      -7.982   5.752  71.067  1.00  0.00    -0.115 C  
HETATM    4  H   UNL     4      -7.219   4.165  71.990  1.00  0.00     0.000 HD 
HETATM    5  O   UNL     5      -8.843  16.115  65.812  1.00  0.00    -0.362 OA 
HETATM    6  H   UNL     5      -8.136  16.711  66.030  1.00  0.00     0.000 HD 
HETATM    7  C   UNL     5      -9.100  15.191  66.869  1.00  0.00    -0.247 C  
ENDROOT
BRANCH   3   8
HETATM    8  C   UNL     4      -8.163   7.258  71.308  1.00  0.00    -0.106 C  
HETATM    9  O   UNL     4      -8.501   7.909  70.069  1.00  0.00    -0.130 OA 
HETATM   10  H   UNL     4      -8.612   8.841  70.218  1.00  0.00     0.000 HD 
BRANCH   8  11
HETATM   11  C   UNL     4      -9.214   7.729  72.355  1.00  0.00    -0.164 C  
HETATM   12  O   UNL     4      -8.751   8.795  73.177  1.00  0.00    -0.341 OA 
HETATM   13  H   UNL     4      -9.393   9.083  73.816  1.00  0.00     0.000 HD 
BRANCH  11  14
HETATM   14  C   UNL     4     -10.667   7.980  71.867  1.00  0.00    -0.251 C  
HETATM   15  H   UNL     4     -11.792   7.218  70.464  1.00  0.00     0.000 HD 
HETATM   16  O   UNL     4     -10.904   7.064  70.762  1.00  0.00    -0.234 OA 
BRANCH  14  17
HETATM   17  C   UNL     4     -11.126   9.418  71.493  1.00  0.00    -0.376 C  
HETATM   18  C   UNL     4     -12.695   9.609  71.617  1.00  0.00    -0.407 C  
HETATM   19  H   UNL     4     -10.847  10.737  70.018  1.00  0.00     0.000 HD 
HETATM   20  O   UNL     4     -10.567   9.859  70.246  1.00  0.00    -0.265 OA 
HETATM   21  O   UNL     4     -13.221   8.981  72.630  1.00  0.00    -0.443 OA 
HETATM   22  O   UNL     4     -13.305  10.247  70.715  1.00  0.00    -0.349 OA 
ENDBRANCH  14  17
ENDBRANCH  11  14
ENDBRANCH   8  11
ENDBRANCH   3   8
BRANCH   7  23
HETATM   23  C   UNL     5     -10.247  14.223  66.515  1.00  0.00    -0.276 C  
HETATM   24  O   UNL     5      -9.745  13.249  65.598  1.00  0.00    -0.442 OA 
HETATM   25  H   UNL     5     -10.451  12.653  65.380  1.00  0.00     0.000 HD 
BRANCH  23  26
HETATM   26  C   UNL     5     -10.837  13.551  67.774  1.00  0.00    -0.253 C  
HETATM   27  O   UNL     5      -9.761  13.028  68.586  1.00  0.00    -0.370 OA 
HETATM   28  H   UNL     5     -10.123  12.614  69.361  1.00  0.00     0.000 HD 
BRANCH  26  29
HETATM   29  C   UNL     5     -11.818  14.379  68.649  1.00  0.00    -0.331 C  
HETATM   30  O   UNL     5     -12.285  15.559  67.996  1.00  0.00    -0.348 OA 
HETATM   31  H   UNL     5     -12.885  16.066  68.531  1.00  0.00     0.000 HD 
BRANCH  29  32
HETATM   32  C   UNL     5     -11.416  14.667  70.105  1.00  0.00    -0.259 C  
HETATM   33  C   UNL     5     -12.487  15.349  70.981  1.00  0.00    -0.411 C  
HETATM   34  O   UNL     5     -10.160  15.434  70.149  1.00  0.00    -0.429 OA 
HETATM   35  O   UNL     5     -13.696  15.043  70.758  1.00  0.00    -0.302 OA 
HETATM   36  O   UNL     5     -12.005  16.213  71.797  1.00  0.00    -0.474 OA 
HETATM   37  H   UNL     5      -9.911  15.612  71.048  1.00  0.00     0.000 HD 
ENDBRANCH  29  32
ENDBRANCH  26  29
ENDBRANCH  23  26
ENDBRANCH   7  23
TORSDOF 8
ENDMDL
MODEL      272
REMARK 921   NORMALIZED FREE ENERGY PREDICTED BY IDOCK:   -4.78 KCAL/MOL
REMARK 922        TOTAL FREE ENERGY PREDICTED BY IDOCK:   -9.26 KCAL/MOL
REMARK 923 INTER-LIGAND FREE ENERGY PREDICTED BY IDOCK:   -7.46 KCAL/MOL
REMARK 924 INTRA-LIGAND FREE ENERGY PREDICTED BY IDOCK:   -1.79 KCAL/MOL
REMARK 927      BINDING AFFINITY PREDICTED BY RF-SCORE:    0.00 PKD
ROOT
HETATM    1 MG   UNL     3     -12.028   9.594  67.708  1.00  0.00    -0.537 Mg 
HETATM    2  O   UNL     4     -12.363  13.643  63.017  1.00  0.00    -1.041 OA 
HETATM    3  C   UNL     4     -12.188  12.305  63.441  1.00  0.00    -0.527 C  
HETATM    4  H   UNL     4     -13.226  13.807  62.653  1.00  0.00     0.000 HD 
HETATM    5  O   UNL     5      -6.230   5.792  71.045  1.00  0.00    -0.032 OA 
HETATM    6  H   UNL     5      -5.845   6.293  71.754  1.00  0.00     0.000 HD 
HETATM    7  C   UNL     5      -6.363   6.572  69.858  1.00  0.00    -0.039 C  
ENDROOT
BRANCH   3   8
HETATM    8  C   UNL     4     -10.794  12.042  64.029  1.00  0.00    -0.378 C  
HETATM    9  O   UNL     4     -10.014  13.252  63.987  1.00  0.00    -0.762 OA 
HETATM   10  H   UNL     4      -9.152  13.089  64.351  1.00  0.00     0.000 HD 
BRANCH   8  11
HETATM   11  C   UNL     4     -10.685  11.497  65.483  1.00  0.00    -0.272 C  
HETATM   12  O   UNL     4     -10.591  10.078  65.547  1.00  0.00    -0.066 OA 
HETATM   13  H   UNL     4     -10.524   9.745  66.434  1.00  0.00     0.000 HD 
BRANCH  11  14
HETATM   14  C   UNL     4      -9.668  12.175  66.441  1.00  0.00    -0.231 C  
HETATM   15  H   UNL     4      -8.441  11.531  67.818  1.00  0.00     0.000 HD 
HETATM   16  O   UNL     4      -9.063  11.116  67.232  1.00  0.00    -0.148 OA 
BRANCH  14  17
HETATM   17  C   UNL     4     -10.121  13.349  67.355  1.00  0.00    -0.237 C  
HETATM   18  C   UNL     4     -11.650  13.251  67.761  1.00  0.00    -0.342 C  
HETATM   19  H   UNL     4      -9.998  15.344  67.392  1.00  0.00     0.000 HD 
HETATM   20  O   UNL     4      -9.722  14.627  66.834  1.00  0.00    -0.228 OA 
HETATM   21  O   UNL     4     -12.055  12.034  67.988  1.00  0.00    -0.514 OA 
HETATM   22  O   UNL     4     -12.354  14.298  67.747  1.00  0.00    -0.247 OA 
ENDBRANCH  14  17
ENDBRANCH  11  14
ENDBRANCH   8  11
ENDBRANCH   3   8
BRANCH   7  23
HETATM   23  C   UNL     5      -6.989   5.759  68.706  1.00  0.00    -0.068 C  
HETATM   24  O   UNL     5      -6.185   4.597  68.491  1.00  0.00    -0.030 OA 
HETATM   25  H   UNL     5      -6.570   4.096  67.782  1.00  0.00     0.000 HD 
BRANCH  23  26
HETATM   26  C   UNL     5      -8.453   5.374  69.009  1.00  0.00    -0.100 C  
HETATM   27  O   UNL     5      -8.492   4.046  69.579  1.00  0.00    -0.060 OA 
HETATM   28  H   UNL     5      -9.393   3.809  69.765  1.00  0.00     0.000 HD 
BRANCH  26  29
HETATM   29  C   UNL     5      -9.300   6.354  69.868  1.00  0.00    -0.151 C  
HETATM   30  O   UNL     5     -10.285   5.690  70.659  1.00  0.00    -0.200 OA 
HETATM   31  H   UNL     5     -10.803   6.289  71.185  1.00  0.00     0.000 HD 
BRANCH  29  32
HETATM   32  C   UNL     5      -9.881   7.598  69.178  1.00  0.00    -0.171 C  
HETATM   33  C   UNL     5      -9.998   8.864  70.051  1.00  0.00    -0.190 C  
HETATM   34  O   UNL     5     -11.182   7.284  68.563  1.00  0.00    -0.449 OA 
HETATM   35  O   UNL     5      -9.100   9.047  70.926  1.00  0.00    -0.209 OA 
HETATM   36  O   UNL     5     -11.056   9.551  69.817  1.00  0.00    -0.234 OA 
HETATM   37  H   UNL     5     -11.541   8.053  68.136  1.00  0.00     0.000 HD 
ENDBRANCH  29  32
ENDBRANCH  26  29
ENDBRANCH  23  26
ENDBRANCH   7  23
TORSDOF 8
ENDMDL
MODEL      273
REMARK 921   NORMALIZED FREE ENERGY PREDICTED BY IDOCK:   -4.77 KCAL/MOL
REMARK 922        TOTAL FREE ENERGY PREDICTED BY IDOCK:   -9.24 KCAL/MOL
REMARK 923 INTER-LIGAND FREE ENERGY PREDICTED BY IDOCK:   -7.62 KCAL/MOL
REMARK 924 INTRA-LIGAND FREE ENERGY PREDICTED BY IDOCK:   -1.63 KCAL/MOL
REMARK 927      BINDING AFFINITY PREDICTED BY RF-SCORE:    0.00 PKD
ROOT
HETATM    1 MG   UNL     3     -12.674   9.922  69.318  1.00  0.00    -0.495 Mg 
HETATM    2  O   UNL     4     -12.854  14.299  64.922  1.00  0.00    -0.680 OA 
HETATM    3  C   UNL     4     -12.666  12.938  65.257  1.00  0.00    -0.321 C  
HETATM    4  H   UNL     4     -13.699  14.469  64.521  1.00  0.00     0.000 HD 
HETATM    5  O   UNL     5      -6.972   6.019  72.705  1.00  0.00    -0.076 OA 
HETATM    6  H   UNL     5      -6.642   6.475  73.470  1.00  0.00     0.000 HD 
HETATM    7  C   UNL     5      -7.059   6.882  71.571  1.00  0.00    -0.075 C  
ENDROOT
BRANCH   3   8
HETATM    8  C   UNL     4     -11.301  12.664  65.906  1.00  0.00    -0.334 C  
HETATM    9  O   UNL     4     -10.890  11.315  65.617  1.00  0.00    -0.250 OA 
HETATM   10  H   UNL     4     -10.046  11.145  66.019  1.00  0.00     0.000 HD 
BRANCH   8  11
HETATM   11  C   UNL     4     -10.098  13.580  65.537  1.00  0.00    -0.268 C  
HETATM   12  O   UNL     4      -9.965  13.798  64.137  1.00  0.00    -0.704 OA 
HETATM   13  H   UNL     4      -9.231  14.357  63.912  1.00  0.00     0.000 HD 
BRANCH  11  14
HETATM   14  C   UNL     4      -9.916  14.900  66.335  1.00  0.00    -0.275 C  
HETATM   15  H   UNL     4     -10.887  15.766  67.793  1.00  0.00     0.000 HD 
HETATM   16  O   UNL     4     -10.998  14.959  67.304  1.00  0.00    -0.305 OA 
BRANCH  14  17
HETATM   17  C   UNL     4      -9.781  16.254  65.583  1.00  0.00    -0.171 C  
HETATM   18  C   UNL     4      -9.345  17.442  66.538  1.00  0.00    -0.270 C  
HETATM   19  H   UNL     4     -10.845  17.362  64.303  1.00  0.00     0.000 HD 
HETATM   20  O   UNL     4     -10.927  16.535  64.764  1.00  0.00    -0.688 OA 
HETATM   21  O   UNL     4      -8.479  17.093  67.446  1.00  0.00    -0.188 OA 
HETATM   22  O   UNL     4      -9.911  18.563  66.414  1.00  0.00    -0.336 OA 
ENDBRANCH  14  17
ENDBRANCH  11  14
ENDBRANCH   8  11
ENDBRANCH   3   8
BRANCH   7  23
HETATM   23  C   UNL     5      -7.596   6.142  70.329  1.00  0.00    -0.096 C  
HETATM   24  O   UNL     5      -6.852   4.932  70.172  1.00  0.00    -0.042 OA 
HETATM   25  H   UNL     5      -7.182   4.476  69.407  1.00  0.00     0.000 HD 
BRANCH  23  26
HETATM   26  C   UNL     5      -9.108   5.853  70.445  1.00  0.00    -0.147 C  
HETATM   27  O   UNL     5      -9.381   5.232  71.721  1.00  0.00    -0.143 OA 
HETATM   28  H   UNL     5     -10.312   5.055  71.792  1.00  0.00     0.000 HD 
BRANCH  26  29
HETATM   29  C   UNL     5     -10.094   7.029  70.197  1.00  0.00    -0.187 C  
HETATM   30  O   UNL     5      -9.849   7.710  68.966  1.00  0.00    -0.162 OA 
HETATM   31  H   UNL     5     -10.452   8.428  68.815  1.00  0.00     0.000 HD 
BRANCH  29  32
HETATM   32  C   UNL     5     -10.334   8.021  71.347  1.00  0.00    -0.200 C  
HETATM   33  C   UNL     5     -11.777   8.545  71.498  1.00  0.00    -0.297 C  
HETATM   34  O   UNL     5      -9.391   9.148  71.259  1.00  0.00    -0.254 OA 
HETATM   35  O   UNL     5     -12.716   7.744  71.212  1.00  0.00    -0.310 OA 
HETATM   36  O   UNL     5     -11.839   9.780  71.838  1.00  0.00    -0.342 OA 
HETATM   37  H   UNL     5      -9.539   9.761  71.969  1.00  0.00     0.000 HD 
ENDBRANCH  29  32
ENDBRANCH  26  29
ENDBRANCH  23  26
ENDBRANCH   7  23
TORSDOF 8
ENDMDL
MODEL      274
REMARK 921   NORMALIZED FREE ENERGY PREDICTED BY IDOCK:   -4.74 KCAL/MOL
REMARK 922        TOTAL FREE ENERGY PREDICTED BY IDOCK:   -9.21 KCAL/MOL
REMARK 923 INTER-LIGAND FREE ENERGY PREDICTED BY IDOCK:   -6.94 KCAL/MOL
REMARK 924 INTRA-LIGAND FREE ENERGY PREDICTED BY IDOCK:   -2.27 KCAL/MOL
REMARK 927      BINDING AFFINITY PREDICTED BY RF-SCORE:    0.00 PKD
ROOT
HETATM    1 MG   UNL     3     -12.578  10.652  68.481  1.00  0.00    -0.411 Mg 
HETATM    2  O   UNL     4     -12.413  13.780  63.123  1.00  0.00    -1.089 OA 
HETATM    3  C   UNL     4     -12.441  12.531  63.786  1.00  0.00    -0.455 C  
HETATM    4  H   UNL     4     -13.249  14.014  62.737  1.00  0.00     0.000 HD 
HETATM    5  O   UNL     5      -7.360   6.620  72.447  1.00  0.00    -0.087 OA 
HETATM    6  H   UNL     5      -6.876   7.172  73.050  1.00  0.00     0.000 HD 
HETATM    7  C   UNL     5      -7.405   7.183  71.135  1.00  0.00    -0.075 C  
ENDROOT
BRANCH   3   8
HETATM    8  C   UNL     4     -11.089  12.154  64.410  1.00  0.00    -0.333 C  
HETATM    9  O   UNL     4     -10.049  12.969  63.838  1.00  0.00    -0.676 OA 
HETATM   10  H   UNL     4      -9.212  12.735  64.224  1.00  0.00     0.000 HD 
BRANCH   8  11
HETATM   11  C   UNL     4     -10.923  12.246  65.955  1.00  0.00    -0.302 C  
HETATM   12  O   UNL     4     -11.109  10.999  66.616  1.00  0.00    -0.240 OA 
HETATM   13  H   UNL     4     -11.007  11.055  67.559  1.00  0.00     0.000 HD 
BRANCH  11  14
HETATM   14  C   UNL     4      -9.688  13.004  66.511  1.00  0.00    -0.266 C  
HETATM   15  H   UNL     4      -8.061  12.471  67.452  1.00  0.00     0.000 HD 
HETATM   16  O   UNL     4      -8.817  12.007  67.111  1.00  0.00    -0.174 OA 
BRANCH  14  17
HETATM   17  C   UNL     4      -9.882  14.211  67.473  1.00  0.00    -0.235 C  
HETATM   18  C   UNL     4     -11.174  14.067  68.379  1.00  0.00    -0.266 C  
HETATM   19  H   UNL     4      -9.884  16.208  67.380  1.00  0.00     0.000 HD 
HETATM   20  O   UNL     4      -9.766  15.470  66.792  1.00  0.00    -0.226 OA 
HETATM   21  O   UNL     4     -11.399  12.849  68.782  1.00  0.00    -0.252 OA 
HETATM   22  O   UNL     4     -11.908  15.077  68.561  1.00  0.00    -0.331 OA 
ENDBRANCH  14  17
ENDBRANCH  11  14
ENDBRANCH   8  11
ENDBRANCH   3   8
BRANCH   7  23
HETATM   23  C   UNL     5      -8.191   6.288  70.156  1.00  0.00    -0.121 C  
HETATM   24  O   UNL     5      -9.008   5.398  70.920  1.00  0.00    -0.134 OA 
HETATM   25  H   UNL     5      -9.492   4.847  70.317  1.00  0.00     0.000 HD 
BRANCH  23  26
HETATM   26  C   UNL     5      -9.043   7.124  69.176  1.00  0.00    -0.137 C  
HETATM   27  O   UNL     5     -10.285   7.494  69.817  1.00  0.00    -0.201 OA 
HETATM   28  H   UNL     5     -10.809   8.008  69.214  1.00  0.00     0.000 HD 
BRANCH  26  29
HETATM   29  C   UNL     5      -8.384   8.368  68.519  1.00  0.00    -0.131 C  
HETATM   30  O   UNL     5      -9.213   9.529  68.573  1.00  0.00    -0.130 OA 
HETATM   31  H   UNL     5      -8.811  10.290  68.171  1.00  0.00     0.000 HD 
BRANCH  29  32
HETATM   32  C   UNL     5      -7.750   8.197  67.129  1.00  0.00    -0.097 C  
HETATM   33  C   UNL     5      -8.731   7.944  65.965  1.00  0.00    -0.158 C  
HETATM   34  O   UNL     5      -6.719   7.147  67.161  1.00  0.00    -0.062 OA 
HETATM   35  O   UNL     5      -9.860   8.516  66.026  1.00  0.00    -0.212 OA 
HETATM   36  O   UNL     5      -8.288   7.110  65.097  1.00  0.00    -0.136 OA 
HETATM   37  H   UNL     5      -6.327   7.040  66.302  1.00  0.00     0.000 HD 
ENDBRANCH  29  32
ENDBRANCH  26  29
ENDBRANCH  23  26
ENDBRANCH   7  23
TORSDOF 8
ENDMDL
MODEL      275
REMARK 921   NORMALIZED FREE ENERGY PREDICTED BY IDOCK:   -4.74 KCAL/MOL
REMARK 922        TOTAL FREE ENERGY PREDICTED BY IDOCK:   -9.19 KCAL/MOL
REMARK 923 INTER-LIGAND FREE ENERGY PREDICTED BY IDOCK:   -7.37 KCAL/MOL
REMARK 924 INTRA-LIGAND FREE ENERGY PREDICTED BY IDOCK:   -1.82 KCAL/MOL
REMARK 927      BINDING AFFINITY PREDICTED BY RF-SCORE:    0.00 PKD
ROOT
HETATM    1 MG   UNL     3      -8.109  11.551  64.954  1.00  0.00    -0.363 Mg 
HETATM    2  O   UNL     4     -11.485  16.653  63.909  1.00  0.00    -1.604 OA 
HETATM    3  C   UNL     4     -10.951  15.734  64.843  1.00  0.00    -0.427 C  
HETATM    4  H   UNL     4     -11.018  17.480  63.894  1.00  0.00     0.000 HD 
HETATM    5  O   UNL     5      -9.869   4.316  66.897  1.00  0.00    -0.210 OA 
HETATM    6  H   UNL     5     -10.025   3.776  66.131  1.00  0.00     0.000 HD 
HETATM    7  C   UNL     5     -10.597   5.543  66.837  1.00  0.00    -0.278 C  
ENDROOT
BRANCH   3   8
HETATM    8  C   UNL     4     -11.706  14.397  64.866  1.00  0.00    -0.408 C  
HETATM    9  O   UNL     4     -10.946  13.399  64.159  1.00  0.00    -0.464 OA 
HETATM   10  H   UNL     4     -11.414  12.572  64.173  1.00  0.00     0.000 HD 
BRANCH   8  11
HETATM   11  C   UNL     4     -12.083  13.772  66.241  1.00  0.00    -0.446 C  
HETATM   12  O   UNL     4     -12.903  12.614  66.127  1.00  0.00    -0.064 OA 
HETATM   13  H   UNL     4     -13.132  12.233  66.966  1.00  0.00     0.000 HD 
BRANCH  11  14
HETATM   14  C   UNL     4     -10.950  13.564  67.282  1.00  0.00    -0.280 C  
HETATM   15  H   UNL     4      -9.011  13.804  67.264  1.00  0.00     0.000 HD 
HETATM   16  O   UNL     4      -9.704  13.931  66.627  1.00  0.00    -0.270 OA 
BRANCH  14  17
HETATM   17  C   UNL     4     -10.802  12.198  68.011  1.00  0.00    -0.222 C  
HETATM   18  C   UNL     4     -10.647  10.983  67.006  1.00  0.00    -0.256 C  
HETATM   19  H   UNL     4     -11.714  11.180  69.469  1.00  0.00     0.000 HD 
HETATM   20  O   UNL     4     -11.804  12.014  69.023  1.00  0.00    -0.306 OA 
HETATM   21  O   UNL     4      -9.929  11.260  65.956  1.00  0.00    -0.215 OA 
HETATM   22  O   UNL     4     -11.277   9.915  67.238  1.00  0.00    -0.125 OA 
ENDBRANCH  14  17
ENDBRANCH  11  14
ENDBRANCH   8  11
ENDBRANCH   3   8
BRANCH   7  23
HETATM   23  C   UNL     5     -10.343   6.419  68.080  1.00  0.00    -0.192 C  
HETATM   24  O   UNL     5     -11.005   5.818  69.195  1.00  0.00    -0.320 OA 
HETATM   25  H   UNL     5     -10.848   6.358  69.961  1.00  0.00     0.000 HD 
BRANCH  23  26
HETATM   26  C   UNL     5      -8.834   6.595  68.357  1.00  0.00    -0.121 C  
HETATM   27  O   UNL     5      -8.080   6.120  67.218  1.00  0.00    -0.105 OA 
HETATM   28  H   UNL     5      -7.151   6.228  67.388  1.00  0.00     0.000 HD 
BRANCH  26  29
HETATM   29  C   UNL     5      -8.332   8.001  68.787  1.00  0.00    -0.127 C  
HETATM   30  O   UNL     5      -9.335   8.771  69.448  1.00  0.00    -0.154 OA 
HETATM   31  H   UNL     5      -9.028   9.631  69.711  1.00  0.00     0.000 HD 
BRANCH  29  32
HETATM   32  C   UNL     5      -7.574   8.843  67.748  1.00  0.00    -0.093 C  
HETATM   33  C   UNL     5      -7.007  10.187  68.249  1.00  0.00    -0.070 C  
HETATM   34  O   UNL     5      -8.407   9.058  66.553  1.00  0.00    -0.112 OA 
HETATM   35  O   UNL     5      -6.598  10.231  69.448  1.00  0.00    -0.047 OA 
HETATM   36  O   UNL     5      -7.089  11.131  67.385  1.00  0.00    -0.091 OA 
HETATM   37  H   UNL     5      -7.939   9.578  65.911  1.00  0.00     0.000 HD 
ENDBRANCH  29  32
ENDBRANCH  26  29
ENDBRANCH  23  26
ENDBRANCH   7  23
TORSDOF 8
ENDMDL
MODEL      276
REMARK 921   NORMALIZED FREE ENERGY PREDICTED BY IDOCK:   -4.73 KCAL/MOL
REMARK 922        TOTAL FREE ENERGY PREDICTED BY IDOCK:   -9.19 KCAL/MOL
REMARK 923 INTER-LIGAND FREE ENERGY PREDICTED BY IDOCK:   -7.00 KCAL/MOL
REMARK 924 INTRA-LIGAND FREE ENERGY PREDICTED BY IDOCK:   -2.18 KCAL/MOL
REMARK 927      BINDING AFFINITY PREDICTED BY RF-SCORE:    0.00 PKD
ROOT
HETATM    1 MG   UNL     3     -13.146   9.166  70.496  1.00  0.00    -0.486 Mg 
HETATM    2  O   UNL     4     -12.635  15.349  70.341  1.00  0.00    -0.421 OA 
HETATM    3  C   UNL     4     -12.888  14.145  69.643  1.00  0.00     0.348 C  
HETATM    4  H   UNL     4     -13.425  15.849  70.515  1.00  0.00     0.000 HD 
HETATM    5  O   UNL     5      -8.675   3.399  68.055  1.00  0.00    -0.094 OA 
HETATM    6  H   UNL     5      -8.051   3.133  68.721  1.00  0.00     0.000 HD 
HETATM    7  C   UNL     5      -8.677   4.813  67.866  1.00  0.00    -0.103 C  
ENDROOT
BRANCH   3   8
HETATM    8  C   UNL     4     -11.612  13.338  69.361  1.00  0.00    -0.305 C  
HETATM    9  O   UNL     4     -11.956  12.100  68.710  1.00  0.00    -0.306 OA 
HETATM   10  H   UNL     4     -11.167  11.601  68.536  1.00  0.00     0.000 HD 
BRANCH   8  11
HETATM   11  C   UNL     4     -10.487  13.989  68.505  1.00  0.00    -0.249 C  
HETATM   12  O   UNL     4      -9.411  13.100  68.220  1.00  0.00    -0.217 OA 
HETATM   13  H   UNL     4      -8.725  13.497  67.697  1.00  0.00     0.000 HD 
BRANCH  11  14
HETATM   14  C   UNL     4     -10.903  14.796  67.245  1.00  0.00    -0.309 C  
HETATM   15  H   UNL     4     -11.584  14.322  65.476  1.00  0.00     0.000 HD 
HETATM   16  O   UNL     4     -11.329  13.828  66.247  1.00  0.00    -0.310 OA 
BRANCH  14  17
HETATM   17  C   UNL     4      -9.923  15.829  66.621  1.00  0.00    -0.257 C  
HETATM   18  C   UNL     4     -10.268  17.321  67.030  1.00  0.00    -0.320 C  
HETATM   19  H   UNL     4      -9.142  16.252  64.831  1.00  0.00     0.000 HD 
HETATM   20  O   UNL     4      -9.741  15.621  65.212  1.00  0.00    -0.320 OA 
HETATM   21  O   UNL     4     -10.677  17.446  68.260  1.00  0.00    -0.371 OA 
HETATM   22  O   UNL     4     -10.213  18.223  66.149  1.00  0.00    -0.404 OA 
ENDBRANCH  14  17
ENDBRANCH  11  14
ENDBRANCH   8  11
ENDBRANCH   3   8
BRANCH   7  23
HETATM   23  C   UNL     5      -9.689   5.244  66.786  1.00  0.00    -0.160 C  
HETATM   24  O   UNL     5     -10.707   4.245  66.701  1.00  0.00    -0.111 OA 
HETATM   25  H   UNL     5     -11.330   4.510  66.035  1.00  0.00     0.000 HD 
BRANCH  23  26
HETATM   26  C   UNL     5     -10.295   6.631  67.092  1.00  0.00    -0.252 C  
HETATM   27  O   UNL     5     -11.577   6.750  66.434  1.00  0.00    -0.161 OA 
HETATM   28  H   UNL     5     -11.950   7.603  66.622  1.00  0.00     0.000 HD 
BRANCH  26  29
HETATM   29  C   UNL     5     -10.413   7.061  68.581  1.00  0.00    -0.204 C  
HETATM   30  O   UNL     5     -11.576   6.536  69.220  1.00  0.00    -0.628 OA 
HETATM   31  H   UNL     5     -11.649   6.799  70.131  1.00  0.00     0.000 HD 
BRANCH  29  32
HETATM   32  C   UNL     5     -10.211   8.547  68.918  1.00  0.00    -0.207 C  
HETATM   33  C   UNL     5     -10.307   8.920  70.413  1.00  0.00    -0.204 C  
HETATM   34  O   UNL     5     -11.128   9.384  68.127  1.00  0.00    -0.489 OA 
HETATM   35  O   UNL     5      -9.884   8.068  71.249  1.00  0.00    -0.160 OA 
HETATM   36  O   UNL     5     -10.880  10.048  70.621  1.00  0.00    -0.304 OA 
HETATM   37  H   UNL     5     -11.003  10.302  68.335  1.00  0.00     0.000 HD 
ENDBRANCH  29  32
ENDBRANCH  26  29
ENDBRANCH  23  26
ENDBRANCH   7  23
TORSDOF 8
ENDMDL
MODEL      277
REMARK 921   NORMALIZED FREE ENERGY PREDICTED BY IDOCK:   -4.73 KCAL/MOL
REMARK 922        TOTAL FREE ENERGY PREDICTED BY IDOCK:   -9.19 KCAL/MOL
REMARK 923 INTER-LIGAND FREE ENERGY PREDICTED BY IDOCK:   -8.78 KCAL/MOL
REMARK 924 INTRA-LIGAND FREE ENERGY PREDICTED BY IDOCK:   -0.41 KCAL/MOL
REMARK 927      BINDING AFFINITY PREDICTED BY RF-SCORE:    0.00 PKD
ROOT
HETATM    1 MG   UNL     3      -8.003  11.370  64.241  1.00  0.00    -0.355 Mg 
HETATM    2  O   UNL     4     -11.717  16.318  63.752  1.00  0.00    -1.511 OA 
HETATM    3  C   UNL     4     -10.950  15.467  64.582  1.00  0.00    -0.314 C  
HETATM    4  H   UNL     4     -11.297  17.155  63.590  1.00  0.00     0.000 HD 
HETATM    5  O   UNL     5      -9.000   4.214  66.887  1.00  0.00    -0.115 OA 
HETATM    6  H   UNL     5      -9.306   3.628  66.206  1.00  0.00     0.000 HD 
HETATM    7  C   UNL     5      -9.768   5.416  66.937  1.00  0.00    -0.153 C  
ENDROOT
BRANCH   3   8
HETATM    8  C   UNL     4     -11.629  14.115  64.843  1.00  0.00    -0.379 C  
HETATM    9  O   UNL     4     -10.701  13.047  64.576  1.00  0.00    -0.340 OA 
HETATM   10  H   UNL     4     -11.121  12.210  64.738  1.00  0.00     0.000 HD 
BRANCH   8  11
HETATM   11  C   UNL     4     -12.228  13.836  66.253  1.00  0.00    -0.447 C  
HETATM   12  O   UNL     4     -12.364  12.449  66.543  1.00  0.00    -0.511 OA 
HETATM   13  H   UNL     4     -12.729  12.279  67.403  1.00  0.00     0.000 HD 
BRANCH  11  14
HETATM   14  C   UNL     4     -11.639  14.612  67.462  1.00  0.00    -0.375 C  
HETATM   15  H   UNL     4     -10.495  16.184  67.655  1.00  0.00     0.000 HD 
HETATM   16  O   UNL     4     -10.855  15.709  66.916  1.00  0.00    -0.315 OA 
BRANCH  14  17
HETATM   17  C   UNL     4     -10.833  13.856  68.556  1.00  0.00    -0.259 C  
HETATM   18  C   UNL     4      -9.585  13.078  67.967  1.00  0.00    -0.224 C  
HETATM   19  H   UNL     4     -11.190  12.607  70.075  1.00  0.00     0.000 HD 
HETATM   20  O   UNL     4     -11.682  13.069  69.406  1.00  0.00    -0.295 OA 
HETATM   21  O   UNL     4      -8.974  13.716  67.010  1.00  0.00    -0.227 OA 
HETATM   22  O   UNL     4      -9.339  11.913  68.384  1.00  0.00    -0.199 OA 
ENDBRANCH  14  17
ENDBRANCH  11  14
ENDBRANCH   8  11
ENDBRANCH   3   8
BRANCH   7  23
HETATM   23  C   UNL     5      -9.271   6.367  68.044  1.00  0.00    -0.110 C  
HETATM   24  O   UNL     5      -9.881   7.643  67.845  1.00  0.00    -0.147 OA 
HETATM   25  H   UNL     5      -9.574   8.229  68.527  1.00  0.00     0.000 HD 
BRANCH  23  26
HETATM   26  C   UNL     5      -9.580   5.815  69.453  1.00  0.00    -0.140 C  
HETATM   27  O   UNL     5      -8.420   5.983  70.299  1.00  0.00    -0.121 OA 
HETATM   28  H   UNL     5      -8.610   5.643  71.165  1.00  0.00     0.000 HD 
BRANCH  26  29
HETATM   29  C   UNL     5     -10.853   6.338  70.175  1.00  0.00    -0.313 C  
HETATM   30  O   UNL     5     -11.943   6.568  69.284  1.00  0.00    -0.519 OA 
HETATM   31  H   UNL     5     -12.722   6.887  69.726  1.00  0.00     0.000 HD 
BRANCH  29  32
HETATM   32  C   UNL     5     -10.689   7.499  71.170  1.00  0.00    -0.227 C  
HETATM   33  C   UNL     5     -11.995   8.150  71.672  1.00  0.00    -0.300 C  
HETATM   34  O   UNL     5      -9.790   8.526  70.618  1.00  0.00    -0.177 OA 
HETATM   35  O   UNL     5     -12.999   7.391  71.819  1.00  0.00    -0.338 OA 
HETATM   36  O   UNL     5     -11.911   9.422  71.813  1.00  0.00    -0.367 OA 
HETATM   37  H   UNL     5      -9.689   9.243  71.232  1.00  0.00     0.000 HD 
ENDBRANCH  29  32
ENDBRANCH  26  29
ENDBRANCH  23  26
ENDBRANCH   7  23
TORSDOF 8
ENDMDL
MODEL      278
REMARK 921   NORMALIZED FREE ENERGY PREDICTED BY IDOCK:   -4.73 KCAL/MOL
REMARK 922        TOTAL FREE ENERGY PREDICTED BY IDOCK:   -9.18 KCAL/MOL
REMARK 923 INTER-LIGAND FREE ENERGY PREDICTED BY IDOCK:   -7.69 KCAL/MOL
REMARK 924 INTRA-LIGAND FREE ENERGY PREDICTED BY IDOCK:   -1.49 KCAL/MOL
REMARK 927      BINDING AFFINITY PREDICTED BY RF-SCORE:    0.00 PKD
ROOT
HETATM    1 MG   UNL     3     -11.594  14.468  72.563  1.00  0.00    -0.304 Mg 
HETATM    2  O   UNL     4      -9.649  17.999  67.844  1.00  0.00    -0.270 OA 
HETATM    3  C   UNL     4     -10.522  16.988  68.310  1.00  0.00    -0.363 C  
HETATM    4  H   UNL     4     -10.081  18.838  67.730  1.00  0.00     0.000 HD 
HETATM    5  O   UNL     5     -10.639   7.058  74.404  1.00  0.00    -0.519 OA 
HETATM    6  H   UNL     5      -9.859   6.925  74.929  1.00  0.00     0.000 HD 
HETATM    7  C   UNL     5     -10.369   7.844  73.243  1.00  0.00    -0.212 C  
ENDROOT
BRANCH   3   8
HETATM    8  C   UNL     4      -9.822  15.633  68.494  1.00  0.00    -0.205 C  
HETATM    9  O   UNL     4     -10.365  14.961  69.646  1.00  0.00    -0.344 OA 
HETATM   10  H   UNL     4      -9.932  14.123  69.761  1.00  0.00     0.000 HD 
BRANCH   8  11
HETATM   11  C   UNL     4      -9.858  14.605  67.326  1.00  0.00    -0.231 C  
HETATM   12  O   UNL     4      -9.141  15.036  66.174  1.00  0.00    -0.402 OA 
HETATM   13  H   UNL     4      -9.164  14.408  65.462  1.00  0.00     0.000 HD 
BRANCH  11  14
HETATM   14  C   UNL     4      -9.559  13.117  67.656  1.00  0.00    -0.210 C  
HETATM   15  H   UNL     4      -8.127  12.183  68.601  1.00  0.00     0.000 HD 
HETATM   16  O   UNL     4      -8.310  13.093  68.400  1.00  0.00    -0.157 OA 
BRANCH  14  17
HETATM   17  C   UNL     4      -9.538  12.056  66.519  1.00  0.00    -0.224 C  
HETATM   18  C   UNL     4     -10.735  11.022  66.627  1.00  0.00    -0.249 C  
HETATM   19  H   UNL     4      -8.230  10.808  65.667  1.00  0.00     0.000 HD 
HETATM   20  O   UNL     4      -8.243  11.456  66.361  1.00  0.00    -0.166 OA 
HETATM   21  O   UNL     4     -11.855  11.557  67.021  1.00  0.00    -0.568 OA 
HETATM   22  O   UNL     4     -10.505   9.798  66.424  1.00  0.00    -0.204 OA 
ENDBRANCH  14  17
ENDBRANCH  11  14
ENDBRANCH   8  11
ENDBRANCH   3   8
BRANCH   7  23
HETATM   23  C   UNL     5     -11.636   8.059  72.391  1.00  0.00    -0.390 C  
HETATM   24  O   UNL     5     -11.554   9.350  71.784  1.00  0.00    -0.377 OA 
HETATM   25  H   UNL     5     -12.334   9.483  71.259  1.00  0.00     0.000 HD 
BRANCH  23  26
HETATM   26  C   UNL     5     -11.804   6.953  71.327  1.00  0.00    -0.341 C  
HETATM   27  O   UNL     5     -13.002   7.205  70.558  1.00  0.00    -0.581 OA 
HETATM   28  H   UNL     5     -13.105   6.524  69.903  1.00  0.00     0.000 HD 
BRANCH  26  29
HETATM   29  C   UNL     5     -10.606   6.670  70.378  1.00  0.00    -0.223 C  
HETATM   30  O   UNL     5      -9.488   6.092  71.052  1.00  0.00    -0.169 OA 
HETATM   31  H   UNL     5      -8.755   5.919  70.472  1.00  0.00     0.000 HD 
BRANCH  29  32
HETATM   32  C   UNL     5     -10.165   7.790  69.421  1.00  0.00    -0.208 C  
HETATM   33  C   UNL     5      -8.985   8.662  69.898  1.00  0.00    -0.149 C  
HETATM   34  O   UNL     5     -11.312   8.640  69.063  1.00  0.00    -0.322 OA 
HETATM   35  O   UNL     5      -8.086   8.091  70.584  1.00  0.00    -0.099 OA 
HETATM   36  O   UNL     5      -9.107   9.900  69.587  1.00  0.00    -0.201 OA 
HETATM   37  H   UNL     5     -11.041   9.332  68.472  1.00  0.00     0.000 HD 
ENDBRANCH  29  32
ENDBRANCH  26  29
ENDBRANCH  23  26
ENDBRANCH   7  23
TORSDOF 8
ENDMDL
MODEL      279
REMARK 921   NORMALIZED FREE ENERGY PREDICTED BY IDOCK:   -4.71 KCAL/MOL
REMARK 922        TOTAL FREE ENERGY PREDICTED BY IDOCK:   -9.15 KCAL/MOL
REMARK 923 INTER-LIGAND FREE ENERGY PREDICTED BY IDOCK:   -7.71 KCAL/MOL
REMARK 924 INTRA-LIGAND FREE ENERGY PREDICTED BY IDOCK:   -1.44 KCAL/MOL
REMARK 927      BINDING AFFINITY PREDICTED BY RF-SCORE:    0.00 PKD
ROOT
HETATM    1 MG   UNL     3      -6.208  11.527  68.701  1.00  0.00    -0.049 Mg 
HETATM    2  O   UNL     4      -8.353  16.733  66.091  1.00  0.00    -0.345 OA 
HETATM    3  C   UNL     4      -8.367  15.846  67.192  1.00  0.00    -0.202 C  
HETATM    4  H   UNL     4      -7.867  17.531  66.264  1.00  0.00     0.000 HD 
HETATM    5  O   UNL     5      -9.203   4.533  69.852  1.00  0.00    -0.105 OA 
HETATM    6  H   UNL     5      -9.039   3.956  69.115  1.00  0.00     0.000 HD 
HETATM    7  C   UNL     5      -9.730   5.791  69.433  1.00  0.00    -0.155 C  
ENDROOT
BRANCH   3   8
HETATM    8  C   UNL     4      -9.152  14.556  66.911  1.00  0.00    -0.255 C  
HETATM    9  O   UNL     4      -8.405  13.421  67.386  1.00  0.00    -0.172 OA 
HETATM   10  H   UNL     4      -8.891  12.623  67.212  1.00  0.00     0.000 HD 
BRANCH   8  11
HETATM   11  C   UNL     4     -10.590  14.412  67.490  1.00  0.00    -0.265 C  
HETATM   12  O   UNL     4     -11.165  15.653  67.885  1.00  0.00    -0.336 OA 
HETATM   13  H   UNL     4     -12.042  15.564  68.238  1.00  0.00     0.000 HD 
BRANCH  11  14
HETATM   14  C   UNL     4     -11.608  13.541  66.705  1.00  0.00    -0.363 C  
HETATM   15  H   UNL     4     -12.365  11.757  66.953  1.00  0.00     0.000 HD 
HETATM   16  O   UNL     4     -11.742  12.290  67.434  1.00  0.00    -0.394 OA 
BRANCH  14  17
HETATM   17  C   UNL     4     -11.396  13.270  65.188  1.00  0.00    -0.297 C  
HETATM   18  C   UNL     4     -11.939  14.446  64.276  1.00  0.00    -0.410 C  
HETATM   19  H   UNL     4     -11.713  11.794  63.878  1.00  0.00     0.000 HD 
HETATM   20  O   UNL     4     -11.843  11.960  64.804  1.00  0.00    -0.286 OA 
HETATM   21  O   UNL     4     -11.740  15.632  64.777  1.00  0.00    -0.254 OA 
HETATM   22  O   UNL     4     -12.577  14.160  63.226  1.00  0.00    -0.766 OA 
ENDBRANCH  14  17
ENDBRANCH  11  14
ENDBRANCH   8  11
ENDBRANCH   3   8
BRANCH   7  23
HETATM   23  C   UNL     5      -9.995   6.727  70.629  1.00  0.00    -0.187 C  
HETATM   24  O   UNL     5      -9.084   6.385  71.676  1.00  0.00    -0.144 OA 
HETATM   25  H   UNL     5      -9.247   6.961  72.413  1.00  0.00     0.000 HD 
BRANCH  23  26
HETATM   26  C   UNL     5      -9.856   8.213  70.234  1.00  0.00    -0.184 C  
HETATM   27  O   UNL     5      -8.944   8.329  69.118  1.00  0.00    -0.146 OA 
HETATM   28  H   UNL     5      -8.858   9.243  68.875  1.00  0.00     0.000 HD 
BRANCH  26  29
HETATM   29  C   UNL     5     -11.157   9.015  69.951  1.00  0.00    -0.142 C  
HETATM   30  O   UNL     5     -11.328   9.327  68.569  1.00  0.00    -0.436 OA 
HETATM   31  H   UNL     5     -12.123   9.817  68.395  1.00  0.00     0.000 HD 
BRANCH  29  32
HETATM   32  C   UNL     5     -11.459  10.232  70.840  1.00  0.00    -0.339 C  
HETATM   33  C   UNL     5     -12.529  10.023  71.932  1.00  0.00    -0.319 C  
HETATM   34  O   UNL     5     -11.800  11.402  70.014  1.00  0.00    -0.305 OA 
HETATM   35  O   UNL     5     -12.591   8.876  72.468  1.00  0.00    -0.375 OA 
HETATM   36  O   UNL     5     -13.283  11.045  72.111  1.00  0.00    -0.481 OA 
HETATM   37  H   UNL     5     -11.986  12.153  70.563  1.00  0.00     0.000 HD 
ENDBRANCH  29  32
ENDBRANCH  26  29
ENDBRANCH  23  26
ENDBRANCH   7  23
TORSDOF 8
ENDMDL
MODEL      280
REMARK 921   NORMALIZED FREE ENERGY PREDICTED BY IDOCK:   -4.70 KCAL/MOL
REMARK 922        TOTAL FREE ENERGY PREDICTED BY IDOCK:   -9.15 KCAL/MOL
REMARK 923 INTER-LIGAND FREE ENERGY PREDICTED BY IDOCK:   -8.21 KCAL/MOL
REMARK 924 INTRA-LIGAND FREE ENERGY PREDICTED BY IDOCK:   -0.94 KCAL/MOL
REMARK 927      BINDING AFFINITY PREDICTED BY RF-SCORE:    0.00 PKD
ROOT
HETATM    1 MG   UNL     3      -6.675  11.537  65.804  1.00  0.00    -0.286 Mg 
HETATM    2  O   UNL     4      -8.918  17.319  65.565  1.00  0.00    -0.288 OA 
HETATM    3  C   UNL     4      -8.586  16.189  66.348  1.00  0.00    -0.330 C  
HETATM    4  H   UNL     4      -8.289  18.027  65.650  1.00  0.00     0.000 HD 
HETATM    5  O   UNL     5      -9.899   4.620  66.790  1.00  0.00    -0.183 OA 
HETATM    6  H   UNL     5     -10.164   4.236  65.963  1.00  0.00     0.000 HD 
HETATM    7  C   UNL     5     -10.357   5.966  66.920  1.00  0.00    -0.247 C  
ENDROOT
BRANCH   3   8
HETATM    8  C   UNL     4      -9.603  15.046  66.210  1.00  0.00    -0.307 C  
HETATM    9  O   UNL     4      -9.766  14.388  67.481  1.00  0.00    -0.212 OA 
HETATM   10  H   UNL     4     -10.394  13.680  67.395  1.00  0.00     0.000 HD 
BRANCH   8  11
HETATM   11  C   UNL     4     -11.035  15.374  65.696  1.00  0.00    -0.326 C  
HETATM   12  O   UNL     4     -11.042  16.053  64.445  1.00  0.00    -0.877 OA 
HETATM   13  H   UNL     4     -11.916  16.253  64.131  1.00  0.00     0.000 HD 
BRANCH  11  14
HETATM   14  C   UNL     4     -12.098  14.243  65.733  1.00  0.00    -0.405 C  
HETATM   15  H   UNL     4     -12.670  12.942  67.073  1.00  0.00     0.000 HD 
HETATM   16  O   UNL     4     -12.020  13.633  67.050  1.00  0.00    -0.388 OA 
BRANCH  14  17
HETATM   17  C   UNL     4     -12.115  13.151  64.625  1.00  0.00    -0.408 C  
HETATM   18  C   UNL     4     -10.838  12.213  64.674  1.00  0.00    -0.306 C  
HETATM   19  H   UNL     4     -12.416  13.032  62.653  1.00  0.00     0.000 HD 
HETATM   20  O   UNL     4     -12.405  13.699  63.329  1.00  0.00    -0.743 OA 
HETATM   21  O   UNL     4     -10.440  11.933  65.882  1.00  0.00    -0.242 OA 
HETATM   22  O   UNL     4     -10.272  11.896  63.592  1.00  0.00    -0.363 OA 
ENDBRANCH  14  17
ENDBRANCH  11  14
ENDBRANCH   8  11
ENDBRANCH   3   8
BRANCH   7  23
HETATM   23  C   UNL     5      -9.926   6.589  68.263  1.00  0.00    -0.143 C  
HETATM   24  O   UNL     5      -8.514   6.805  68.225  1.00  0.00    -0.124 OA 
HETATM   25  H   UNL     5      -8.249   7.189  69.052  1.00  0.00     0.000 HD 
BRANCH  23  26
HETATM   26  C   UNL     5     -10.682   7.905  68.551  1.00  0.00    -0.024 C  
HETATM   27  O   UNL     5     -11.486   7.745  69.742  1.00  0.00    -0.456 OA 
HETATM   28  H   UNL     5     -11.951   8.554  69.919  1.00  0.00     0.000 HD 
BRANCH  26  29
HETATM   29  C   UNL     5      -9.854   9.217  68.632  1.00  0.00    -0.162 C  
HETATM   30  O   UNL     5      -8.645   9.159  67.876  1.00  0.00    -0.121 OA 
HETATM   31  H   UNL     5      -8.138   9.961  67.926  1.00  0.00     0.000 HD 
BRANCH  29  32
HETATM   32  C   UNL     5      -9.617   9.833  70.020  1.00  0.00    -0.241 C  
HETATM   33  C   UNL     5      -8.806   8.974  71.012  1.00  0.00    -0.230 C  
HETATM   34  O   UNL     5     -10.896  10.238  70.628  1.00  0.00    -0.375 OA 
HETATM   35  O   UNL     5      -7.885   8.249  70.530  1.00  0.00    -0.081 OA 
HETATM   36  O   UNL     5      -9.225   9.056  72.221  1.00  0.00    -0.344 OA 
HETATM   37  H   UNL     5     -10.750  10.618  71.486  1.00  0.00     0.000 HD 
ENDBRANCH  29  32
ENDBRANCH  26  29
ENDBRANCH  23  26
ENDBRANCH   7  23
TORSDOF 8
ENDMDL
MODEL      281
REMARK 921   NORMALIZED FREE ENERGY PREDICTED BY IDOCK:   -4.68 KCAL/MOL
REMARK 922        TOTAL FREE ENERGY PREDICTED BY IDOCK:   -9.12 KCAL/MOL
REMARK 923 INTER-LIGAND FREE ENERGY PREDICTED BY IDOCK:   -7.53 KCAL/MOL
REMARK 924 INTRA-LIGAND FREE ENERGY PREDICTED BY IDOCK:   -1.59 KCAL/MOL
REMARK 927      BINDING AFFINITY PREDICTED BY RF-SCORE:    0.00 PKD
ROOT
HETATM    1 MG   UNL     3      -9.540  12.651  66.624  1.00  0.00    -0.200 Mg 
HETATM    2  O   UNL     4      -6.472  18.018  67.179  1.00  0.00    -0.166 OA 
HETATM    3  C   UNL     4      -6.570  16.648  67.517  1.00  0.00    -0.154 C  
HETATM    4  H   UNL     4      -5.795  18.193  66.535  1.00  0.00     0.000 HD 
HETATM    5  O   UNL     5     -14.148   8.653  71.313  1.00  0.00    -0.573 OA 
HETATM    6  H   UNL     5     -15.056   8.915  71.220  1.00  0.00     0.000 HD 
HETATM    7  C   UNL     5     -13.285   9.778  71.478  1.00  0.00    -0.404 C  
ENDROOT
BRANCH   3   8
HETATM    8  C   UNL     4      -7.665  16.366  68.557  1.00  0.00    -0.195 C  
HETATM    9  O   UNL     4      -8.204  17.610  69.042  1.00  0.00    -0.190 OA 
HETATM   10  H   UNL     4      -8.881  17.435  69.686  1.00  0.00     0.000 HD 
BRANCH   8  11
HETATM   11  C   UNL     4      -8.883  15.488  68.145  1.00  0.00    -0.169 C  
HETATM   12  O   UNL     4      -9.142  14.423  69.053  1.00  0.00    -0.350 OA 
HETATM   13  H   UNL     4      -9.885  13.888  68.801  1.00  0.00     0.000 HD 
BRANCH  11  14
HETATM   14  C   UNL     4     -10.193  16.210  67.730  1.00  0.00    -0.267 C  
HETATM   15  H   UNL     4     -12.026  16.221  68.405  1.00  0.00     0.000 HD 
HETATM   16  O   UNL     4     -11.225  15.779  68.660  1.00  0.00    -0.308 OA 
BRANCH  14  17
HETATM   17  C   UNL     4     -10.705  16.116  66.264  1.00  0.00    -0.213 C  
HETATM   18  C   UNL     4     -11.083  14.635  65.844  1.00  0.00    -0.338 C  
HETATM   19  H   UNL     4     -10.150  16.739  64.447  1.00  0.00     0.000 HD 
HETATM   20  O   UNL     4      -9.838  16.796  65.343  1.00  0.00    -0.547 OA 
HETATM   21  O   UNL     4     -11.650  13.950  66.795  1.00  0.00    -0.341 OA 
HETATM   22  O   UNL     4     -10.740  14.218  64.703  1.00  0.00    -0.412 OA 
ENDBRANCH  14  17
ENDBRANCH  11  14
ENDBRANCH   8  11
ENDBRANCH   3   8
BRANCH   7  23
HETATM   23  C   UNL     5     -11.811   9.351  71.629  1.00  0.00    -0.394 C  
HETATM   24  O   UNL     5     -11.749   8.282  72.575  1.00  0.00    -0.386 OA 
HETATM   25  H   UNL     5     -10.842   8.020  72.669  1.00  0.00     0.000 HD 
BRANCH  23  26
HETATM   26  C   UNL     5     -11.196   8.933  70.276  1.00  0.00    -0.197 C  
HETATM   27  O   UNL     5     -11.762   9.744  69.221  1.00  0.00    -0.456 OA 
HETATM   28  H   UNL     5     -11.383   9.487  68.389  1.00  0.00     0.000 HD 
BRANCH  26  29
HETATM   29  C   UNL     5      -9.646   8.904  70.160  1.00  0.00    -0.180 C  
HETATM   30  O   UNL     5      -9.005   9.824  71.043  1.00  0.00    -0.344 OA 
HETATM   31  H   UNL     5      -8.058   9.806  70.973  1.00  0.00     0.000 HD 
BRANCH  29  32
HETATM   32  C   UNL     5      -9.030   8.958  68.753  1.00  0.00    -0.134 C  
HETATM   33  C   UNL     5      -9.169  10.300  68.004  1.00  0.00    -0.135 C  
HETATM   34  O   UNL     5      -9.547   7.857  67.923  1.00  0.00    -0.143 OA 
HETATM   35  O   UNL     5      -9.128  11.357  68.700  1.00  0.00    -0.175 OA 
HETATM   36  O   UNL     5      -9.382  10.163  66.746  1.00  0.00    -0.155 OA 
HETATM   37  H   UNL     5      -9.166   7.890  67.053  1.00  0.00     0.000 HD 
ENDBRANCH  29  32
ENDBRANCH  26  29
ENDBRANCH  23  26
ENDBRANCH   7  23
TORSDOF 8
ENDMDL
MODEL      282
REMARK 921   NORMALIZED FREE ENERGY PREDICTED BY IDOCK:   -4.68 KCAL/MOL
REMARK 922        TOTAL FREE ENERGY PREDICTED BY IDOCK:   -9.12 KCAL/MOL
REMARK 923 INTER-LIGAND FREE ENERGY PREDICTED BY IDOCK:   -8.67 KCAL/MOL
REMARK 924 INTRA-LIGAND FREE ENERGY PREDICTED BY IDOCK:   -0.45 KCAL/MOL
REMARK 927      BINDING AFFINITY PREDICTED BY RF-SCORE:    0.00 PKD
ROOT
HETATM    1 MG   UNL     3      -9.775  13.494  68.916  1.00  0.00    -0.199 Mg 
HETATM    2  O   UNL     4      -9.532   8.322  65.495  1.00  0.00    -0.425 OA 
HETATM    3  C   UNL     4      -8.850   9.428  66.053  1.00  0.00    -0.156 C  
HETATM    4  H   UNL     4      -9.362   7.509  65.958  1.00  0.00     0.000 HD 
HETATM    5  O   UNL     5      -9.546  20.999  67.231  1.00  0.00    -0.653 OA 
HETATM    6  H   UNL     5     -10.414  21.346  67.062  1.00  0.00     0.000 HD 
HETATM    7  C   UNL     5      -9.303  19.800  66.496  1.00  0.00    -0.394 C  
ENDROOT
BRANCH   3   8
HETATM    8  C   UNL     4      -9.126  10.741  65.304  1.00  0.00    -0.195 C  
HETATM    9  O   UNL     4      -8.512  10.694  64.003  1.00  0.00    -0.276 OA 
HETATM   10  H   UNL     4      -8.683  11.506  63.540  1.00  0.00     0.000 HD 
BRANCH   8  11
HETATM   11  C   UNL     4     -10.602  11.180  65.080  1.00  0.00    -0.253 C  
HETATM   12  O   UNL     4     -11.173  11.832  66.210  1.00  0.00    -0.316 OA 
HETATM   13  H   UNL     4     -12.074  12.100  66.073  1.00  0.00     0.000 HD 
BRANCH  11  14
HETATM   14  C   UNL     4     -10.949  11.924  63.762  1.00  0.00    -0.425 C  
HETATM   15  H   UNL     4     -10.051  13.274  62.673  1.00  0.00     0.000 HD 
HETATM   16  O   UNL     4      -9.839  12.819  63.479  1.00  0.00    -0.230 OA 
BRANCH  14  17
HETATM   17  C   UNL     4     -12.305  12.673  63.622  1.00  0.00    -0.492 C  
HETATM   18  C   UNL     4     -12.424  13.909  64.607  1.00  0.00    -0.325 C  
HETATM   19  H   UNL     4     -14.254  12.231  63.567  1.00  0.00     0.000 HD 
HETATM   20  O   UNL     4     -13.425  11.774  63.652  1.00  0.00    -0.425 OA 
HETATM   21  O   UNL     4     -11.310  14.566  64.759  1.00  0.00    -0.372 OA 
HETATM   22  O   UNL     4     -13.512  14.102  65.216  1.00  0.00    -0.606 OA 
ENDBRANCH  14  17
ENDBRANCH  11  14
ENDBRANCH   8  11
ENDBRANCH   3   8
BRANCH   7  23
HETATM   23  C   UNL     5      -7.895  19.236  66.772  1.00  0.00    -0.262 C  
HETATM   24  O   UNL     5      -7.372  19.883  67.933  1.00  0.00    -0.277 OA 
HETATM   25  H   UNL     5      -6.505  19.536  68.103  1.00  0.00     0.000 HD 
BRANCH  23  26
HETATM   26  C   UNL     5      -7.919  17.702  66.952  1.00  0.00    -0.226 C  
HETATM   27  O   UNL     5      -6.564  17.212  67.069  1.00  0.00    -0.155 OA 
HETATM   28  H   UNL     5      -6.579  16.269  67.180  1.00  0.00     0.000 HD 
BRANCH  26  29
HETATM   29  C   UNL     5      -8.802  17.118  68.090  1.00  0.00    -0.237 C  
HETATM   30  O   UNL     5      -8.194  16.009  68.751  1.00  0.00    -0.183 OA 
HETATM   31  H   UNL     5      -8.734  15.651  69.447  1.00  0.00     0.000 HD 
BRANCH  29  32
HETATM   32  C   UNL     5     -10.283  16.843  67.781  1.00  0.00    -0.308 C  
HETATM   33  C   UNL     5     -11.100  16.190  68.915  1.00  0.00    -0.347 C  
HETATM   34  O   UNL     5     -10.413  16.055  66.544  1.00  0.00    -0.297 OA 
HETATM   35  O   UNL     5     -10.801  16.513  70.103  1.00  0.00    -0.321 OA 
HETATM   36  O   UNL     5     -11.955  15.329  68.498  1.00  0.00    -0.310 OA 
HETATM   37  H   UNL     5     -11.327  15.885  66.353  1.00  0.00     0.000 HD 
ENDBRANCH  29  32
ENDBRANCH  26  29
ENDBRANCH  23  26
ENDBRANCH   7  23
TORSDOF 8
ENDMDL
MODEL      283
REMARK 921   NORMALIZED FREE ENERGY PREDICTED BY IDOCK:   -4.68 KCAL/MOL
REMARK 922        TOTAL FREE ENERGY PREDICTED BY IDOCK:   -9.11 KCAL/MOL
REMARK 923 INTER-LIGAND FREE ENERGY PREDICTED BY IDOCK:   -7.90 KCAL/MOL
REMARK 924 INTRA-LIGAND FREE ENERGY PREDICTED BY IDOCK:   -1.22 KCAL/MOL
REMARK 927      BINDING AFFINITY PREDICTED BY RF-SCORE:    0.00 PKD
ROOT
HETATM    1 MG   UNL     3     -11.056  14.143  69.667  1.00  0.00    -0.223 Mg 
HETATM    2  O   UNL     4     -12.014  15.506  63.689  1.00  0.00    -0.875 OA 
HETATM    3  C   UNL     4     -12.278  14.652  64.785  1.00  0.00    -0.394 C  
HETATM    4  H   UNL     4     -12.736  16.092  63.494  1.00  0.00     0.000 HD 
HETATM    5  O   UNL     5      -6.963   8.731  73.297  1.00  0.00    -0.330 OA 
HETATM    6  H   UNL     5      -6.071   9.016  73.458  1.00  0.00     0.000 HD 
HETATM    7  C   UNL     5      -7.352   8.951  71.941  1.00  0.00     0.063 C  
ENDROOT
BRANCH   3   8
HETATM    8  C   UNL     4     -11.111  13.705  65.101  1.00  0.00    -0.318 C  
HETATM    9  O   UNL     4      -9.917  14.174  64.448  1.00  0.00    -0.674 OA 
HETATM   10  H   UNL     4      -9.194  13.588  64.643  1.00  0.00     0.000 HD 
BRANCH   8  11
HETATM   11  C   UNL     4     -10.730  13.454  66.589  1.00  0.00    -0.282 C  
HETATM   12  O   UNL     4     -11.261  12.239  67.109  1.00  0.00    -0.271 OA 
HETATM   13  H   UNL     4     -11.028  12.086  68.017  1.00  0.00     0.000 HD 
BRANCH  11  14
HETATM   14  C   UNL     4      -9.246  13.647  67.004  1.00  0.00    -0.250 C  
HETATM   15  H   UNL     4      -8.159  13.063  68.518  1.00  0.00     0.000 HD 
HETATM   16  O   UNL     4      -9.066  12.945  68.264  1.00  0.00    -0.199 OA 
BRANCH  14  17
HETATM   17  C   UNL     4      -8.638  15.077  67.083  1.00  0.00    -0.223 C  
HETATM   18  C   UNL     4      -7.153  15.078  67.635  1.00  0.00    -0.183 C  
HETATM   19  H   UNL     4      -9.149  16.878  67.784  1.00  0.00     0.000 HD 
HETATM   20  O   UNL     4      -9.519  16.004  67.736  1.00  0.00    -0.215 OA 
HETATM   21  O   UNL     4      -6.439  14.071  67.220  1.00  0.00    -0.286 OA 
HETATM   22  O   UNL     4      -6.812  15.961  68.469  1.00  0.00    -0.118 OA 
ENDBRANCH  14  17
ENDBRANCH  11  14
ENDBRANCH   8  11
ENDBRANCH   3   8
BRANCH   7  23
HETATM   23  C   UNL     5      -8.800   8.489  71.681  1.00  0.00    -0.207 C  
HETATM   24  O   UNL     5      -9.489   8.446  72.932  1.00  0.00    -0.261 OA 
HETATM   25  H   UNL     5     -10.381   8.161  72.771  1.00  0.00     0.000 HD 
BRANCH  23  26
HETATM   26  C   UNL     5      -9.524   9.416  70.679  1.00  0.00    -0.262 C  
HETATM   27  O   UNL     5      -8.579   9.882  69.689  1.00  0.00    -0.166 OA 
HETATM   28  H   UNL     5      -9.024  10.452  69.073  1.00  0.00     0.000 HD 
BRANCH  26  29
HETATM   29  C   UNL     5     -10.807   8.878  69.987  1.00  0.00    -0.227 C  
HETATM   30  O   UNL     5     -11.952   8.908  70.839  1.00  0.00    -0.353 OA 
HETATM   31  H   UNL     5     -12.737   8.580  70.416  1.00  0.00     0.000 HD 
BRANCH  29  32
HETATM   32  C   UNL     5     -10.709   7.546  69.227  1.00  0.00    -0.176 C  
HETATM   33  C   UNL     5     -10.490   7.651  67.703  1.00  0.00    -0.244 C  
HETATM   34  O   UNL     5     -11.882   6.703  69.514  1.00  0.00    -0.658 OA 
HETATM   35  O   UNL     5      -9.782   8.615  67.286  1.00  0.00    -0.162 OA 
HETATM   36  O   UNL     5     -11.128   6.763  67.033  1.00  0.00    -0.403 OA 
HETATM   37  H   UNL     5     -11.822   5.880  69.044  1.00  0.00     0.000 HD 
ENDBRANCH  29  32
ENDBRANCH  26  29
ENDBRANCH  23  26
ENDBRANCH   7  23
TORSDOF 8
ENDMDL
MODEL      284
REMARK 921   NORMALIZED FREE ENERGY PREDICTED BY IDOCK:   -4.68 KCAL/MOL
REMARK 922        TOTAL FREE ENERGY PREDICTED BY IDOCK:   -9.11 KCAL/MOL
REMARK 923 INTER-LIGAND FREE ENERGY PREDICTED BY IDOCK:   -6.99 KCAL/MOL
REMARK 924 INTRA-LIGAND FREE ENERGY PREDICTED BY IDOCK:   -2.12 KCAL/MOL
REMARK 927      BINDING AFFINITY PREDICTED BY RF-SCORE:    0.00 PKD
ROOT
HETATM    1 MG   UNL     3     -10.086   8.819  62.682  1.00  0.00    -0.315 Mg 
HETATM    2  O   UNL     4     -12.377  14.425  64.038  1.00  0.00    -0.766 OA 
HETATM    3  C   UNL     4     -11.325  13.490  64.177  1.00  0.00    -0.340 C  
HETATM    4  H   UNL     4     -12.169  15.130  63.436  1.00  0.00     0.000 HD 
HETATM    5  O   UNL     5      -9.263   2.301  66.688  1.00  0.00    -0.284 OA 
HETATM    6  H   UNL     5     -10.033   1.748  66.620  1.00  0.00     0.000 HD 
HETATM    7  C   UNL     5      -9.605   3.646  67.024  1.00  0.00    -0.152 C  
ENDROOT
BRANCH   3   8
HETATM    8  C   UNL     4     -11.662  12.351  65.150  1.00  0.00    -0.382 C  
HETATM    9  O   UNL     4     -10.548  11.442  65.236  1.00  0.00    -0.273 OA 
HETATM   10  H   UNL     4     -10.757  10.737  65.838  1.00  0.00     0.000 HD 
BRANCH   8  11
HETATM   11  C   UNL     4     -12.055  12.706  66.614  1.00  0.00    -0.197 C  
HETATM   12  O   UNL     4     -12.169  11.566  67.459  1.00  0.00    -0.463 OA 
HETATM   13  H   UNL     4     -12.409  11.783  68.352  1.00  0.00     0.000 HD 
BRANCH  11  14
HETATM   14  C   UNL     4     -11.284  13.857  67.316  1.00  0.00    -0.312 C  
HETATM   15  H   UNL     4      -9.431  14.124  67.876  1.00  0.00     0.000 HD 
HETATM   16  O   UNL     4      -9.903  13.421  67.446  1.00  0.00    -0.220 OA 
BRANCH  14  17
HETATM   17  C   UNL     4     -11.804  14.435  68.664  1.00  0.00    -0.331 C  
HETATM   18  C   UNL     4     -11.285  15.908  68.936  1.00  0.00    -0.343 C  
HETATM   19  H   UNL     4     -11.928  13.874  70.578  1.00  0.00     0.000 HD 
HETATM   20  O   UNL     4     -11.611  13.521  69.755  1.00  0.00    -0.279 OA 
HETATM   21  O   UNL     4     -11.231  16.650  67.867  1.00  0.00    -0.263 OA 
HETATM   22  O   UNL     4     -10.893  16.212  70.096  1.00  0.00    -0.332 OA 
ENDBRANCH  14  17
ENDBRANCH  11  14
ENDBRANCH   8  11
ENDBRANCH   3   8
BRANCH   7  23
HETATM   23  C   UNL     5      -8.356   4.543  67.134  1.00  0.00    -0.105 C  
HETATM   24  O   UNL     5      -7.223   3.790  66.696  1.00  0.00    -0.066 OA 
HETATM   25  H   UNL     5      -6.454   4.342  66.764  1.00  0.00     0.000 HD 
BRANCH  23  26
HETATM   26  C   UNL     5      -8.511   5.842  66.315  1.00  0.00    -0.128 C  
HETATM   27  O   UNL     5      -9.822   5.870  65.705  1.00  0.00    -0.368 OA 
HETATM   28  H   UNL     5      -9.917   6.670  65.200  1.00  0.00     0.000 HD 
BRANCH  26  29
HETATM   29  C   UNL     5      -8.221   7.192  67.029  1.00  0.00    -0.117 C  
HETATM   30  O   UNL     5      -7.689   7.022  68.342  1.00  0.00    -0.114 OA 
HETATM   31  H   UNL     5      -7.512   7.847  68.779  1.00  0.00     0.000 HD 
BRANCH  29  32
HETATM   32  C   UNL     5      -9.317   8.269  67.003  1.00  0.00    -0.160 C  
HETATM   33  C   UNL     5      -8.931   9.641  67.593  1.00  0.00    -0.125 C  
HETATM   34  O   UNL     5     -10.545   7.769  67.644  1.00  0.00    -0.317 OA 
HETATM   35  O   UNL     5      -7.733  10.022  67.434  1.00  0.00    -0.095 OA 
HETATM   36  O   UNL     5      -9.882  10.203  68.245  1.00  0.00    -0.142 OA 
HETATM   37  H   UNL     5     -11.222   8.434  67.628  1.00  0.00     0.000 HD 
ENDBRANCH  29  32
ENDBRANCH  26  29
ENDBRANCH  23  26
ENDBRANCH   7  23
TORSDOF 8
ENDMDL
MODEL      285
REMARK 921   NORMALIZED FREE ENERGY PREDICTED BY IDOCK:   -4.68 KCAL/MOL
REMARK 922        TOTAL FREE ENERGY PREDICTED BY IDOCK:   -9.11 KCAL/MOL
REMARK 923 INTER-LIGAND FREE ENERGY PREDICTED BY IDOCK:   -5.30 KCAL/MOL
REMARK 924 INTRA-LIGAND FREE ENERGY PREDICTED BY IDOCK:   -3.80 KCAL/MOL
REMARK 927      BINDING AFFINITY PREDICTED BY RF-SCORE:    0.00 PKD
ROOT
HETATM    1 MG   UNL     3      -6.076   8.820  67.453  1.00  0.00    -0.043 Mg 
HETATM    2  O   UNL     4      -5.292   6.325  73.081  1.00  0.00    -0.034 OA 
HETATM    3  C   UNL     4      -6.094   6.454  71.924  1.00  0.00    -0.038 C  
HETATM    4  H   UNL     4      -4.830   5.496  73.122  1.00  0.00     0.000 HD 
HETATM    5  O   UNL     5     -10.578  14.420  64.699  1.00  0.00    -0.536 OA 
HETATM    6  H   UNL     5     -10.159  15.270  64.764  1.00  0.00     0.000 HD 
HETATM    7  C   UNL     5     -10.513  13.703  65.932  1.00  0.00    -0.296 C  
ENDROOT
BRANCH   3   8
HETATM    8  C   UNL     4      -6.841   7.794  71.859  1.00  0.00    -0.060 C  
HETATM    9  O   UNL     4      -6.084   8.732  71.069  1.00  0.00    -0.036 OA 
HETATM   10  H   UNL     4      -6.546   9.561  71.029  1.00  0.00     0.000 HD 
BRANCH   8  11
HETATM   11  C   UNL     4      -8.293   7.818  71.299  1.00  0.00    -0.104 C  
HETATM   12  O   UNL     4      -8.914   9.095  71.400  1.00  0.00    -0.283 OA 
HETATM   13  H   UNL     4      -9.801   9.109  71.058  1.00  0.00     0.000 HD 
BRANCH  11  14
HETATM   14  C   UNL     4      -8.550   7.170  69.911  1.00  0.00    -0.141 C  
HETATM   15  H   UNL     4      -8.071   7.630  68.074  1.00  0.00     0.000 HD 
HETATM   16  O   UNL     4      -7.914   8.026  68.923  1.00  0.00    -0.114 OA 
BRANCH  14  17
HETATM   17  C   UNL     4      -9.999   6.813  69.473  1.00  0.00    -0.162 C  
HETATM   18  C   UNL     4     -10.046   6.044  68.088  1.00  0.00    -0.160 C  
HETATM   19  H   UNL     4     -11.770   7.722  69.295  1.00  0.00     0.000 HD 
HETATM   20  O   UNL     4     -10.885   7.940  69.562  1.00  0.00    -0.221 OA 
HETATM   21  O   UNL     4      -9.071   5.196  67.927  1.00  0.00    -0.109 OA 
HETATM   22  O   UNL     4     -10.928   6.361  67.244  1.00  0.00    -0.342 OA 
ENDBRANCH  14  17
ENDBRANCH  11  14
ENDBRANCH   8  11
ENDBRANCH   3   8
BRANCH   7  23
HETATM   23  C   UNL     5     -11.193  12.323  65.826  1.00  0.00    -0.337 C  
HETATM   24  O   UNL     5     -12.117  12.361  64.738  1.00  0.00    -0.406 OA 
HETATM   25  H   UNL     5     -12.536  11.511  64.673  1.00  0.00     0.000 HD 
BRANCH  23  26
HETATM   26  C   UNL     5     -10.160  11.190  65.640  1.00  0.00    -0.253 C  
HETATM   27  O   UNL     5      -8.959  11.730  65.044  1.00  0.00    -0.406 OA 
HETATM   28  H   UNL     5      -8.324  11.032  64.929  1.00  0.00     0.000 HD 
BRANCH  26  29
HETATM   29  C   UNL     5      -9.803  10.321  66.878  1.00  0.00    -0.197 C  
HETATM   30  O   UNL     5     -10.807   9.354  67.187  1.00  0.00    -0.262 OA 
HETATM   31  H   UNL     5     -10.588   8.822  67.943  1.00  0.00     0.000 HD 
BRANCH  29  32
HETATM   32  C   UNL     5      -9.311  11.040  68.144  1.00  0.00    -0.173 C  
HETATM   33  C   UNL     5      -7.781  11.097  68.339  1.00  0.00    -0.125 C  
HETATM   34  O   UNL     5      -9.954  10.473  69.341  1.00  0.00    -0.235 OA 
HETATM   35  O   UNL     5      -7.070  11.197  67.296  1.00  0.00    -0.095 OA 
HETATM   36  O   UNL     5      -7.417  10.963  69.561  1.00  0.00    -0.137 OA 
HETATM   37  H   UNL     5      -9.650  10.918  70.123  1.00  0.00     0.000 HD 
ENDBRANCH  29  32
ENDBRANCH  26  29
ENDBRANCH  23  26
ENDBRANCH   7  23
TORSDOF 8
ENDMDL
MODEL      286
REMARK 921   NORMALIZED FREE ENERGY PREDICTED BY IDOCK:   -4.67 KCAL/MOL
REMARK 922        TOTAL FREE ENERGY PREDICTED BY IDOCK:   -9.11 KCAL/MOL
REMARK 923 INTER-LIGAND FREE ENERGY PREDICTED BY IDOCK:   -8.03 KCAL/MOL
REMARK 924 INTRA-LIGAND FREE ENERGY PREDICTED BY IDOCK:   -1.08 KCAL/MOL
REMARK 927      BINDING AFFINITY PREDICTED BY RF-SCORE:    0.00 PKD
ROOT
HETATM    1 MG   UNL     3      -6.677  11.914  65.890  1.00  0.00    -0.352 Mg 
HETATM    2  O   UNL     4      -8.131  17.942  65.630  1.00  0.00    -0.514 OA 
HETATM    3  C   UNL     4      -7.951  16.780  66.417  1.00  0.00    -0.321 C  
HETATM    4  H   UNL     4      -7.413  18.559  65.711  1.00  0.00     0.000 HD 
HETATM    5  O   UNL     5     -10.791   5.491  66.909  1.00  0.00    -0.408 OA 
HETATM    6  H   UNL     5     -11.107   5.143  66.084  1.00  0.00     0.000 HD 
HETATM    7  C   UNL     5     -11.066   6.887  67.034  1.00  0.00    -0.245 C  
ENDROOT
BRANCH   3   8
HETATM    8  C   UNL     4      -9.111  15.782  66.286  1.00  0.00    -0.338 C  
HETATM    9  O   UNL     4      -8.589  14.444  66.191  1.00  0.00    -0.353 OA 
HETATM   10  H   UNL     4      -9.307  13.826  66.109  1.00  0.00     0.000 HD 
BRANCH   8  11
HETATM   11  C   UNL     4     -10.204  15.753  67.394  1.00  0.00    -0.270 C  
HETATM   12  O   UNL     4     -10.522  17.042  67.905  1.00  0.00    -0.326 OA 
HETATM   13  H   UNL     4     -11.189  17.024  68.581  1.00  0.00     0.000 HD 
BRANCH  11  14
HETATM   14  C   UNL     4     -11.485  14.915  67.131  1.00  0.00    -0.335 C  
HETATM   15  H   UNL     4     -12.725  13.915  68.261  1.00  0.00     0.000 HD 
HETATM   16  O   UNL     4     -11.941  14.427  68.422  1.00  0.00    -0.331 OA 
BRANCH  14  17
HETATM   17  C   UNL     4     -11.462  13.762  66.087  1.00  0.00    -0.338 C  
HETATM   18  C   UNL     4     -12.223  14.136  64.748  1.00  0.00    -0.440 C  
HETATM   19  H   UNL     4     -11.833  11.799  66.026  1.00  0.00     0.000 HD 
HETATM   20  O   UNL     4     -11.847  12.504  66.663  1.00  0.00    -0.437 OA 
HETATM   21  O   UNL     4     -12.057  15.374  64.379  1.00  0.00    -0.387 OA 
HETATM   22  O   UNL     4     -12.974  13.275  64.212  1.00  0.00    -0.590 OA 
ENDBRANCH  14  17
ENDBRANCH  11  14
ENDBRANCH   8  11
ENDBRANCH   3   8
BRANCH   7  23
HETATM   23  C   UNL     5     -10.553   7.452  68.374  1.00  0.00    -0.152 C  
HETATM   24  O   UNL     5     -11.527   7.171  69.381  1.00  0.00    -0.495 OA 
HETATM   25  H   UNL     5     -11.212   7.520  70.206  1.00  0.00     0.000 HD 
BRANCH  23  26
HETATM   26  C   UNL     5      -9.176   6.865  68.753  1.00  0.00    -0.131 C  
HETATM   27  O   UNL     5      -8.270   7.942  69.082  1.00  0.00    -0.127 OA 
HETATM   28  H   UNL     5      -7.423   7.581  69.315  1.00  0.00     0.000 HD 
BRANCH  26  29
HETATM   29  C   UNL     5      -9.131   5.768  69.853  1.00  0.00    -0.144 C  
HETATM   30  O   UNL     5     -10.091   4.733  69.645  1.00  0.00    -0.229 OA 
HETATM   31  H   UNL     5     -10.063   4.062  70.318  1.00  0.00     0.000 HD 
BRANCH  29  32
HETATM   32  C   UNL     5      -9.107   6.223  71.321  1.00  0.00    -0.146 C  
HETATM   33  C   UNL     5      -9.541   5.171  72.363  1.00  0.00    -0.148 C  
HETATM   34  O   UNL     5      -9.891   7.458  71.490  1.00  0.00    -0.173 OA 
HETATM   35  O   UNL     5      -9.248   3.962  72.120  1.00  0.00    -0.112 OA 
HETATM   36  O   UNL     5     -10.222   5.662  73.332  1.00  0.00    -0.182 OA 
HETATM   37  H   UNL     5      -9.876   7.739  72.397  1.00  0.00     0.000 HD 
ENDBRANCH  29  32
ENDBRANCH  26  29
ENDBRANCH  23  26
ENDBRANCH   7  23
TORSDOF 8
ENDMDL
MODEL      287
REMARK 921   NORMALIZED FREE ENERGY PREDICTED BY IDOCK:   -4.66 KCAL/MOL
REMARK 922        TOTAL FREE ENERGY PREDICTED BY IDOCK:   -9.08 KCAL/MOL
REMARK 923 INTER-LIGAND FREE ENERGY PREDICTED BY IDOCK:   -7.50 KCAL/MOL
REMARK 924 INTRA-LIGAND FREE ENERGY PREDICTED BY IDOCK:   -1.59 KCAL/MOL
REMARK 927      BINDING AFFINITY PREDICTED BY RF-SCORE:    0.00 PKD
ROOT
HETATM    1 MG   UNL     3     -13.461  10.898  70.111  1.00  0.00    -0.240 Mg 
HETATM    2  O   UNL     4     -10.744   6.381  73.388  1.00  0.00    -0.259 OA 
HETATM    3  C   UNL     4     -10.671   7.688  72.850  1.00  0.00    -0.371 C  
HETATM    4  H   UNL     4     -10.905   6.375  74.325  1.00  0.00     0.000 HD 
HETATM    5  O   UNL     5     -12.430  13.670  63.008  1.00  0.00    -1.020 OA 
HETATM    6  H   UNL     5     -12.959  13.205  62.370  1.00  0.00     0.000 HD 
HETATM    7  C   UNL     5     -11.704  12.773  63.848  1.00  0.00    -0.459 C  
ENDROOT
BRANCH   3   8
HETATM    8  C   UNL     4     -10.411   7.698  71.337  1.00  0.00    -0.196 C  
HETATM    9  O   UNL     4     -10.841   8.954  70.780  1.00  0.00    -0.217 OA 
HETATM   10  H   UNL     4     -10.680   8.960  69.843  1.00  0.00     0.000 HD 
BRANCH   8  11
HETATM   11  C   UNL     4      -8.960   7.462  70.824  1.00  0.00    -0.151 C  
HETATM   12  O   UNL     4      -8.175   6.663  71.703  1.00  0.00    -0.110 OA 
HETATM   13  H   UNL     4      -7.290   6.519  71.389  1.00  0.00     0.000 HD 
BRANCH  11  14
HETATM   14  C   UNL     4      -8.771   7.029  69.345  1.00  0.00    -0.133 C  
HETATM   15  H   UNL     4      -9.946   6.278  67.975  1.00  0.00     0.000 HD 
HETATM   16  O   UNL     4     -10.061   6.543  68.880  1.00  0.00    -0.153 OA 
BRANCH  14  17
HETATM   17  C   UNL     4      -7.642   6.030  68.962  1.00  0.00    -0.091 C  
HETATM   18  C   UNL     4      -7.506   5.834  67.395  1.00  0.00    -0.081 C  
HETATM   19  H   UNL     4      -7.031   4.199  69.481  1.00  0.00     0.000 HD 
HETATM   20  O   UNL     4      -7.721   4.809  69.714  1.00  0.00    -0.058 OA 
HETATM   21  O   UNL     4      -7.691   6.927  66.712  1.00  0.00    -0.098 OA 
HETATM   22  O   UNL     4      -7.329   4.670  66.939  1.00  0.00    -0.078 OA 
ENDBRANCH  14  17
ENDBRANCH  11  14
ENDBRANCH   8  11
ENDBRANCH   3   8
BRANCH   7  23
HETATM   23  C   UNL     5     -10.845  13.528  64.883  1.00  0.00    -0.362 C  
HETATM   24  O   UNL     5     -10.767  14.898  64.486  1.00  0.00    -0.607 OA 
HETATM   25  H   UNL     5     -10.239  15.363  65.124  1.00  0.00     0.000 HD 
BRANCH  23  26
HETATM   26  C   UNL     5     -11.421  13.393  66.309  1.00  0.00    -0.325 C  
HETATM   27  O   UNL     5     -12.259  12.217  66.378  1.00  0.00    -0.613 OA 
HETATM   28  H   UNL     5     -12.613  12.134  67.256  1.00  0.00     0.000 HD 
BRANCH  26  29
HETATM   29  C   UNL     5     -10.423  13.414  67.501  1.00  0.00    -0.236 C  
HETATM   30  O   UNL     5     -10.832  12.576  68.582  1.00  0.00    -0.235 OA 
HETATM   31  H   UNL     5     -10.222  12.588  69.311  1.00  0.00     0.000 HD 
BRANCH  29  32
HETATM   32  C   UNL     5      -9.935  14.781  68.006  1.00  0.00    -0.218 C  
HETATM   33  C   UNL     5     -11.025  15.736  68.535  1.00  0.00    -0.312 C  
HETATM   34  O   UNL     5      -9.130  15.453  66.973  1.00  0.00    -0.204 OA 
HETATM   35  O   UNL     5     -12.013  15.212  69.130  1.00  0.00    -0.307 OA 
HETATM   36  O   UNL     5     -10.817  16.965  68.234  1.00  0.00    -0.362 OA 
HETATM   37  H   UNL     5      -8.828  16.297  67.284  1.00  0.00     0.000 HD 
ENDBRANCH  29  32
ENDBRANCH  26  29
ENDBRANCH  23  26
ENDBRANCH   7  23
TORSDOF 8
ENDMDL
MODEL      288
REMARK 921   NORMALIZED FREE ENERGY PREDICTED BY IDOCK:   -4.66 KCAL/MOL
REMARK 922        TOTAL FREE ENERGY PREDICTED BY IDOCK:   -9.08 KCAL/MOL
REMARK 923 INTER-LIGAND FREE ENERGY PREDICTED BY IDOCK:   -7.75 KCAL/MOL
REMARK 924 INTRA-LIGAND FREE ENERGY PREDICTED BY IDOCK:   -1.33 KCAL/MOL
REMARK 927      BINDING AFFINITY PREDICTED BY RF-SCORE:    0.00 PKD
ROOT
HETATM    1 MG   UNL     3      -7.792   9.541  71.252  1.00  0.00    -0.130 Mg 
HETATM    2  O   UNL     4      -8.696   3.434  70.614  1.00  0.00    -0.068 OA 
HETATM    3  C   UNL     4      -8.507   4.693  69.997  1.00  0.00    -0.073 C  
HETATM    4  H   UNL     4      -7.919   2.887  70.583  1.00  0.00     0.000 HD 
HETATM    5  O   UNL     5     -12.288  15.710  70.284  1.00  0.00    -0.400 OA 
HETATM    6  H   UNL     5     -12.757  15.930  71.080  1.00  0.00     0.000 HD 
HETATM    7  C   UNL     5     -12.408  14.324  69.964  1.00  0.00    -0.346 C  
ENDROOT
BRANCH   3   8
HETATM    8  C   UNL     4      -9.762   5.577  70.046  1.00  0.00    -0.178 C  
HETATM    9  O   UNL     4     -10.620   5.140  71.117  1.00  0.00    -0.205 OA 
HETATM   10  H   UNL     4     -11.397   5.687  71.148  1.00  0.00     0.000 HD 
BRANCH   8  11
HETATM   11  C   UNL     4      -9.591   7.115  70.218  1.00  0.00    -0.169 C  
HETATM   12  O   UNL     4      -8.445   7.631  69.549  1.00  0.00    -0.129 OA 
HETATM   13  H   UNL     4      -8.340   8.569  69.654  1.00  0.00     0.000 HD 
BRANCH  11  14
HETATM   14  C   UNL     4     -10.834   8.016  69.989  1.00  0.00    -0.235 C  
HETATM   15  H   UNL     4     -11.256   9.488  68.775  1.00  0.00     0.000 HD 
HETATM   16  O   UNL     4     -10.496   8.936  68.915  1.00  0.00    -0.217 OA 
BRANCH  14  17
HETATM   17  C   UNL     4     -11.472   8.782  71.184  1.00  0.00    -0.286 C  
HETATM   18  C   UNL     4     -12.925   8.259  71.537  1.00  0.00    -0.291 C  
HETATM   19  H   UNL     4     -11.759  10.675  71.759  1.00  0.00     0.000 HD 
HETATM   20  O   UNL     4     -11.369  10.207  71.030  1.00  0.00    -0.347 OA 
HETATM   21  O   UNL     4     -13.060   6.969  71.423  1.00  0.00    -0.376 OA 
HETATM   22  O   UNL     4     -13.829   9.099  71.801  1.00  0.00    -0.389 OA 
ENDBRANCH  14  17
ENDBRANCH  11  14
ENDBRANCH   8  11
ENDBRANCH   3   8
BRANCH   7  23
HETATM   23  C   UNL     5     -11.646  13.967  68.672  1.00  0.00    -0.325 C  
HETATM   24  O   UNL     5     -12.444  14.368  67.557  1.00  0.00    -0.599 OA 
HETATM   25  H   UNL     5     -11.975  14.147  66.761  1.00  0.00     0.000 HD 
BRANCH  23  26
HETATM   26  C   UNL     5     -10.254  14.633  68.627  1.00  0.00    -0.244 C  
HETATM   27  O   UNL     5      -9.234  13.627  68.822  1.00  0.00    -0.377 OA 
HETATM   28  H   UNL     5      -8.378  14.037  68.794  1.00  0.00     0.000 HD 
BRANCH  26  29
HETATM   29  C   UNL     5      -9.909  15.517  67.396  1.00  0.00    -0.224 C  
HETATM   30  O   UNL     5     -10.905  16.502  67.122  1.00  0.00    -0.262 OA 
HETATM   31  H   UNL     5     -10.695  17.042  66.369  1.00  0.00     0.000 HD 
BRANCH  29  32
HETATM   32  C   UNL     5      -9.452  14.811  66.109  1.00  0.00    -0.292 C  
HETATM   33  C   UNL     5     -10.573  14.369  65.145  1.00  0.00    -0.410 C  
HETATM   34  O   UNL     5      -8.581  13.668  66.432  1.00  0.00    -0.423 OA 
HETATM   35  O   UNL     5     -11.597  15.111  65.072  1.00  0.00    -0.354 OA 
HETATM   36  O   UNL     5     -10.344  13.242  64.578  1.00  0.00    -0.397 OA 
HETATM   37  H   UNL     5      -8.298  13.232  65.637  1.00  0.00     0.000 HD 
ENDBRANCH  29  32
ENDBRANCH  26  29
ENDBRANCH  23  26
ENDBRANCH   7  23
TORSDOF 8
ENDMDL
MODEL      289
REMARK 921   NORMALIZED FREE ENERGY PREDICTED BY IDOCK:   -4.65 KCAL/MOL
REMARK 922        TOTAL FREE ENERGY PREDICTED BY IDOCK:   -9.07 KCAL/MOL
REMARK 923 INTER-LIGAND FREE ENERGY PREDICTED BY IDOCK:   -7.52 KCAL/MOL
REMARK 924 INTRA-LIGAND FREE ENERGY PREDICTED BY IDOCK:   -1.56 KCAL/MOL
REMARK 927      BINDING AFFINITY PREDICTED BY RF-SCORE:    0.00 PKD
ROOT
HETATM    1 MG   UNL     3      -6.111  10.336  69.285  1.00  0.00    -0.038 Mg 
HETATM    2  O   UNL     4      -6.351  16.533  69.057  1.00  0.00    -0.149 OA 
HETATM    3  C   UNL     4      -6.827  15.331  69.631  1.00  0.00    -0.187 C  
HETATM    4  H   UNL     4      -5.756  17.006  69.628  1.00  0.00     0.000 HD 
HETATM    5  O   UNL     5     -10.770   4.740  66.798  1.00  0.00    -0.240 OA 
HETATM    6  H   UNL     5     -10.566   4.485  65.906  1.00  0.00     0.000 HD 
HETATM    7  C   UNL     5     -10.888   6.156  66.929  1.00  0.00    -0.335 C  
ENDROOT
BRANCH   3   8
HETATM    8  C   UNL     4      -7.787  14.567  68.708  1.00  0.00    -0.145 C  
HETATM    9  O   UNL     4      -7.871  13.192  69.128  1.00  0.00    -0.324 OA 
HETATM   10  H   UNL     4      -8.465  12.719  68.556  1.00  0.00     0.000 HD 
BRANCH   8  11
HETATM   11  C   UNL     4      -9.252  15.074  68.564  1.00  0.00    -0.192 C  
HETATM   12  O   UNL     4     -10.160  14.432  69.453  1.00  0.00    -0.420 OA 
HETATM   13  H   UNL     4     -11.053  14.742  69.365  1.00  0.00     0.000 HD 
BRANCH  11  14
HETATM   14  C   UNL     4      -9.491  16.607  68.520  1.00  0.00    -0.239 C  
HETATM   15  H   UNL     4     -10.644  17.844  69.499  1.00  0.00     0.000 HD 
HETATM   16  O   UNL     4     -10.498  16.906  69.526  1.00  0.00    -0.303 OA 
BRANCH  14  17
HETATM   17  C   UNL     4      -9.840  17.304  67.174  1.00  0.00    -0.269 C  
HETATM   18  C   UNL     4      -8.555  17.815  66.400  1.00  0.00    -0.231 C  
HETATM   19  H   UNL     4     -11.091  18.712  66.503  1.00  0.00     0.000 HD 
HETATM   20  O   UNL     4     -10.878  18.286  67.325  1.00  0.00    -0.373 OA 
HETATM   21  O   UNL     4      -7.535  17.011  66.491  1.00  0.00    -0.233 OA 
HETATM   22  O   UNL     4      -8.583  18.953  65.856  1.00  0.00    -0.471 OA 
ENDBRANCH  14  17
ENDBRANCH  11  14
ENDBRANCH   8  11
ENDBRANCH   3   8
BRANCH   7  23
HETATM   23  C   UNL     5     -11.219   6.570  68.377  1.00  0.00    -0.180 C  
HETATM   24  O   UNL     5     -10.732   5.555  69.256  1.00  0.00    -0.277 OA 
HETATM   25  H   UNL     5     -10.936   5.810  70.148  1.00  0.00     0.000 HD 
BRANCH  23  26
HETATM   26  C   UNL     5     -10.617   7.948  68.729  1.00  0.00    -0.127 C  
HETATM   27  O   UNL     5     -11.073   8.930  67.771  1.00  0.00    -0.493 OA 
HETATM   28  H   UNL     5     -10.702   9.777  67.988  1.00  0.00     0.000 HD 
BRANCH  26  29
HETATM   29  C   UNL     5     -10.811   8.478  70.177  1.00  0.00    -0.233 C  
HETATM   30  O   UNL     5     -11.998   7.984  70.796  1.00  0.00    -0.440 OA 
HETATM   31  H   UNL     5     -12.117   8.308  71.681  1.00  0.00     0.000 HD 
BRANCH  29  32
HETATM   32  C   UNL     5     -10.639   9.986  70.420  1.00  0.00    -0.280 C  
HETATM   33  C   UNL     5     -11.875  10.863  70.128  1.00  0.00    -0.353 C  
HETATM   34  O   UNL     5      -9.471  10.496  69.683  1.00  0.00    -0.386 OA 
HETATM   35  O   UNL     5     -13.011  10.358  70.369  1.00  0.00    -0.303 OA 
HETATM   36  O   UNL     5     -11.585  11.996  69.601  1.00  0.00    -0.296 OA 
HETATM   37  H   UNL     5      -9.364  11.428  69.833  1.00  0.00     0.000 HD 
ENDBRANCH  29  32
ENDBRANCH  26  29
ENDBRANCH  23  26
ENDBRANCH   7  23
TORSDOF 8
ENDMDL
MODEL      290
REMARK 921   NORMALIZED FREE ENERGY PREDICTED BY IDOCK:   -4.65 KCAL/MOL
REMARK 922        TOTAL FREE ENERGY PREDICTED BY IDOCK:   -9.07 KCAL/MOL
REMARK 923 INTER-LIGAND FREE ENERGY PREDICTED BY IDOCK:   -7.42 KCAL/MOL
REMARK 924 INTRA-LIGAND FREE ENERGY PREDICTED BY IDOCK:   -1.65 KCAL/MOL
REMARK 927      BINDING AFFINITY PREDICTED BY RF-SCORE:    0.00 PKD
ROOT
HETATM    1 MG   UNL     3      -6.993   8.594  67.182  1.00  0.00    -0.063 Mg 
HETATM    2  O   UNL     4      -7.149   3.676  70.965  1.00  0.00    -0.032 OA 
HETATM    3  C   UNL     4      -7.863   4.635  70.209  1.00  0.00    -0.057 C  
HETATM    4  H   UNL     4      -7.131   2.819  70.555  1.00  0.00     0.000 HD 
HETATM    5  O   UNL     5      -8.474  16.084  68.136  1.00  0.00    -0.164 OA 
HETATM    6  H   UNL     5      -7.701  16.562  68.412  1.00  0.00     0.000 HD 
HETATM    7  C   UNL     5      -8.683  14.914  68.926  1.00  0.00    -0.180 C  
ENDROOT
BRANCH   3   8
HETATM    8  C   UNL     4      -7.891   6.020  70.872  1.00  0.00    -0.107 C  
HETATM    9  O   UNL     4      -7.348   7.001  69.969  1.00  0.00    -0.077 OA 
HETATM   10  H   UNL     4      -7.365   7.857  70.380  1.00  0.00     0.000 HD 
BRANCH   8  11
HETATM   11  C   UNL     4      -9.253   6.586  71.370  1.00  0.00    -0.148 C  
HETATM   12  O   UNL     4      -9.155   7.281  72.609  1.00  0.00    -0.134 OA 
HETATM   13  H   UNL     4      -9.986   7.626  72.912  1.00  0.00     0.000 HD 
BRANCH  11  14
HETATM   14  C   UNL     4     -10.136   7.360  70.354  1.00  0.00    -0.192 C  
HETATM   15  H   UNL     4     -10.443   7.232  68.429  1.00  0.00     0.000 HD 
HETATM   16  O   UNL     4      -9.904   6.758  69.051  1.00  0.00    -0.147 OA 
BRANCH  14  17
HETATM   17  C   UNL     4     -10.045   8.910  70.265  1.00  0.00    -0.189 C  
HETATM   18  C   UNL     4     -11.292   9.633  70.922  1.00  0.00    -0.360 C  
HETATM   19  H   UNL     4      -9.669  10.305  68.884  1.00  0.00     0.000 HD 
HETATM   20  O   UNL     4      -9.725   9.358  68.938  1.00  0.00    -0.158 OA 
HETATM   21  O   UNL     4     -11.725   9.050  72.004  1.00  0.00    -0.357 OA 
HETATM   22  O   UNL     4     -11.809  10.620  70.329  1.00  0.00    -0.283 OA 
ENDBRANCH  14  17
ENDBRANCH  11  14
ENDBRANCH   8  11
ENDBRANCH   3   8
BRANCH   7  23
HETATM   23  C   UNL     5      -9.938  14.139  68.479  1.00  0.00    -0.235 C  
HETATM   24  O   UNL     5      -9.875  12.824  69.035  1.00  0.00    -0.406 OA 
HETATM   25  H   UNL     5     -10.648  12.346  68.759  1.00  0.00     0.000 HD 
BRANCH  23  26
HETATM   26  C   UNL     5     -11.236  14.860  68.903  1.00  0.00    -0.269 C  
HETATM   27  O   UNL     5     -12.241  14.681  67.878  1.00  0.00    -0.593 OA 
HETATM   28  H   UNL     5     -13.039  15.125  68.139  1.00  0.00     0.000 HD 
BRANCH  26  29
HETATM   29  C   UNL     5     -11.829  14.529  70.301  1.00  0.00    -0.308 C  
HETATM   30  O   UNL     5     -12.387  13.217  70.371  1.00  0.00    -0.333 OA 
HETATM   31  H   UNL     5     -12.750  13.015  71.226  1.00  0.00     0.000 HD 
BRANCH  29  32
HETATM   32  C   UNL     5     -12.756  15.568  70.953  1.00  0.00    -0.468 C  
HETATM   33  C   UNL     5     -12.673  15.678  72.490  1.00  0.00    -0.433 C  
HETATM   34  O   UNL     5     -14.150  15.347  70.535  1.00  0.00    -0.693 OA 
HETATM   35  O   UNL     5     -11.538  15.490  73.022  1.00  0.00    -0.439 OA 
HETATM   36  O   UNL     5     -13.809  15.883  73.049  1.00  0.00    -0.592 OA 
HETATM   37  H   UNL     5     -14.723  15.989  70.938  1.00  0.00     0.000 HD 
ENDBRANCH  29  32
ENDBRANCH  26  29
ENDBRANCH  23  26
ENDBRANCH   7  23
TORSDOF 8
ENDMDL
MODEL      291
REMARK 921   NORMALIZED FREE ENERGY PREDICTED BY IDOCK:   -4.64 KCAL/MOL
REMARK 922        TOTAL FREE ENERGY PREDICTED BY IDOCK:   -9.05 KCAL/MOL
REMARK 923 INTER-LIGAND FREE ENERGY PREDICTED BY IDOCK:   -7.73 KCAL/MOL
REMARK 924 INTRA-LIGAND FREE ENERGY PREDICTED BY IDOCK:   -1.32 KCAL/MOL
REMARK 927      BINDING AFFINITY PREDICTED BY RF-SCORE:    0.00 PKD
ROOT
HETATM    1 MG   UNL     3     -13.184  10.010  69.524  1.00  0.00    -0.563 Mg 
HETATM    2  O   UNL     4     -12.147  16.054  70.474  1.00  0.00    -0.427 OA 
HETATM    3  C   UNL     4     -12.323  14.994  69.555  1.00  0.00    -0.164 C  
HETATM    4  H   UNL     4     -12.912  16.614  70.544  1.00  0.00     0.000 HD 
HETATM    5  O   UNL     5      -8.745   4.145  67.265  1.00  0.00    -0.103 OA 
HETATM    6  H   UNL     5      -8.323   3.720  68.002  1.00  0.00     0.000 HD 
HETATM    7  C   UNL     5      -8.586   5.562  67.307  1.00  0.00    -0.108 C  
ENDROOT
BRANCH   3   8
HETATM    8  C   UNL     4     -11.087  14.089  69.442  1.00  0.00    -0.203 C  
HETATM    9  O   UNL     4     -11.392  12.954  68.610  1.00  0.00    -0.249 OA 
HETATM   10  H   UNL     4     -10.628  12.394  68.541  1.00  0.00     0.000 HD 
BRANCH   8  11
HETATM   11  C   UNL     4      -9.762  14.694  68.894  1.00  0.00    -0.196 C  
HETATM   12  O   UNL     4      -8.654  13.805  68.993  1.00  0.00    -0.362 OA 
HETATM   13  H   UNL     4      -7.845  14.174  68.658  1.00  0.00     0.000 HD 
BRANCH  11  14
HETATM   14  C   UNL     4      -9.800  15.399  67.511  1.00  0.00    -0.217 C  
HETATM   15  H   UNL     4      -8.443  16.018  66.249  1.00  0.00     0.000 HD 
HETATM   16  O   UNL     4      -8.419  15.586  67.095  1.00  0.00    -0.179 OA 
BRANCH  14  17
HETATM   17  C   UNL     4     -10.609  16.716  67.329  1.00  0.00    -0.281 C  
HETATM   18  C   UNL     4     -10.588  17.244  65.835  1.00  0.00    -0.204 C  
HETATM   19  H   UNL     4     -10.762  18.505  68.207  1.00  0.00     0.000 HD 
HETATM   20  O   UNL     4     -10.268  17.701  68.317  1.00  0.00    -0.331 OA 
HETATM   21  O   UNL     4     -10.645  16.296  64.944  1.00  0.00    -0.650 OA 
HETATM   22  O   UNL     4     -10.430  18.478  65.626  1.00  0.00    -0.615 OA 
ENDBRANCH  14  17
ENDBRANCH  11  14
ENDBRANCH   8  11
ENDBRANCH   3   8
BRANCH   7  23
HETATM   23  C   UNL     5      -9.271   6.251  66.110  1.00  0.00    -0.120 C  
HETATM   24  O   UNL     5     -10.645   6.459  66.439  1.00  0.00    -0.471 OA 
HETATM   25  H   UNL     5     -11.067   6.883  65.701  1.00  0.00     0.000 HD 
BRANCH  23  26
HETATM   26  C   UNL     5      -8.579   7.582  65.744  1.00  0.00    -0.142 C  
HETATM   27  O   UNL     5      -8.471   7.687  64.306  1.00  0.00    -0.368 OA 
HETATM   28  H   UNL     5      -8.045   8.506  64.082  1.00  0.00     0.000 HD 
BRANCH  26  29
HETATM   29  C   UNL     5      -9.165   8.894  66.337  1.00  0.00    -0.189 C  
HETATM   30  O   UNL     5     -10.425   8.699  66.978  1.00  0.00    -0.295 OA 
HETATM   31  H   UNL     5     -10.784   9.501  67.341  1.00  0.00     0.000 HD 
BRANCH  29  32
HETATM   32  C   UNL     5      -9.179  10.144  65.443  1.00  0.00    -0.202 C  
HETATM   33  C   UNL     5      -9.488  11.479  66.151  1.00  0.00    -0.220 C  
HETATM   34  O   UNL     5     -10.091   9.951  64.303  1.00  0.00    -0.443 OA 
HETATM   35  O   UNL     5      -9.067  11.615  67.338  1.00  0.00    -0.163 OA 
HETATM   36  O   UNL     5     -10.211  12.274  65.450  1.00  0.00    -0.261 OA 
HETATM   37  H   UNL     5     -10.100  10.723  63.751  1.00  0.00     0.000 HD 
ENDBRANCH  29  32
ENDBRANCH  26  29
ENDBRANCH  23  26
ENDBRANCH   7  23
TORSDOF 8
ENDMDL
MODEL      292
REMARK 921   NORMALIZED FREE ENERGY PREDICTED BY IDOCK:   -4.64 KCAL/MOL
REMARK 922        TOTAL FREE ENERGY PREDICTED BY IDOCK:   -9.05 KCAL/MOL
REMARK 923 INTER-LIGAND FREE ENERGY PREDICTED BY IDOCK:   -6.67 KCAL/MOL
REMARK 924 INTRA-LIGAND FREE ENERGY PREDICTED BY IDOCK:   -2.38 KCAL/MOL
REMARK 927      BINDING AFFINITY PREDICTED BY RF-SCORE:    0.00 PKD
ROOT
HETATM    1 MG   UNL     3     -11.660  10.624  71.231  1.00  0.00    -0.289 Mg 
HETATM    2  O   UNL     4     -12.245  16.430  69.118  1.00  0.00    -0.185 OA 
HETATM    3  C   UNL     4     -12.232  15.043  68.838  1.00  0.00    -0.101 C  
HETATM    4  H   UNL     4     -13.121  16.799  69.118  1.00  0.00     0.000 HD 
HETATM    5  O   UNL     5      -6.081   5.342  70.791  1.00  0.00    -0.020 OA 
HETATM    6  H   UNL     5      -5.467   5.421  71.511  1.00  0.00     0.000 HD 
HETATM    7  C   UNL     5      -6.321   6.600  70.160  1.00  0.00    -0.039 C  
ENDROOT
BRANCH   3   8
HETATM    8  C   UNL     4     -10.817  14.446  68.838  1.00  0.00    -0.256 C  
HETATM    9  O   UNL     4     -10.271  14.496  70.170  1.00  0.00    -0.336 OA 
HETATM   10  H   UNL     4      -9.396  14.127  70.170  1.00  0.00     0.000 HD 
BRANCH   8  11
HETATM   11  C   UNL     4     -10.619  12.987  68.334  1.00  0.00    -0.251 C  
HETATM   12  O   UNL     4     -10.368  12.058  69.384  1.00  0.00    -0.420 OA 
HETATM   13  H   UNL     4     -10.247  11.168  69.076  1.00  0.00     0.000 HD 
BRANCH  11  14
HETATM   14  C   UNL     4     -11.642  12.423  67.312  1.00  0.00    -0.365 C  
HETATM   15  H   UNL     4     -12.507  10.691  67.049  1.00  0.00     0.000 HD 
HETATM   16  O   UNL     4     -11.881  11.036  67.675  1.00  0.00    -0.599 OA 
BRANCH  14  17
HETATM   17  C   UNL     4     -11.371  12.550  65.785  1.00  0.00    -0.336 C  
HETATM   18  C   UNL     4     -12.653  13.005  64.973  1.00  0.00    -0.454 C  
HETATM   19  H   UNL     4     -10.540  11.469  64.324  1.00  0.00     0.000 HD 
HETATM   20  O   UNL     4     -10.706  11.392  65.256  1.00  0.00    -0.287 OA 
HETATM   21  O   UNL     4     -13.384  13.884  65.597  1.00  0.00    -0.620 OA 
HETATM   22  O   UNL     4     -12.911  12.441  63.874  1.00  0.00    -0.754 OA 
ENDBRANCH  14  17
ENDBRANCH  11  14
ENDBRANCH   8  11
ENDBRANCH   3   8
BRANCH   7  23
HETATM   23  C   UNL     5      -7.318   6.473  68.991  1.00  0.00    -0.093 C  
HETATM   24  O   UNL     5      -7.324   5.113  68.554  1.00  0.00    -0.068 OA 
HETATM   25  H   UNL     5      -7.938   5.035  67.833  1.00  0.00     0.000 HD 
BRANCH  23  26
HETATM   26  C   UNL     5      -8.735   6.934  69.396  1.00  0.00    -0.133 C  
HETATM   27  O   UNL     5      -9.037   6.445  70.722  1.00  0.00    -0.149 OA 
HETATM   28  H   UNL     5      -9.909   6.729  70.971  1.00  0.00     0.000 HD 
BRANCH  26  29
HETATM   29  C   UNL     5      -9.064   8.450  69.293  1.00  0.00    -0.150 C  
HETATM   30  O   UNL     5     -10.428   8.744  69.593  1.00  0.00    -0.213 OA 
HETATM   31  H   UNL     5     -10.629   9.670  69.531  1.00  0.00     0.000 HD 
BRANCH  29  32
HETATM   32  C   UNL     5      -8.590   9.205  68.041  1.00  0.00    -0.125 C  
HETATM   33  C   UNL     5      -7.667  10.417  68.290  1.00  0.00    -0.096 C  
HETATM   34  O   UNL     5      -9.742   9.606  67.216  1.00  0.00    -0.154 OA 
HETATM   35  O   UNL     5      -6.862  10.339  69.265  1.00  0.00    -0.055 OA 
HETATM   36  O   UNL     5      -7.890  11.400  67.497  1.00  0.00    -0.116 OA 
HETATM   37  H   UNL     5      -9.450  10.073  66.442  1.00  0.00     0.000 HD 
ENDBRANCH  29  32
ENDBRANCH  26  29
ENDBRANCH  23  26
ENDBRANCH   7  23
TORSDOF 8
ENDMDL
MODEL      293
REMARK 921   NORMALIZED FREE ENERGY PREDICTED BY IDOCK:   -4.63 KCAL/MOL
REMARK 922        TOTAL FREE ENERGY PREDICTED BY IDOCK:   -9.03 KCAL/MOL
REMARK 923 INTER-LIGAND FREE ENERGY PREDICTED BY IDOCK:   -7.28 KCAL/MOL
REMARK 924 INTRA-LIGAND FREE ENERGY PREDICTED BY IDOCK:   -1.75 KCAL/MOL
REMARK 927      BINDING AFFINITY PREDICTED BY RF-SCORE:    0.00 PKD
ROOT
HETATM    1 MG   UNL     3      -7.718  12.379  69.952  1.00  0.00    -0.316 Mg 
HETATM    2  O   UNL     4      -5.583   6.750  71.459  1.00  0.00    -0.031 OA 
HETATM    3  C   UNL     4      -5.704   7.770  70.486  1.00  0.00    -0.026 C  
HETATM    4  H   UNL     4      -4.717   6.710  71.848  1.00  0.00     0.000 HD 
HETATM    5  O   UNL     5     -13.520  14.861  65.549  1.00  0.00    -0.005 OA 
HETATM    6  H   UNL     5     -14.326  14.942  66.044  1.00  0.00     0.000 HD 
HETATM    7  C   UNL     5     -12.893  13.596  65.759  1.00  0.00    -0.333 C  
ENDROOT
BRANCH   3   8
HETATM    8  C   UNL     4      -7.104   7.834  69.858  1.00  0.00    -0.062 C  
HETATM    9  O   UNL     4      -7.854   6.660  70.226  1.00  0.00    -0.102 OA 
HETATM   10  H   UNL     4      -8.720   6.700  69.837  1.00  0.00     0.000 HD 
BRANCH   8  11
HETATM   11  C   UNL     4      -8.014   9.056  70.176  1.00  0.00    -0.114 C  
HETATM   12  O   UNL     4      -7.310  10.142  70.770  1.00  0.00    -0.401 OA 
HETATM   13  H   UNL     4      -7.866  10.888  70.963  1.00  0.00     0.000 HD 
BRANCH  11  14
HETATM   14  C   UNL     4      -8.986   9.548  69.069  1.00  0.00    -0.144 C  
HETATM   15  H   UNL     4      -9.033  11.092  67.873  1.00  0.00     0.000 HD 
HETATM   16  O   UNL     4      -8.438  10.791  68.550  1.00  0.00    -0.128 OA 
BRANCH  14  17
HETATM   17  C   UNL     4     -10.503   9.706  69.377  1.00  0.00    -0.220 C  
HETATM   18  C   UNL     4     -11.277  10.491  68.239  1.00  0.00    -0.291 C  
HETATM   19  H   UNL     4     -11.664  10.289  70.895  1.00  0.00     0.000 HD 
HETATM   20  O   UNL     4     -10.737  10.194  70.707  1.00  0.00    -0.282 OA 
HETATM   21  O   UNL     4     -10.865  10.211  67.036  1.00  0.00    -0.230 OA 
HETATM   22  O   UNL     4     -12.133  11.358  68.570  1.00  0.00    -0.550 OA 
ENDBRANCH  14  17
ENDBRANCH  11  14
ENDBRANCH   8  11
ENDBRANCH   3   8
BRANCH   7  23
HETATM   23  C   UNL     5     -11.584  13.466  64.955  1.00  0.00    -0.330 C  
HETATM   24  O   UNL     5     -11.628  14.398  63.873  1.00  0.00    -0.625 OA 
HETATM   25  H   UNL     5     -10.822  14.318  63.377  1.00  0.00     0.000 HD 
BRANCH  23  26
HETATM   26  C   UNL     5     -10.342  13.701  65.842  1.00  0.00    -0.301 C  
HETATM   27  O   UNL     5      -9.330  12.721  65.519  1.00  0.00    -0.456 OA 
HETATM   28  H   UNL     5      -8.566  12.866  66.065  1.00  0.00     0.000 HD 
BRANCH  26  29
HETATM   29  C   UNL     5      -9.724  15.127  65.864  1.00  0.00    -0.350 C  
HETATM   30  O   UNL     5      -8.331  15.123  66.175  1.00  0.00    -0.327 OA 
HETATM   31  H   UNL     5      -7.952  15.995  66.188  1.00  0.00     0.000 HD 
BRANCH  29  32
HETATM   32  C   UNL     5     -10.469  16.222  66.645  1.00  0.00    -0.290 C  
HETATM   33  C   UNL     5      -9.758  17.588  66.739  1.00  0.00    -0.295 C  
HETATM   34  O   UNL     5     -10.826  15.742  67.990  1.00  0.00    -0.288 OA 
HETATM   35  O   UNL     5      -9.065  17.949  65.742  1.00  0.00    -0.495 OA 
HETATM   36  O   UNL     5      -9.909  18.165  67.875  1.00  0.00    -0.289 OA 
HETATM   37  H   UNL     5     -11.287  16.418  68.472  1.00  0.00     0.000 HD 
ENDBRANCH  29  32
ENDBRANCH  26  29
ENDBRANCH  23  26
ENDBRANCH   7  23
TORSDOF 8
ENDMDL
MODEL      294
REMARK 921   NORMALIZED FREE ENERGY PREDICTED BY IDOCK:   -4.63 KCAL/MOL
REMARK 922        TOTAL FREE ENERGY PREDICTED BY IDOCK:   -9.03 KCAL/MOL
REMARK 923 INTER-LIGAND FREE ENERGY PREDICTED BY IDOCK:   -7.41 KCAL/MOL
REMARK 924 INTRA-LIGAND FREE ENERGY PREDICTED BY IDOCK:   -1.62 KCAL/MOL
REMARK 927      BINDING AFFINITY PREDICTED BY RF-SCORE:    0.00 PKD
ROOT
HETATM    1 MG   UNL     3     -11.292  15.727  64.727  1.00  0.00    -0.320 Mg 
HETATM    2  O   UNL     4     -12.102  10.939  68.592  1.00  0.00    -0.724 OA 
HETATM    3  C   UNL     4     -11.941  12.334  68.423  1.00  0.00    -0.210 C  
HETATM    4  H   UNL     4     -12.999  10.690  68.784  1.00  0.00     0.000 HD 
HETATM    5  O   UNL     5      -5.281  20.214  63.009  1.00  0.00    -0.186 OA 
HETATM    6  H   UNL     5      -4.765  19.852  62.299  1.00  0.00     0.000 HD 
HETATM    7  C   UNL     5      -5.548  19.242  64.020  1.00  0.00    -0.301 C  
ENDROOT
BRANCH   3   8
HETATM    8  C   UNL     4     -10.492  12.736  68.113  1.00  0.00    -0.236 C  
HETATM    9  O   UNL     4      -9.587  11.815  68.751  1.00  0.00    -0.347 OA 
HETATM   10  H   UNL     4      -8.690  12.064  68.560  1.00  0.00     0.000 HD 
BRANCH   8  11
HETATM   11  C   UNL     4     -10.043  12.836  66.626  1.00  0.00    -0.243 C  
HETATM   12  O   UNL     4      -9.032  13.815  66.408  1.00  0.00    -0.455 OA 
HETATM   13  H   UNL     4      -8.758  13.876  65.500  1.00  0.00     0.000 HD 
BRANCH  11  14
HETATM   14  C   UNL     4      -9.726  11.517  65.870  1.00  0.00    -0.232 C  
HETATM   15  H   UNL     4     -10.157   9.634  66.159  1.00  0.00     0.000 HD 
HETATM   16  O   UNL     4     -10.350  10.441  66.622  1.00  0.00    -0.229 OA 
BRANCH  14  17
HETATM   17  C   UNL     4      -8.255  11.155  65.515  1.00  0.00     0.102 C  
HETATM   18  C   UNL     4      -8.153   9.929  64.516  1.00  0.00    -0.149 C  
HETATM   19  H   UNL     4      -6.529  10.825  66.468  1.00  0.00     0.000 HD 
HETATM   20  O   UNL     4      -7.428  11.045  66.684  1.00  0.00    -0.134 OA 
HETATM   21  O   UNL     4      -9.082   9.917  63.604  1.00  0.00    -0.241 OA 
HETATM   22  O   UNL     4      -7.276   9.045  64.723  1.00  0.00    -0.093 OA 
ENDBRANCH  14  17
ENDBRANCH  11  14
ENDBRANCH   8  11
ENDBRANCH   3   8
BRANCH   7  23
HETATM   23  C   UNL     5      -6.386  19.830  65.173  1.00  0.00    -0.269 C  
HETATM   24  O   UNL     5      -7.045  21.004  64.694  1.00  0.00    -0.500 OA 
HETATM   25  H   UNL     5      -7.561  21.367  65.404  1.00  0.00     0.000 HD 
BRANCH  23  26
HETATM   26  C   UNL     5      -7.403  18.806  65.720  1.00  0.00    -0.164 C  
HETATM   27  O   UNL     5      -6.718  17.572  66.036  1.00  0.00    -0.252 OA 
HETATM   28  H   UNL     5      -7.344  16.942  66.373  1.00  0.00     0.000 HD 
BRANCH  26  29
HETATM   29  C   UNL     5      -8.305  19.240  66.909  1.00  0.00    -0.283 C  
HETATM   30  O   UNL     5      -8.614  20.633  66.893  1.00  0.00    -0.536 OA 
HETATM   31  H   UNL     5      -9.165  20.899  67.619  1.00  0.00     0.000 HD 
BRANCH  29  32
HETATM   32  C   UNL     5      -7.911  18.771  68.319  1.00  0.00    -0.318 C  
HETATM   33  C   UNL     5      -6.641  19.413  68.916  1.00  0.00    -0.304 C  
HETATM   34  O   UNL     5      -7.806  17.303  68.362  1.00  0.00    -0.233 OA 
HETATM   35  O   UNL     5      -6.409  20.622  68.616  1.00  0.00    -0.312 OA 
HETATM   36  O   UNL     5      -5.929  18.595  69.601  1.00  0.00    -0.243 OA 
HETATM   37  H   UNL     5      -7.562  17.013  69.233  1.00  0.00     0.000 HD 
ENDBRANCH  29  32
ENDBRANCH  26  29
ENDBRANCH  23  26
ENDBRANCH   7  23
TORSDOF 8
ENDMDL
MODEL      295
REMARK 921   NORMALIZED FREE ENERGY PREDICTED BY IDOCK:   -4.62 KCAL/MOL
REMARK 922        TOTAL FREE ENERGY PREDICTED BY IDOCK:   -9.03 KCAL/MOL
REMARK 923 INTER-LIGAND FREE ENERGY PREDICTED BY IDOCK:   -7.15 KCAL/MOL
REMARK 924 INTRA-LIGAND FREE ENERGY PREDICTED BY IDOCK:   -1.88 KCAL/MOL
REMARK 927      BINDING AFFINITY PREDICTED BY RF-SCORE:    0.00 PKD
ROOT
HETATM    1 MG   UNL     3      -9.539  12.040  64.564  1.00  0.00    -0.233 Mg 
HETATM    2  O   UNL     4      -9.938   6.263  66.797  1.00  0.00    -0.157 OA 
HETATM    3  C   UNL     4     -10.520   7.546  66.669  1.00  0.00    -0.131 C  
HETATM    4  H   UNL     4     -10.345   5.614  66.235  1.00  0.00     0.000 HD 
HETATM    5  O   UNL     5      -8.072  18.885  67.758  1.00  0.00    -0.253 OA 
HETATM    6  H   UNL     5      -7.141  19.073  67.771  1.00  0.00     0.000 HD 
HETATM    7  C   UNL     5      -8.356  17.583  68.268  1.00  0.00    -0.265 C  
ENDROOT
BRANCH   3   8
HETATM    8  C   UNL     4      -9.862   8.595  67.577  1.00  0.00    -0.180 C  
HETATM    9  O   UNL     4     -10.152   9.916  67.081  1.00  0.00    -0.192 OA 
HETATM   10  H   UNL     4      -9.744  10.565  67.642  1.00  0.00     0.000 HD 
BRANCH   8  11
HETATM   11  C   UNL     4     -10.218   8.605  69.092  1.00  0.00    -0.208 C  
HETATM   12  O   UNL     4     -11.511   8.080  69.370  1.00  0.00    -0.351 OA 
HETATM   13  H   UNL     4     -11.728   8.086  70.295  1.00  0.00     0.000 HD 
BRANCH  11  14
HETATM   14  C   UNL     4      -9.160   8.066  70.093  1.00  0.00    -0.151 C  
HETATM   15  H   UNL     4      -8.695   6.295  70.774  1.00  0.00     0.000 HD 
HETATM   16  O   UNL     4      -9.342   6.625  70.162  1.00  0.00    -0.158 OA 
BRANCH  14  17
HETATM   17  C   UNL     4      -9.056   8.673  71.521  1.00  0.00    -0.239 C  
HETATM   18  C   UNL     4      -7.604   8.534  72.139  1.00  0.00    -0.077 C  
HETATM   19  H   UNL     4     -10.054   8.594  73.251  1.00  0.00     0.000 HD 
HETATM   20  O   UNL     4     -10.117   8.223  72.379  1.00  0.00    -0.262 OA 
HETATM   21  O   UNL     4      -6.647   8.701  71.271  1.00  0.00    -0.055 OA 
HETATM   22  O   UNL     4      -7.485   8.196  73.349  1.00  0.00    -0.136 OA 
ENDBRANCH  14  17
ENDBRANCH  11  14
ENDBRANCH   8  11
ENDBRANCH   3   8
BRANCH   7  23
HETATM   23  C   UNL     5      -9.868  17.278  68.246  1.00  0.00    -0.304 C  
HETATM   24  O   UNL     5     -10.573  18.485  68.542  1.00  0.00    -0.356 OA 
HETATM   25  H   UNL     5     -11.504  18.297  68.528  1.00  0.00     0.000 HD 
BRANCH  23  26
HETATM   26  C   UNL     5     -10.313  16.693  66.888  1.00  0.00    -0.299 C  
HETATM   27  O   UNL     5      -9.425  17.166  65.848  1.00  0.00    -0.496 OA 
HETATM   28  H   UNL     5      -9.699  16.806  65.013  1.00  0.00     0.000 HD 
BRANCH  26  29
HETATM   29  C   UNL     5     -10.492  15.153  66.783  1.00  0.00    -0.283 C  
HETATM   30  O   UNL     5      -9.256  14.460  66.612  1.00  0.00    -0.256 OA 
HETATM   31  H   UNL     5      -9.365  13.518  66.548  1.00  0.00     0.000 HD 
BRANCH  29  32
HETATM   32  C   UNL     5     -11.570  14.618  65.827  1.00  0.00    -0.328 C  
HETATM   33  C   UNL     5     -11.833  13.098  65.885  1.00  0.00    -0.406 C  
HETATM   34  O   UNL     5     -11.281  15.030  64.443  1.00  0.00    -0.626 OA 
HETATM   35  O   UNL     5     -11.722  12.536  67.015  1.00  0.00    -0.355 OA 
HETATM   36  O   UNL     5     -12.069  12.577  64.737  1.00  0.00    -0.394 OA 
HETATM   37  H   UNL     5     -11.948  14.700  63.852  1.00  0.00     0.000 HD 
ENDBRANCH  29  32
ENDBRANCH  26  29
ENDBRANCH  23  26
ENDBRANCH   7  23
TORSDOF 8
ENDMDL
MODEL      296
REMARK 921   NORMALIZED FREE ENERGY PREDICTED BY IDOCK:   -4.62 KCAL/MOL
REMARK 922        TOTAL FREE ENERGY PREDICTED BY IDOCK:   -9.02 KCAL/MOL
REMARK 923 INTER-LIGAND FREE ENERGY PREDICTED BY IDOCK:   -7.55 KCAL/MOL
REMARK 924 INTRA-LIGAND FREE ENERGY PREDICTED BY IDOCK:   -1.47 KCAL/MOL
REMARK 927      BINDING AFFINITY PREDICTED BY RF-SCORE:    0.00 PKD
ROOT
HETATM    1 MG   UNL     3      -7.098  13.727  66.567  1.00  0.00    -0.293 Mg 
HETATM    2  O   UNL     4     -11.759  16.706  63.755  1.00  0.00    -1.431 OA 
HETATM    3  C   UNL     4     -11.263  16.078  64.921  1.00  0.00    -0.312 C  
HETATM    4  H   UNL     4     -11.761  17.654  63.817  1.00  0.00     0.000 HD 
HETATM    5  O   UNL     5      -5.910   6.389  68.558  1.00  0.00    -0.018 OA 
HETATM    6  H   UNL     5      -5.495   5.899  67.858  1.00  0.00     0.000 HD 
HETATM    7  C   UNL     5      -7.037   7.130  68.090  1.00  0.00    -0.085 C  
ENDROOT
BRANCH   3   8
HETATM    8  C   UNL     4     -11.260  14.546  64.821  1.00  0.00    -0.390 C  
HETATM    9  O   UNL     4      -9.933  14.047  65.071  1.00  0.00    -0.567 OA 
HETATM   10  H   UNL     4      -9.931  13.098  65.009  1.00  0.00     0.000 HD 
BRANCH   8  11
HETATM   11  C   UNL     4     -12.218  13.732  65.739  1.00  0.00    -0.462 C  
HETATM   12  O   UNL     4     -12.968  12.747  65.037  1.00  0.00    -0.811 OA 
HETATM   13  H   UNL     4     -13.553  12.250  65.598  1.00  0.00     0.000 HD 
BRANCH  11  14
HETATM   14  C   UNL     4     -11.649  13.170  67.069  1.00  0.00    -0.359 C  
HETATM   15  H   UNL     4     -11.643  11.413  67.924  1.00  0.00     0.000 HD 
HETATM   16  O   UNL     4     -11.991  11.757  67.110  1.00  0.00    -0.617 OA 
BRANCH  14  17
HETATM   17  C   UNL     4     -12.001  13.856  68.420  1.00  0.00    -0.356 C  
HETATM   18  C   UNL     4     -10.882  14.871  68.898  1.00  0.00    -0.250 C  
HETATM   19  H   UNL     4     -12.630  13.328  70.242  1.00  0.00     0.000 HD 
HETATM   20  O   UNL     4     -12.415  12.909  69.417  1.00  0.00    -0.027 OA 
HETATM   21  O   UNL     4     -10.339  15.548  67.927  1.00  0.00    -0.242 OA 
HETATM   22  O   UNL     4     -10.549  14.884  70.115  1.00  0.00    -0.159 OA 
ENDBRANCH  14  17
ENDBRANCH  11  14
ENDBRANCH   8  11
ENDBRANCH   3   8
BRANCH   7  23
HETATM   23  C   UNL     5      -7.711   7.925  69.226  1.00  0.00    -0.099 C  
HETATM   24  O   UNL     5      -6.952   7.730  70.421  1.00  0.00    -0.046 OA 
HETATM   25  H   UNL     5      -7.367   8.220  71.121  1.00  0.00     0.000 HD 
BRANCH  23  26
HETATM   26  C   UNL     5      -7.828   9.426  68.881  1.00  0.00    -0.083 C  
HETATM   27  O   UNL     5      -8.346  10.142  70.025  1.00  0.00    -0.320 OA 
HETATM   28  H   UNL     5      -8.418  11.065  69.813  1.00  0.00     0.000 HD 
BRANCH  26  29
HETATM   29  C   UNL     5      -6.569  10.144  68.320  1.00  0.00    -0.054 C  
HETATM   30  O   UNL     5      -5.403   9.919  69.111  1.00  0.00    -0.036 OA 
HETATM   31  H   UNL     5      -4.633  10.358  68.768  1.00  0.00     0.000 HD 
BRANCH  29  32
HETATM   32  C   UNL     5      -6.702  11.624  67.926  1.00  0.00    -0.066 C  
HETATM   33  C   UNL     5      -6.666  12.639  69.088  1.00  0.00    -0.086 C  
HETATM   34  O   UNL     5      -7.908  11.833  67.107  1.00  0.00    -0.152 OA 
HETATM   35  O   UNL     5      -5.923  12.361  70.075  1.00  0.00    -0.135 OA 
HETATM   36  O   UNL     5      -7.469  13.627  68.928  1.00  0.00    -0.100 OA 
HETATM   37  H   UNL     5      -7.990  12.747  66.864  1.00  0.00     0.000 HD 
ENDBRANCH  29  32
ENDBRANCH  26  29
ENDBRANCH  23  26
ENDBRANCH   7  23
TORSDOF 8
ENDMDL
MODEL      297
REMARK 921   NORMALIZED FREE ENERGY PREDICTED BY IDOCK:   -4.61 KCAL/MOL
REMARK 922        TOTAL FREE ENERGY PREDICTED BY IDOCK:   -9.01 KCAL/MOL
REMARK 923 INTER-LIGAND FREE ENERGY PREDICTED BY IDOCK:   -7.35 KCAL/MOL
REMARK 924 INTRA-LIGAND FREE ENERGY PREDICTED BY IDOCK:   -1.66 KCAL/MOL
REMARK 927      BINDING AFFINITY PREDICTED BY RF-SCORE:    0.00 PKD
ROOT
HETATM    1 MG   UNL     3      -8.680   6.321  67.129  1.00  0.00    -0.109 Mg 
HETATM    2  O   UNL     4      -6.226  10.732  63.519  1.00  0.00    -0.368 OA 
HETATM    3  C   UNL     4      -6.365  10.175  64.812  1.00  0.00    -0.131 C  
HETATM    4  H   UNL     4      -5.383  10.541  63.122  1.00  0.00     0.000 HD 
HETATM    5  O   UNL     5     -14.380   6.242  72.297  1.00  0.00    -0.596 OA 
HETATM    6  H   UNL     5     -15.218   6.052  71.891  1.00  0.00     0.000 HD 
HETATM    7  C   UNL     5     -13.675   7.268  71.600  1.00  0.00    -0.347 C  
ENDROOT
BRANCH   3   8
HETATM    8  C   UNL     4      -7.726  10.483  65.452  1.00  0.00    -0.106 C  
HETATM    9  O   UNL     4      -7.577  11.535  66.425  1.00  0.00    -0.320 OA 
HETATM   10  H   UNL     4      -8.419  11.725  66.821  1.00  0.00     0.000 HD 
BRANCH   8  11
HETATM   11  C   UNL     4      -8.912  10.898  64.532  1.00  0.00    -0.116 C  
HETATM   12  O   UNL     4      -9.450   9.813  63.785  1.00  0.00    -0.390 OA 
HETATM   13  H   UNL     4     -10.174  10.066  63.224  1.00  0.00     0.000 HD 
BRANCH  11  14
HETATM   14  C   UNL     4     -10.035  11.778  65.144  1.00  0.00    -0.253 C  
HETATM   15  H   UNL     4     -11.206  11.621  66.700  1.00  0.00     0.000 HD 
HETATM   16  O   UNL     4     -10.519  11.082  66.326  1.00  0.00    -0.248 OA 
BRANCH  14  17
HETATM   17  C   UNL     4     -11.226  12.248  64.261  1.00  0.00    -0.350 C  
HETATM   18  C   UNL     4     -12.453  12.769  65.118  1.00  0.00    -0.501 C  
HETATM   19  H   UNL     4     -12.294  11.569  62.713  1.00  0.00     0.000 HD 
HETATM   20  O   UNL     4     -11.567  11.282  63.253  1.00  0.00    -0.125 OA 
HETATM   21  O   UNL     4     -12.104  13.438  66.179  1.00  0.00    -0.399 OA 
HETATM   22  O   UNL     4     -13.621  12.435  64.777  1.00  0.00    -0.391 OA 
ENDBRANCH  14  17
ENDBRANCH  11  14
ENDBRANCH   8  11
ENDBRANCH   3   8
BRANCH   7  23
HETATM   23  C   UNL     5     -12.315   7.576  72.258  1.00  0.00    -0.156 C  
HETATM   24  O   UNL     5     -12.016   6.525  73.180  1.00  0.00    -0.218 OA 
HETATM   25  H   UNL     5     -11.178   6.715  73.585  1.00  0.00     0.000 HD 
BRANCH  23  26
HETATM   26  C   UNL     5     -11.194   7.730  71.208  1.00  0.00    -0.255 C  
HETATM   27  O   UNL     5     -11.604   7.100  69.973  1.00  0.00    -0.481 OA 
HETATM   28  H   UNL     5     -10.914   7.195  69.327  1.00  0.00     0.000 HD 
BRANCH  26  29
HETATM   29  C   UNL     5     -10.651   9.160  70.928  1.00  0.00    -0.273 C  
HETATM   30  O   UNL     5     -11.423   9.867  69.958  1.00  0.00    -0.266 OA 
HETATM   31  H   UNL     5     -11.092  10.741  69.786  1.00  0.00     0.000 HD 
BRANCH  29  32
HETATM   32  C   UNL     5      -9.145   9.319  70.669  1.00  0.00    -0.253 C  
HETATM   33  C   UNL     5      -8.592   8.596  69.423  1.00  0.00    -0.127 C  
HETATM   34  O   UNL     5      -8.374   8.933  71.863  1.00  0.00    -0.349 OA 
HETATM   35  O   UNL     5      -9.354   8.520  68.414  1.00  0.00    -0.135 OA 
HETATM   36  O   UNL     5      -7.426   8.091  69.601  1.00  0.00    -0.086 OA 
HETATM   37  H   UNL     5      -7.443   9.032  71.704  1.00  0.00     0.000 HD 
ENDBRANCH  29  32
ENDBRANCH  26  29
ENDBRANCH  23  26
ENDBRANCH   7  23
TORSDOF 8
ENDMDL
MODEL      298
REMARK 921   NORMALIZED FREE ENERGY PREDICTED BY IDOCK:   -4.61 KCAL/MOL
REMARK 922        TOTAL FREE ENERGY PREDICTED BY IDOCK:   -9.01 KCAL/MOL
REMARK 923 INTER-LIGAND FREE ENERGY PREDICTED BY IDOCK:   -6.69 KCAL/MOL
REMARK 924 INTRA-LIGAND FREE ENERGY PREDICTED BY IDOCK:   -2.32 KCAL/MOL
REMARK 927      BINDING AFFINITY PREDICTED BY RF-SCORE:    0.00 PKD
ROOT
HETATM    1 MG   UNL     3      -8.245   8.134  69.014  1.00  0.00    -0.106 Mg 
HETATM    2  O   UNL     4      -7.413   2.878  65.820  1.00  0.00    -0.070 OA 
HETATM    3  C   UNL     4      -7.074   4.239  66.007  1.00  0.00    -0.067 C  
HETATM    4  H   UNL     4      -6.746   2.282  66.141  1.00  0.00     0.000 HD 
HETATM    5  O   UNL     5     -11.842  14.765  67.496  1.00  0.00    -0.399 OA 
HETATM    6  H   UNL     5     -12.756  14.735  67.754  1.00  0.00     0.000 HD 
HETATM    7  C   UNL     5     -11.474  13.625  66.719  1.00  0.00    -0.346 C  
ENDROOT
BRANCH   3   8
HETATM    8  C   UNL     4      -8.153   5.200  65.487  1.00  0.00    -0.117 C  
HETATM    9  O   UNL     4      -9.035   4.500  64.591  1.00  0.00    -0.145 OA 
HETATM   10  H   UNL     4      -9.703   5.095  64.270  1.00  0.00     0.000 HD 
BRANCH   8  11
HETATM   11  C   UNL     4      -9.061   5.935  66.516  1.00  0.00    -0.143 C  
HETATM   12  O   UNL     4      -8.762   5.604  67.868  1.00  0.00    -0.108 OA 
HETATM   13  H   UNL     4      -9.316   6.052  68.496  1.00  0.00     0.000 HD 
BRANCH  11  14
HETATM   14  C   UNL     4      -9.273   7.463  66.341  1.00  0.00    -0.159 C  
HETATM   15  H   UNL     4      -8.141   9.039  66.566  1.00  0.00     0.000 HD 
HETATM   16  O   UNL     4      -8.011   8.104  66.673  1.00  0.00    -0.099 OA 
BRANCH  14  17
HETATM   17  C   UNL     4     -10.454   8.174  67.061  1.00  0.00    -0.326 C  
HETATM   18  C   UNL     4     -10.470   9.739  66.808  1.00  0.00    -0.189 C  
HETATM   19  H   UNL     4     -11.279   8.224  68.881  1.00  0.00     0.000 HD 
HETATM   20  O   UNL     4     -10.557   7.790  68.441  1.00  0.00    -0.187 OA 
HETATM   21  O   UNL     4     -10.123  10.077  65.599  1.00  0.00    -0.282 OA 
HETATM   22  O   UNL     4     -10.715  10.511  67.776  1.00  0.00    -0.229 OA 
ENDBRANCH  14  17
ENDBRANCH  11  14
ENDBRANCH   8  11
ENDBRANCH   3   8
BRANCH   7  23
HETATM   23  C   UNL     5      -9.991  13.674  66.300  1.00  0.00    -0.300 C  
HETATM   24  O   UNL     5      -9.813  12.804  65.180  1.00  0.00    -0.449 OA 
HETATM   25  H   UNL     5      -8.900  12.834  64.922  1.00  0.00     0.000 HD 
BRANCH  23  26
HETATM   26  C   UNL     5      -9.539  15.112  65.965  1.00  0.00    -0.330 C  
HETATM   27  O   UNL     5     -10.678  15.878  65.509  1.00  0.00    -0.361 OA 
HETATM   28  H   UNL     5     -10.400  16.763  65.303  1.00  0.00     0.000 HD 
BRANCH  26  29
HETATM   29  C   UNL     5      -8.760  15.902  67.054  1.00  0.00    -0.222 C  
HETATM   30  O   UNL     5      -8.787  15.263  68.329  1.00  0.00    -0.164 OA 
HETATM   31  H   UNL     5      -8.310  15.745  68.995  1.00  0.00     0.000 HD 
BRANCH  29  32
HETATM   32  C   UNL     5      -9.028  17.410  67.177  1.00  0.00    -0.240 C  
HETATM   33  C   UNL     5     -10.274  17.812  67.994  1.00  0.00    -0.377 C  
HETATM   34  O   UNL     5      -9.071  18.036  65.845  1.00  0.00    -0.513 OA 
HETATM   35  O   UNL     5     -10.576  17.081  68.984  1.00  0.00    -0.325 OA 
HETATM   36  O   UNL     5     -10.899  18.821  67.509  1.00  0.00    -0.435 OA 
HETATM   37  H   UNL     5      -9.236  18.968  65.921  1.00  0.00     0.000 HD 
ENDBRANCH  29  32
ENDBRANCH  26  29
ENDBRANCH  23  26
ENDBRANCH   7  23
TORSDOF 8
ENDMDL
MODEL      299
REMARK 921   NORMALIZED FREE ENERGY PREDICTED BY IDOCK:   -4.61 KCAL/MOL
REMARK 922        TOTAL FREE ENERGY PREDICTED BY IDOCK:   -9.01 KCAL/MOL
REMARK 923 INTER-LIGAND FREE ENERGY PREDICTED BY IDOCK:   -8.12 KCAL/MOL
REMARK 924 INTRA-LIGAND FREE ENERGY PREDICTED BY IDOCK:   -0.89 KCAL/MOL
REMARK 927      BINDING AFFINITY PREDICTED BY RF-SCORE:    0.00 PKD
ROOT
HETATM    1 MG   UNL     3      -6.365  12.402  71.235  1.00  0.00    -0.214 Mg 
HETATM    2  O   UNL     4      -7.662  16.379  66.650  1.00  0.00    -0.234 OA 
HETATM    3  C   UNL     4      -8.064  15.765  67.859  1.00  0.00    -0.141 C  
HETATM    4  H   UNL     4      -7.376  17.278  66.769  1.00  0.00     0.000 HD 
HETATM    5  O   UNL     5      -8.884   5.358  73.034  1.00  0.00    -0.121 OA 
HETATM    6  H   UNL     5      -8.366   4.682  72.612  1.00  0.00     0.000 HD 
HETATM    7  C   UNL     5      -9.297   6.362  72.108  1.00  0.00    -0.149 C  
ENDROOT
BRANCH   3   8
HETATM    8  C   UNL     4      -8.526  14.312  67.667  1.00  0.00    -0.180 C  
HETATM    9  O   UNL     4      -7.615  13.422  68.339  1.00  0.00    -0.120 OA 
HETATM   10  H   UNL     4      -7.900  12.524  68.220  1.00  0.00     0.000 HD 
BRANCH   8  11
HETATM   11  C   UNL     4      -9.957  13.913  68.131  1.00  0.00    -0.240 C  
HETATM   12  O   UNL     4     -10.352  14.546  69.344  1.00  0.00    -0.370 OA 
HETATM   13  H   UNL     4     -11.226  14.302  69.626  1.00  0.00     0.000 HD 
BRANCH  11  14
HETATM   14  C   UNL     4     -11.098  13.939  67.079  1.00  0.00    -0.301 C  
HETATM   15  H   UNL     4     -12.978  14.469  67.109  1.00  0.00     0.000 HD 
HETATM   16  O   UNL     4     -12.280  14.453  67.753  1.00  0.00    -0.314 OA 
BRANCH  14  17
HETATM   17  C   UNL     4     -11.444  12.656  66.271  1.00  0.00    -0.364 C  
HETATM   18  C   UNL     4     -12.157  12.977  64.893  1.00  0.00    -0.413 C  
HETATM   19  H   UNL     4     -12.324  10.889  66.583  1.00  0.00     0.000 HD 
HETATM   20  O   UNL     4     -12.113  11.673  67.076  1.00  0.00    -0.547 OA 
HETATM   21  O   UNL     4     -11.691  14.037  64.296  1.00  0.00    -0.398 OA 
HETATM   22  O   UNL     4     -13.139  12.270  64.534  1.00  0.00    -0.791 OA 
ENDBRANCH  14  17
ENDBRANCH  11  14
ENDBRANCH   8  11
ENDBRANCH   3   8
BRANCH   7  23
HETATM   23  C   UNL     5     -10.139   7.459  72.792  1.00  0.00    -0.224 C  
HETATM   24  O   UNL     5      -9.387   7.982  73.889  1.00  0.00    -0.327 OA 
HETATM   25  H   UNL     5      -9.905   8.657  74.310  1.00  0.00     0.000 HD 
BRANCH  23  26
HETATM   26  C   UNL     5     -10.531   8.578  71.803  1.00  0.00    -0.300 C  
HETATM   27  O   UNL     5      -9.337   9.251  71.342  1.00  0.00    -0.263 OA 
HETATM   28  H   UNL     5      -9.579   9.940  70.734  1.00  0.00     0.000 HD 
BRANCH  26  29
HETATM   29  C   UNL     5     -11.434   8.199  70.596  1.00  0.00    -0.231 C  
HETATM   30  O   UNL     5     -12.664   7.593  70.991  1.00  0.00    -0.508 OA 
HETATM   31  H   UNL     5     -13.217   7.361  70.253  1.00  0.00     0.000 HD 
BRANCH  29  32
HETATM   32  C   UNL     5     -10.788   7.441  69.425  1.00  0.00    -0.171 C  
HETATM   33  C   UNL     5     -10.435   8.287  68.183  1.00  0.00    -0.171 C  
HETATM   34  O   UNL     5     -11.620   6.291  69.035  1.00  0.00    -0.532 OA 
HETATM   35  O   UNL     5     -10.061   9.481  68.385  1.00  0.00    -0.163 OA 
HETATM   36  O   UNL     5     -10.639   7.676  67.074  1.00  0.00    -0.329 OA 
HETATM   37  H   UNL     5     -11.221   5.822  68.311  1.00  0.00     0.000 HD 
ENDBRANCH  29  32
ENDBRANCH  26  29
ENDBRANCH  23  26
ENDBRANCH   7  23
TORSDOF 8
ENDMDL
MODEL      300
REMARK 921   NORMALIZED FREE ENERGY PREDICTED BY IDOCK:   -4.60 KCAL/MOL
REMARK 922        TOTAL FREE ENERGY PREDICTED BY IDOCK:   -9.00 KCAL/MOL
REMARK 923 INTER-LIGAND FREE ENERGY PREDICTED BY IDOCK:   -7.30 KCAL/MOL
REMARK 924 INTRA-LIGAND FREE ENERGY PREDICTED BY IDOCK:   -1.69 KCAL/MOL
REMARK 927      BINDING AFFINITY PREDICTED BY RF-SCORE:    0.00 PKD
ROOT
HETATM    1 MG   UNL     3     -11.990  10.136  68.100  1.00  0.00    -0.482 Mg 
HETATM    2  O   UNL     4     -12.523  13.355  62.821  1.00  0.00    -0.782 OA 
HETATM    3  C   UNL     4     -12.076  12.183  63.475  1.00  0.00    -0.550 C  
HETATM    4  H   UNL     4     -13.314  13.218  62.313  1.00  0.00     0.000 HD 
HETATM    5  O   UNL     5      -6.108   8.593  72.816  1.00  0.00    -0.078 OA 
HETATM    6  H   UNL     5      -6.010   9.261  73.484  1.00  0.00     0.000 HD 
HETATM    7  C   UNL     5      -6.223   9.161  71.511  1.00  0.00    -0.069 C  
ENDROOT
BRANCH   3   8
HETATM    8  C   UNL     4     -10.798  12.406  64.296  1.00  0.00    -0.355 C  
HETATM    9  O   UNL     4      -9.723  12.796  63.421  1.00  0.00    -0.601 OA 
HETATM   10  H   UNL     4      -8.931  12.934  63.929  1.00  0.00     0.000 HD 
BRANCH   8  11
HETATM   11  C   UNL     4     -10.822  13.445  65.455  1.00  0.00    -0.294 C  
HETATM   12  O   UNL     4     -10.456  14.758  65.042  1.00  0.00    -0.397 OA 
HETATM   13  H   UNL     4     -10.471  15.392  65.749  1.00  0.00     0.000 HD 
BRANCH  11  14
HETATM   14  C   UNL     4     -12.064  13.469  66.386  1.00  0.00    -0.417 C  
HETATM   15  H   UNL     4     -13.761  14.437  66.384  1.00  0.00     0.000 HD 
HETATM   16  O   UNL     4     -13.001  14.423  65.814  1.00  0.00    -0.357 OA 
BRANCH  14  17
HETATM   17  C   UNL     4     -11.890  13.721  67.911  1.00  0.00    -0.378 C  
HETATM   18  C   UNL     4     -10.943  14.954  68.222  1.00  0.00    -0.264 C  
HETATM   19  H   UNL     4     -11.456  12.673  69.557  1.00  0.00     0.000 HD 
HETATM   20  O   UNL     4     -11.561  12.519  68.625  1.00  0.00    -0.269 OA 
HETATM   21  O   UNL     4     -11.088  15.948  67.393  1.00  0.00    -0.301 OA 
HETATM   22  O   UNL     4     -10.093  14.852  69.149  1.00  0.00    -0.229 OA 
ENDBRANCH  14  17
ENDBRANCH  11  14
ENDBRANCH   8  11
ENDBRANCH   3   8
BRANCH   7  23
HETATM   23  C   UNL     5      -6.382   8.076  70.427  1.00  0.00    -0.036 C  
HETATM   24  O   UNL     5      -5.872   6.846  70.945  1.00  0.00    -0.027 OA 
HETATM   25  H   UNL     5      -5.970   6.178  70.278  1.00  0.00     0.000 HD 
BRANCH  23  26
HETATM   26  C   UNL     5      -7.853   7.925  69.982  1.00  0.00    -0.105 C  
HETATM   27  O   UNL     5      -8.668   7.590  71.129  1.00  0.00    -0.134 OA 
HETATM   28  H   UNL     5      -9.574   7.497  70.855  1.00  0.00     0.000 HD 
BRANCH  26  29
HETATM   29  C   UNL     5      -8.497   9.095  69.187  1.00  0.00    -0.132 C  
HETATM   30  O   UNL     5      -9.217  10.003  70.020  1.00  0.00    -0.329 OA 
HETATM   31  H   UNL     5      -9.610  10.718  69.534  1.00  0.00     0.000 HD 
BRANCH  29  32
HETATM   32  C   UNL     5      -9.291   8.749  67.917  1.00  0.00    -0.142 C  
HETATM   33  C   UNL     5     -10.426   7.718  68.089  1.00  0.00    -0.176 C  
HETATM   34  O   UNL     5      -8.381   8.327  66.840  1.00  0.00    -0.112 OA 
HETATM   35  O   UNL     5     -11.057   7.730  69.188  1.00  0.00    -0.028 OA 
HETATM   36  O   UNL     5     -10.542   6.915  67.095  1.00  0.00    -0.261 OA 
HETATM   37  H   UNL     5      -8.872   8.113  66.055  1.00  0.00     0.000 HD 
ENDBRANCH  29  32
ENDBRANCH  26  29
ENDBRANCH  23  26
ENDBRANCH   7  23
TORSDOF 8
ENDMDL
MODEL      301
REMARK 921   NORMALIZED FREE ENERGY PREDICTED BY IDOCK:   -4.59 KCAL/MOL
REMARK 922        TOTAL FREE ENERGY PREDICTED BY IDOCK:   -8.98 KCAL/MOL
REMARK 923 INTER-LIGAND FREE ENERGY PREDICTED BY IDOCK:   -6.83 KCAL/MOL
REMARK 924 INTRA-LIGAND FREE ENERGY PREDICTED BY IDOCK:   -2.16 KCAL/MOL
REMARK 927      BINDING AFFINITY PREDICTED BY RF-SCORE:    0.00 PKD
ROOT
HETATM    1 MG   UNL     3     -10.589  12.851  66.928  1.00  0.00    -0.235 Mg 
HETATM    2  O   UNL     4      -7.820   7.393  65.893  1.00  0.00    -0.094 OA 
HETATM    3  C   UNL     4      -8.968   8.097  66.327  1.00  0.00    -0.177 C  
HETATM    4  H   UNL     4      -7.920   7.020  65.025  1.00  0.00     0.000 HD 
HETATM    5  O   UNL     5     -12.303  16.820  73.293  1.00  0.00    -0.288 OA 
HETATM    6  H   UNL     5     -11.591  17.394  73.551  1.00  0.00     0.000 HD 
HETATM    7  C   UNL     5     -11.846  15.493  73.034  1.00  0.00    -0.445 C  
ENDROOT
BRANCH   3   8
HETATM    8  C   UNL     4      -8.806   8.700  67.730  1.00  0.00    -0.136 C  
HETATM    9  O   UNL     4      -9.898   9.599  67.999  1.00  0.00    -0.144 OA 
HETATM   10  H   UNL     4      -9.798   9.973  68.867  1.00  0.00     0.000 HD 
BRANCH   8  11
HETATM   11  C   UNL     4      -8.713   7.741  68.953  1.00  0.00    -0.135 C  
HETATM   12  O   UNL     4      -7.562   6.903  68.924  1.00  0.00    -0.100 OA 
HETATM   13  H   UNL     4      -7.505   6.318  69.670  1.00  0.00     0.000 HD 
BRANCH  11  14
HETATM   14  C   UNL     4      -8.943   8.339  70.367  1.00  0.00    -0.146 C  
HETATM   15  H   UNL     4      -8.833  10.133  71.131  1.00  0.00     0.000 HD 
HETATM   16  O   UNL     4      -8.692   9.768  70.266  1.00  0.00    -0.209 OA 
BRANCH  14  17
HETATM   17  C   UNL     4      -8.205   7.739  71.597  1.00  0.00    -0.110 C  
HETATM   18  C   UNL     4      -8.903   8.113  72.970  1.00  0.00    -0.248 C  
HETATM   19  H   UNL     4      -6.340   7.625  72.308  1.00  0.00     0.000 HD 
HETATM   20  O   UNL     4      -6.791   7.992  71.556  1.00  0.00    -0.049 OA 
HETATM   21  O   UNL     4     -10.204   8.122  72.911  1.00  0.00    -0.307 OA 
HETATM   22  O   UNL     4      -8.182   8.450  73.950  1.00  0.00    -0.320 OA 
ENDBRANCH  14  17
ENDBRANCH  11  14
ENDBRANCH   8  11
ENDBRANCH   3   8
BRANCH   7  23
HETATM   23  C   UNL     5     -13.001  14.562  72.616  1.00  0.00    -0.449 C  
HETATM   24  O   UNL     5     -14.224  15.120  73.101  1.00  0.00    -0.329 OA 
HETATM   25  H   UNL     5     -14.936  14.546  72.844  1.00  0.00     0.000 HD 
BRANCH  23  26
HETATM   26  C   UNL     5     -13.049  14.362  71.086  1.00  0.00    -0.352 C  
HETATM   27  O   UNL     5     -13.103  15.652  70.436  1.00  0.00    -0.690 OA 
HETATM   28  H   UNL     5     -13.133  15.530  69.494  1.00  0.00     0.000 HD 
BRANCH  26  29
HETATM   29  C   UNL     5     -11.952  13.476  70.433  1.00  0.00    -0.295 C  
HETATM   30  O   UNL     5     -11.054  14.220  69.610  1.00  0.00    -0.338 OA 
HETATM   31  H   UNL     5     -10.383  13.678  69.210  1.00  0.00     0.000 HD 
BRANCH  29  32
HETATM   32  C   UNL     5     -12.394  12.174  69.745  1.00  0.00    -0.026 C  
HETATM   33  C   UNL     5     -12.541  10.941  70.661  1.00  0.00    -0.346 C  
HETATM   34  O   UNL     5     -11.505  11.863  68.613  1.00  0.00    -0.242 OA 
HETATM   35  O   UNL     5     -12.947  11.145  71.844  1.00  0.00    -0.458 OA 
HETATM   36  O   UNL     5     -12.155   9.848  70.112  1.00  0.00    -0.159 OA 
HETATM   37  H   UNL     5     -11.778  11.059  68.188  1.00  0.00     0.000 HD 
ENDBRANCH  29  32
ENDBRANCH  26  29
ENDBRANCH  23  26
ENDBRANCH   7  23
TORSDOF 8
ENDMDL
MODEL      302
REMARK 921   NORMALIZED FREE ENERGY PREDICTED BY IDOCK:   -4.59 KCAL/MOL
REMARK 922        TOTAL FREE ENERGY PREDICTED BY IDOCK:   -8.98 KCAL/MOL
REMARK 923 INTER-LIGAND FREE ENERGY PREDICTED BY IDOCK:   -7.94 KCAL/MOL
REMARK 924 INTRA-LIGAND FREE ENERGY PREDICTED BY IDOCK:   -1.04 KCAL/MOL
REMARK 927      BINDING AFFINITY PREDICTED BY RF-SCORE:    0.00 PKD
ROOT
HETATM    1 MG   UNL     3     -13.616  10.167  72.396  1.00  0.00    -0.376 Mg 
HETATM    2  O   UNL     4     -12.862  16.255  71.453  1.00  0.00    -0.443 OA 
HETATM    3  C   UNL     4     -13.260  14.998  70.940  1.00  0.00    -0.399 C  
HETATM    4  H   UNL     4     -13.598  16.816  71.670  1.00  0.00     0.000 HD 
HETATM    5  O   UNL     5      -9.775   3.913  70.083  1.00  0.00    -0.196 OA 
HETATM    6  H   UNL     5      -9.079   3.686  70.688  1.00  0.00     0.000 HD 
HETATM    7  C   UNL     5      -9.741   5.296  69.732  1.00  0.00    -0.189 C  
ENDROOT
BRANCH   3   8
HETATM    8  C   UNL     4     -12.071  14.091  70.590  1.00  0.00    -0.354 C  
HETATM    9  O   UNL     4     -12.371  12.734  70.966  1.00  0.00    -0.356 OA 
HETATM   10  H   UNL     4     -11.635  12.173  70.750  1.00  0.00     0.000 HD 
BRANCH   8  11
HETATM   11  C   UNL     4     -11.574  14.041  69.116  1.00  0.00    -0.313 C  
HETATM   12  O   UNL     4     -12.498  14.604  68.191  1.00  0.00    -0.587 OA 
HETATM   13  H   UNL     4     -12.194  14.573  67.291  1.00  0.00     0.000 HD 
BRANCH  11  14
HETATM   14  C   UNL     4     -10.122  14.506  68.820  1.00  0.00    -0.239 C  
HETATM   15  H   UNL     4      -9.271  16.240  68.529  1.00  0.00     0.000 HD 
HETATM   16  O   UNL     4     -10.159  15.956  68.710  1.00  0.00    -0.207 OA 
BRANCH  14  17
HETATM   17  C   UNL     4      -9.331  13.887  67.633  1.00  0.00    -0.205 C  
HETATM   18  C   UNL     4     -10.057  14.098  66.240  1.00  0.00    -0.300 C  
HETATM   19  H   UNL     4      -8.443  12.157  67.173  1.00  0.00     0.000 HD 
HETATM   20  O   UNL     4      -8.927  12.535  67.898  1.00  0.00    -0.172 OA 
HETATM   21  O   UNL     4     -10.639  15.257  66.123  1.00  0.00    -0.294 OA 
HETATM   22  O   UNL     4     -10.097  13.139  65.421  1.00  0.00    -0.289 OA 
ENDBRANCH  14  17
ENDBRANCH  11  14
ENDBRANCH   8  11
ENDBRANCH   3   8
BRANCH   7  23
HETATM   23  C   UNL     5     -10.871   5.665  68.750  1.00  0.00    -0.140 C  
HETATM   24  O   UNL     5     -11.542   6.821  69.253  1.00  0.00    -0.600 OA 
HETATM   25  H   UNL     5     -12.239   7.048  68.648  1.00  0.00     0.000 HD 
BRANCH  23  26
HETATM   26  C   UNL     5     -10.332   5.910  67.324  1.00  0.00    -0.226 C  
HETATM   27  O   UNL     5     -11.365   5.602  66.361  1.00  0.00    -0.689 OA 
HETATM   28  H   UNL     5     -11.033   5.753  65.483  1.00  0.00     0.000 HD 
BRANCH  26  29
HETATM   29  C   UNL     5      -9.703   7.297  67.013  1.00  0.00    -0.181 C  
HETATM   30  O   UNL     5     -10.669   8.346  66.960  1.00  0.00    -0.358 OA 
HETATM   31  H   UNL     5     -10.284   9.194  66.770  1.00  0.00     0.000 HD 
BRANCH  29  32
HETATM   32  C   UNL     5      -8.710   7.390  65.843  1.00  0.00    -0.140 C  
HETATM   33  C   UNL     5      -8.522   8.791  65.225  1.00  0.00    -0.174 C  
HETATM   34  O   UNL     5      -9.058   6.416  64.795  1.00  0.00    -0.206 OA 
HETATM   35  O   UNL     5      -8.596   9.783  66.009  1.00  0.00    -0.131 OA 
HETATM   36  O   UNL     5      -8.380   8.773  63.950  1.00  0.00    -0.172 OA 
HETATM   37  H   UNL     5      -8.445   6.473  64.072  1.00  0.00     0.000 HD 
ENDBRANCH  29  32
ENDBRANCH  26  29
ENDBRANCH  23  26
ENDBRANCH   7  23
TORSDOF 8
ENDMDL
MODEL      303
REMARK 921   NORMALIZED FREE ENERGY PREDICTED BY IDOCK:   -4.59 KCAL/MOL
REMARK 922        TOTAL FREE ENERGY PREDICTED BY IDOCK:   -8.98 KCAL/MOL
REMARK 923 INTER-LIGAND FREE ENERGY PREDICTED BY IDOCK:   -7.26 KCAL/MOL
REMARK 924 INTRA-LIGAND FREE ENERGY PREDICTED BY IDOCK:   -1.72 KCAL/MOL
REMARK 927      BINDING AFFINITY PREDICTED BY RF-SCORE:    0.00 PKD
ROOT
HETATM    1 MG   UNL     3      -9.086  11.007  69.973  1.00  0.00    -0.383 Mg 
HETATM    2  O   UNL     4     -11.068   6.791  74.073  1.00  0.00    -0.358 OA 
HETATM    3  C   UNL     4     -10.510   7.063  72.802  1.00  0.00    -0.238 C  
HETATM    4  H   UNL     4     -10.428   6.466  74.697  1.00  0.00     0.000 HD 
HETATM    5  O   UNL     5     -11.954  13.784  63.394  1.00  0.00    -0.735 OA 
HETATM    6  H   UNL     5     -12.516  14.534  63.546  1.00  0.00     0.000 HD 
HETATM    7  C   UNL     5     -12.287  12.691  64.250  1.00  0.00    -0.435 C  
ENDROOT
BRANCH   3   8
HETATM    8  C   UNL     4     -11.544   7.589  71.795  1.00  0.00    -0.270 C  
HETATM    9  O   UNL     4     -12.143   8.796  72.302  1.00  0.00    -0.366 OA 
HETATM   10  H   UNL     4     -12.783   9.122  71.680  1.00  0.00     0.000 HD 
BRANCH   8  11
HETATM   11  C   UNL     4     -11.084   7.901  70.342  1.00  0.00    -0.245 C  
HETATM   12  O   UNL     4     -11.229   9.273  69.988  1.00  0.00    -0.305 OA 
HETATM   13  H   UNL     4     -10.948   9.463  69.101  1.00  0.00     0.000 HD 
BRANCH  11  14
HETATM   14  C   UNL     4      -9.715   7.338  69.874  1.00  0.00    -0.174 C  
HETATM   15  H   UNL     4      -7.979   8.128  69.449  1.00  0.00     0.000 HD 
HETATM   16  O   UNL     4      -8.817   8.473  69.735  1.00  0.00    -0.134 OA 
BRANCH  14  17
HETATM   17  C   UNL     4      -9.636   6.422  68.619  1.00  0.00    -0.120 C  
HETATM   18  C   UNL     4     -10.545   6.939  67.428  1.00  0.00    -0.303 C  
HETATM   19  H   UNL     4      -9.765   4.476  68.183  1.00  0.00     0.000 HD 
HETATM   20  O   UNL     4      -9.814   5.035  68.949  1.00  0.00    -0.155 OA 
HETATM   21  O   UNL     4     -10.564   8.236  67.309  1.00  0.00    -0.301 OA 
HETATM   22  O   UNL     4     -11.225   6.103  66.772  1.00  0.00    -0.279 OA 
ENDBRANCH  14  17
ENDBRANCH  11  14
ENDBRANCH   8  11
ENDBRANCH   3   8
BRANCH   7  23
HETATM   23  C   UNL     5     -11.375  11.472  64.003  1.00  0.00    -0.296 C  
HETATM   24  O   UNL     5     -11.303  11.245  62.594  1.00  0.00    -0.467 OA 
HETATM   25  H   UNL     5     -10.741  10.494  62.442  1.00  0.00     0.000 HD 
BRANCH  23  26
HETATM   26  C   UNL     5      -9.969  11.680  64.606  1.00  0.00    -0.253 C  
HETATM   27  O   UNL     5      -9.871  13.018  65.144  1.00  0.00    -0.481 OA 
HETATM   28  H   UNL     5      -9.006  13.146  65.516  1.00  0.00     0.000 HD 
BRANCH  26  29
HETATM   29  C   UNL     5      -9.463  10.643  65.647  1.00  0.00    -0.212 C  
HETATM   30  O   UNL     5      -9.479  11.144  66.983  1.00  0.00    -0.174 OA 
HETATM   31  H   UNL     5      -9.170  10.510  67.620  1.00  0.00     0.000 HD 
BRANCH  29  32
HETATM   32  C   UNL     5      -8.152   9.900  65.343  1.00  0.00    -0.137 C  
HETATM   33  C   UNL     5      -6.852  10.700  65.572  1.00  0.00    -0.052 C  
HETATM   34  O   UNL     5      -8.176   9.352  63.977  1.00  0.00    -0.143 OA 
HETATM   35  O   UNL     5      -6.846  11.530  66.529  1.00  0.00    -0.111 OA 
HETATM   36  O   UNL     5      -5.946  10.463  64.696  1.00  0.00    -0.130 OA 
HETATM   37  H   UNL     5      -7.367   8.893  63.789  1.00  0.00     0.000 HD 
ENDBRANCH  29  32
ENDBRANCH  26  29
ENDBRANCH  23  26
ENDBRANCH   7  23
TORSDOF 8
ENDMDL
MODEL      304
REMARK 921   NORMALIZED FREE ENERGY PREDICTED BY IDOCK:   -4.59 KCAL/MOL
REMARK 922        TOTAL FREE ENERGY PREDICTED BY IDOCK:   -8.98 KCAL/MOL
REMARK 923 INTER-LIGAND FREE ENERGY PREDICTED BY IDOCK:   -7.78 KCAL/MOL
REMARK 924 INTRA-LIGAND FREE ENERGY PREDICTED BY IDOCK:   -1.20 KCAL/MOL
REMARK 927      BINDING AFFINITY PREDICTED BY RF-SCORE:    0.00 PKD
ROOT
HETATM    1 MG   UNL     3      -7.362   9.611  69.948  1.00  0.00    -0.055 Mg 
HETATM    2  O   UNL     4     -12.090   6.677  72.695  1.00  0.00    -0.496 OA 
HETATM    3  C   UNL     4     -11.604   7.386  71.571  1.00  0.00    -0.275 C  
HETATM    4  H   UNL     4     -12.162   5.742  72.540  1.00  0.00     0.000 HD 
HETATM    5  O   UNL     5      -5.746  17.018  68.629  1.00  0.00    -0.136 OA 
HETATM    6  H   UNL     5      -5.266  17.406  69.351  1.00  0.00     0.000 HD 
HETATM    7  C   UNL     5      -6.900  16.310  69.081  1.00  0.00    -0.202 C  
ENDROOT
BRANCH   3   8
HETATM    8  C   UNL     4     -11.488   8.896  71.822  1.00  0.00    -0.353 C  
HETATM    9  O   UNL     4     -10.268   9.391  71.238  1.00  0.00    -0.315 OA 
HETATM   10  H   UNL     4     -10.196  10.326  71.393  1.00  0.00     0.000 HD 
BRANCH   8  11
HETATM   11  C   UNL     4     -12.628   9.830  71.321  1.00  0.00    -0.365 C  
HETATM   12  O   UNL     4     -13.860   9.632  72.006  1.00  0.00    -0.334 OA 
HETATM   13  H   UNL     4     -14.555  10.203  71.700  1.00  0.00     0.000 HD 
BRANCH  11  14
HETATM   14  C   UNL     4     -12.310  11.341  71.150  1.00  0.00    -0.324 C  
HETATM   15  H   UNL     4     -13.270  12.996  71.543  1.00  0.00     0.000 HD 
HETATM   16  O   UNL     4     -13.464  12.072  71.647  1.00  0.00    -0.230 OA 
BRANCH  14  17
HETATM   17  C   UNL     4     -11.868  11.893  69.765  1.00  0.00    -0.340 C  
HETATM   18  C   UNL     4     -11.986  13.470  69.671  1.00  0.00    -0.337 C  
HETATM   19  H   UNL     4     -12.210  11.518  67.831  1.00  0.00     0.000 HD 
HETATM   20  O   UNL     4     -12.481  11.182  68.678  1.00  0.00    -0.463 OA 
HETATM   21  O   UNL     4     -11.660  14.086  70.771  1.00  0.00    -0.183 OA 
HETATM   22  O   UNL     4     -12.454  13.986  68.619  1.00  0.00    -0.147 OA 
ENDBRANCH  14  17
ENDBRANCH  11  14
ENDBRANCH   8  11
ENDBRANCH   3   8
BRANCH   7  23
HETATM   23  C   UNL     5      -7.681  15.681  67.909  1.00  0.00    -0.131 C  
HETATM   24  O   UNL     5      -8.452  14.592  68.418  1.00  0.00    -0.150 OA 
HETATM   25  H   UNL     5      -8.933  14.204  67.697  1.00  0.00     0.000 HD 
BRANCH  23  26
HETATM   26  C   UNL     5      -8.580  16.717  67.201  1.00  0.00    -0.196 C  
HETATM   27  O   UNL     5      -9.018  16.182  65.931  1.00  0.00    -0.351 OA 
HETATM   28  H   UNL     5      -9.572  16.820  65.495  1.00  0.00     0.000 HD 
BRANCH  26  29
HETATM   29  C   UNL     5      -9.791  17.290  67.989  1.00  0.00    -0.284 C  
HETATM   30  O   UNL     5     -11.016  16.624  67.688  1.00  0.00    -0.296 OA 
HETATM   31  H   UNL     5     -11.756  16.974  68.170  1.00  0.00     0.000 HD 
BRANCH  29  32
HETATM   32  C   UNL     5      -9.974  18.816  68.015  1.00  0.00    -0.356 C  
HETATM   33  C   UNL     5     -10.175  19.497  66.645  1.00  0.00    -0.449 C  
HETATM   34  O   UNL     5      -8.864  19.455  68.742  1.00  0.00    -0.366 OA 
HETATM   35  O   UNL     5     -10.812  18.846  65.765  1.00  0.00    -0.388 OA 
HETATM   36  O   UNL     5      -9.594  20.637  66.551  1.00  0.00    -0.256 OA 
HETATM   37  H   UNL     5      -8.977  20.398  68.758  1.00  0.00     0.000 HD 
ENDBRANCH  29  32
ENDBRANCH  26  29
ENDBRANCH  23  26
ENDBRANCH   7  23
TORSDOF 8
ENDMDL
MODEL      305
REMARK 921   NORMALIZED FREE ENERGY PREDICTED BY IDOCK:   -4.59 KCAL/MOL
REMARK 922        TOTAL FREE ENERGY PREDICTED BY IDOCK:   -8.97 KCAL/MOL
REMARK 923 INTER-LIGAND FREE ENERGY PREDICTED BY IDOCK:   -7.34 KCAL/MOL
REMARK 924 INTRA-LIGAND FREE ENERGY PREDICTED BY IDOCK:   -1.64 KCAL/MOL
REMARK 927      BINDING AFFINITY PREDICTED BY RF-SCORE:    0.00 PKD
ROOT
HETATM    1 MG   UNL     3     -10.342  14.635  70.187  1.00  0.00    -0.308 Mg 
HETATM    2  O   UNL     4     -12.764  12.310  64.968  1.00  0.00    -0.581 OA 
HETATM    3  C   UNL     4     -11.635  12.460  65.807  1.00  0.00    -0.398 C  
HETATM    4  H   UNL     4     -13.155  11.445  65.025  1.00  0.00     0.000 HD 
HETATM    5  O   UNL     5      -5.580  20.490  71.691  1.00  0.00    -0.542 OA 
HETATM    6  H   UNL     5      -6.054  21.302  71.822  1.00  0.00     0.000 HD 
HETATM    7  C   UNL     5      -5.998  19.819  70.502  1.00  0.00    -0.269 C  
ENDROOT
BRANCH   3   8
HETATM    8  C   UNL     4     -11.003  13.857  65.715  1.00  0.00    -0.285 C  
HETATM    9  O   UNL     4     -12.030  14.839  65.482  1.00  0.00    -0.300 OA 
HETATM   10  H   UNL     4     -11.639  15.703  65.424  1.00  0.00     0.000 HD 
BRANCH   8  11
HETATM   11  C   UNL     4     -10.158  14.379  66.913  1.00  0.00    -0.259 C  
HETATM   12  O   UNL     4     -10.778  15.450  67.616  1.00  0.00    -0.278 OA 
HETATM   13  H   UNL     4     -10.262  15.768  68.347  1.00  0.00     0.000 HD 
BRANCH  11  14
HETATM   14  C   UNL     4      -9.556  13.333  67.890  1.00  0.00    -0.217 C  
HETATM   15  H   UNL     4      -8.279  13.411  69.366  1.00  0.00     0.000 HD 
HETATM   16  O   UNL     4      -8.647  14.051  68.768  1.00  0.00    -0.133 OA 
BRANCH  14  17
HETATM   17  C   UNL     4      -8.880  12.046  67.337  1.00  0.00    -0.178 C  
HETATM   18  C   UNL     4      -8.895  10.852  68.379  1.00  0.00    -0.147 C  
HETATM   19  H   UNL     4      -7.182  11.531  66.417  1.00  0.00     0.000 HD 
HETATM   20  O   UNL     4      -7.595  12.317  66.756  1.00  0.00    -0.046 OA 
HETATM   21  O   UNL     4      -9.990  10.783  69.080  1.00  0.00    -0.208 OA 
HETATM   22  O   UNL     4      -7.858  10.146  68.513  1.00  0.00    -0.090 OA 
ENDBRANCH  14  17
ENDBRANCH  11  14
ENDBRANCH   8  11
ENDBRANCH   3   8
BRANCH   7  23
HETATM   23  C   UNL     5      -5.228  18.501  70.288  1.00  0.00    -0.231 C  
HETATM   24  O   UNL     5      -5.143  17.823  71.544  1.00  0.00    -0.504 OA 
HETATM   25  H   UNL     5      -4.668  17.011  71.412  1.00  0.00     0.000 HD 
BRANCH  23  26
HETATM   26  C   UNL     5      -5.903  17.612  69.221  1.00  0.00    -0.217 C  
HETATM   27  O   UNL     5      -5.812  16.226  69.624  1.00  0.00    -0.150 OA 
HETATM   28  H   UNL     5      -6.227  15.679  68.967  1.00  0.00     0.000 HD 
BRANCH  26  29
HETATM   29  C   UNL     5      -7.359  17.956  68.802  1.00  0.00    -0.270 C  
HETATM   30  O   UNL     5      -8.259  16.861  68.970  1.00  0.00    -0.234 OA 
HETATM   31  H   UNL     5      -9.150  17.071  68.714  1.00  0.00     0.000 HD 
BRANCH  29  32
HETATM   32  C   UNL     5      -7.573  18.654  67.450  1.00  0.00    -0.227 C  
HETATM   33  C   UNL     5      -7.290  17.800  66.196  1.00  0.00    -0.299 C  
HETATM   34  O   UNL     5      -6.805  19.909  67.392  1.00  0.00    -0.210 OA 
HETATM   35  O   UNL     5      -7.561  16.564  66.266  1.00  0.00    -0.268 OA 
HETATM   36  O   UNL     5      -6.739  18.458  65.243  1.00  0.00    -0.490 OA 
HETATM   37  H   UNL     5      -6.937  20.340  66.556  1.00  0.00     0.000 HD 
ENDBRANCH  29  32
ENDBRANCH  26  29
ENDBRANCH  23  26
ENDBRANCH   7  23
TORSDOF 8
ENDMDL
MODEL      306
REMARK 921   NORMALIZED FREE ENERGY PREDICTED BY IDOCK:   -4.59 KCAL/MOL
REMARK 922        TOTAL FREE ENERGY PREDICTED BY IDOCK:   -8.97 KCAL/MOL
REMARK 923 INTER-LIGAND FREE ENERGY PREDICTED BY IDOCK:   -6.16 KCAL/MOL
REMARK 924 INTRA-LIGAND FREE ENERGY PREDICTED BY IDOCK:   -2.82 KCAL/MOL
REMARK 927      BINDING AFFINITY PREDICTED BY RF-SCORE:    0.00 PKD
ROOT
HETATM    1 MG   UNL     3      -7.773  10.211  69.396  1.00  0.00    -0.069 Mg 
HETATM    2  O   UNL     4     -11.198  14.227  66.132  1.00  0.00    -0.319 OA 
HETATM    3  C   UNL     4     -11.022  13.489  67.325  1.00  0.00    -0.280 C  
HETATM    4  H   UNL     4     -10.990  15.149  66.232  1.00  0.00     0.000 HD 
HETATM    5  O   UNL     5      -8.591   2.780  71.219  1.00  0.00    -0.062 OA 
HETATM    6  H   UNL     5      -8.209   2.213  70.559  1.00  0.00     0.000 HD 
HETATM    7  C   UNL     5      -9.443   3.768  70.640  1.00  0.00    -0.170 C  
ENDROOT
BRANCH   3   8
HETATM    8  C   UNL     4     -11.360  11.999  67.163  1.00  0.00    -0.333 C  
HETATM    9  O   UNL     4     -11.113  11.593  65.804  1.00  0.00    -0.302 OA 
HETATM   10  H   UNL     4     -11.322  10.671  65.703  1.00  0.00     0.000 HD 
BRANCH   8  11
HETATM   11  C   UNL     4     -10.637  10.963  68.072  1.00  0.00    -0.202 C  
HETATM   12  O   UNL     4      -9.254  10.814  67.766  1.00  0.00    -0.149 OA 
HETATM   13  H   UNL     4      -8.814  10.182  68.322  1.00  0.00     0.000 HD 
BRANCH  11  14
HETATM   14  C   UNL     4     -10.873  11.048  69.604  1.00  0.00    -0.183 C  
HETATM   15  H   UNL     4     -10.225  10.043  71.149  1.00  0.00     0.000 HD 
HETATM   16  O   UNL     4     -10.080   9.991  70.212  1.00  0.00    -0.260 OA 
BRANCH  14  17
HETATM   17  C   UNL     4     -12.321  11.041  70.172  1.00  0.00    -0.311 C  
HETATM   18  C   UNL     4     -12.642  12.326  71.042  1.00  0.00    -0.257 C  
HETATM   19  H   UNL     4     -13.533   9.788  71.151  1.00  0.00     0.000 HD 
HETATM   20  O   UNL     4     -12.648   9.793  70.804  1.00  0.00    -0.276 OA 
HETATM   21  O   UNL     4     -12.113  13.420  70.575  1.00  0.00    -0.349 OA 
HETATM   22  O   UNL     4     -13.277  12.188  72.124  1.00  0.00    -0.499 OA 
ENDBRANCH  14  17
ENDBRANCH  11  14
ENDBRANCH   8  11
ENDBRANCH   3   8
BRANCH   7  23
HETATM   23  C   UNL     5     -10.061   4.688  71.712  1.00  0.00    -0.191 C  
HETATM   24  O   UNL     5      -9.536   4.309  72.985  1.00  0.00    -0.119 OA 
HETATM   25  H   UNL     5      -9.917   4.876  73.646  1.00  0.00     0.000 HD 
BRANCH  23  26
HETATM   26  C   UNL     5      -9.783   6.178  71.416  1.00  0.00    -0.167 C  
HETATM   27  O   UNL     5      -8.875   6.703  72.411  1.00  0.00    -0.133 OA 
HETATM   28  H   UNL     5      -8.704   7.619  72.229  1.00  0.00     0.000 HD 
BRANCH  26  29
HETATM   29  C   UNL     5      -9.296   6.557  69.990  1.00  0.00    -0.157 C  
HETATM   30  O   UNL     5      -8.362   7.636  69.991  1.00  0.00    -0.130 OA 
HETATM   31  H   UNL     5      -8.064   7.869  69.119  1.00  0.00     0.000 HD 
BRANCH  29  32
HETATM   32  C   UNL     5     -10.357   6.736  68.892  1.00  0.00    -0.192 C  
HETATM   33  C   UNL     5      -9.844   7.263  67.535  1.00  0.00    -0.155 C  
HETATM   34  O   UNL     5     -11.463   7.577  69.377  1.00  0.00    -0.440 OA 
HETATM   35  O   UNL     5      -8.685   6.899  67.175  1.00  0.00    -0.119 OA 
HETATM   36  O   UNL     5     -10.653   8.078  66.965  1.00  0.00    -0.335 OA 
HETATM   37  H   UNL     5     -12.118   7.688  68.699  1.00  0.00     0.000 HD 
ENDBRANCH  29  32
ENDBRANCH  26  29
ENDBRANCH  23  26
ENDBRANCH   7  23
TORSDOF 8
ENDMDL
MODEL      307
REMARK 921   NORMALIZED FREE ENERGY PREDICTED BY IDOCK:   -4.57 KCAL/MOL
REMARK 922        TOTAL FREE ENERGY PREDICTED BY IDOCK:   -8.96 KCAL/MOL
REMARK 923 INTER-LIGAND FREE ENERGY PREDICTED BY IDOCK:   -6.67 KCAL/MOL
REMARK 924 INTRA-LIGAND FREE ENERGY PREDICTED BY IDOCK:   -2.29 KCAL/MOL
REMARK 927      BINDING AFFINITY PREDICTED BY RF-SCORE:    0.00 PKD
ROOT
HETATM    1 MG   UNL     3      -8.192  12.631  69.604  1.00  0.00    -0.302 Mg 
HETATM    2  O   UNL     4     -13.363  15.966  70.416  1.00  0.00    -0.726 OA 
HETATM    3  C   UNL     4     -12.464  14.997  70.922  1.00  0.00    -0.345 C  
HETATM    4  H   UNL     4     -13.264  16.815  70.831  1.00  0.00     0.000 HD 
HETATM    5  O   UNL     5      -6.839   5.245  67.920  1.00  0.00    -0.057 OA 
HETATM    6  H   UNL     5      -6.803   5.101  66.982  1.00  0.00     0.000 HD 
HETATM    7  C   UNL     5      -7.996   5.990  68.298  1.00  0.00    -0.106 C  
ENDROOT
BRANCH   3   8
HETATM    8  C   UNL     4     -12.624  13.625  70.250  1.00  0.00    -0.186 C  
HETATM    9  O   UNL     4     -11.686  13.505  69.164  1.00  0.00    -0.282 OA 
HETATM   10  H   UNL     4     -11.785  12.656  68.749  1.00  0.00     0.000 HD 
BRANCH   8  11
HETATM   11  C   UNL     4     -12.461  12.342  71.117  1.00  0.00    -0.222 C  
HETATM   12  O   UNL     4     -13.375  12.280  72.207  1.00  0.00    -0.538 OA 
HETATM   13  H   UNL     4     -13.275  11.497  72.736  1.00  0.00     0.000 HD 
BRANCH  11  14
HETATM   14  C   UNL     4     -12.358  10.977  70.385  1.00  0.00    -0.356 C  
HETATM   15  H   UNL     4     -13.016   9.173  70.749  1.00  0.00     0.000 HD 
HETATM   16  O   UNL     4     -13.079  10.009  71.196  1.00  0.00    -0.370 OA 
BRANCH  14  17
HETATM   17  C   UNL     4     -10.967  10.416  69.972  1.00  0.00    -0.308 C  
HETATM   18  C   UNL     4     -10.926   9.938  68.462  1.00  0.00    -0.180 C  
HETATM   19  H   UNL     4      -9.618   9.115  70.665  1.00  0.00     0.000 HD 
HETATM   20  O   UNL     4     -10.467   9.457  70.917  1.00  0.00    -0.265 OA 
HETATM   21  O   UNL     4     -11.607  10.698  67.653  1.00  0.00    -0.492 OA 
HETATM   22  O   UNL     4     -10.342   8.855  68.180  1.00  0.00    -0.201 OA 
ENDBRANCH  14  17
ENDBRANCH  11  14
ENDBRANCH   8  11
ENDBRANCH   3   8
BRANCH   7  23
HETATM   23  C   UNL     5      -8.054   6.225  69.821  1.00  0.00    -0.120 C  
HETATM   24  O   UNL     5      -8.229   7.624  70.052  1.00  0.00    -0.121 OA 
HETATM   25  H   UNL     5      -8.264   7.768  70.990  1.00  0.00     0.000 HD 
BRANCH  23  26
HETATM   26  C   UNL     5      -9.183   5.405  70.482  1.00  0.00    -0.147 C  
HETATM   27  O   UNL     5      -9.368   4.170  69.755  1.00  0.00    -0.131 OA 
HETATM   28  H   UNL     5     -10.063   3.666  70.162  1.00  0.00     0.000 HD 
BRANCH  26  29
HETATM   29  C   UNL     5      -9.078   5.122  72.007  1.00  0.00    -0.137 C  
HETATM   30  O   UNL     5      -9.481   3.797  72.355  1.00  0.00    -0.117 OA 
HETATM   31  H   UNL     5      -9.417   3.624  73.287  1.00  0.00     0.000 HD 
BRANCH  29  32
HETATM   32  C   UNL     5      -9.672   6.159  72.974  1.00  0.00    -0.158 C  
HETATM   33  C   UNL     5     -11.208   6.305  72.950  1.00  0.00    -0.200 C  
HETATM   34  O   UNL     5      -9.035   7.471  72.774  1.00  0.00    -0.132 OA 
HETATM   35  O   UNL     5     -11.884   5.257  72.730  1.00  0.00    -0.251 OA 
HETATM   36  O   UNL     5     -11.608   7.515  73.092  1.00  0.00    -0.217 OA 
HETATM   37  H   UNL     5      -9.401   8.112  73.371  1.00  0.00     0.000 HD 
ENDBRANCH  29  32
ENDBRANCH  26  29
ENDBRANCH  23  26
ENDBRANCH   7  23
TORSDOF 8
ENDMDL
MODEL      308
REMARK 921   NORMALIZED FREE ENERGY PREDICTED BY IDOCK:   -4.57 KCAL/MOL
REMARK 922        TOTAL FREE ENERGY PREDICTED BY IDOCK:   -8.95 KCAL/MOL
REMARK 923 INTER-LIGAND FREE ENERGY PREDICTED BY IDOCK:   -6.60 KCAL/MOL
REMARK 924 INTRA-LIGAND FREE ENERGY PREDICTED BY IDOCK:   -2.36 KCAL/MOL
REMARK 927      BINDING AFFINITY PREDICTED BY RF-SCORE:    0.00 PKD
ROOT
HETATM    1 MG   UNL     3      -9.303  12.381  63.448  1.00  0.00    -0.463 Mg 
HETATM    2  O   UNL     4      -9.245  18.052  65.969  1.00  0.00    -0.508 OA 
HETATM    3  C   UNL     4      -8.631  16.784  65.847  1.00  0.00    -0.029 C  
HETATM    4  H   UNL     4      -8.790  18.732  65.484  1.00  0.00     0.000 HD 
HETATM    5  O   UNL     5     -10.992   5.378  66.153  1.00  0.00    -0.700 OA 
HETATM    6  H   UNL     5     -11.916   5.179  66.057  1.00  0.00     0.000 HD 
HETATM    7  C   UNL     5     -10.786   6.659  66.749  1.00  0.00    -0.252 C  
ENDROOT
BRANCH   3   8
HETATM    8  C   UNL     4      -9.366  15.686  66.630  1.00  0.00    -0.265 C  
HETATM    9  O   UNL     4      -9.045  14.397  66.074  1.00  0.00    -0.502 OA 
HETATM   10  H   UNL     4      -9.500  13.718  66.559  1.00  0.00     0.000 HD 
BRANCH   8  11
HETATM   11  C   UNL     4      -9.133  15.575  68.165  1.00  0.00    -0.184 C  
HETATM   12  O   UNL     4      -9.036  16.840  68.812  1.00  0.00    -0.248 OA 
HETATM   13  H   UNL     4      -8.894  16.771  69.749  1.00  0.00     0.000 HD 
BRANCH  11  14
HETATM   14  C   UNL     4     -10.030  14.595  68.969  1.00  0.00    -0.193 C  
HETATM   15  H   UNL     4     -10.219  12.652  69.037  1.00  0.00     0.000 HD 
HETATM   16  O   UNL     4      -9.670  13.251  68.545  1.00  0.00    -0.215 OA 
BRANCH  14  17
HETATM   17  C   UNL     4     -11.575  14.773  68.970  1.00  0.00    -0.297 C  
HETATM   18  C   UNL     4     -12.115  15.412  70.316  1.00  0.00    -0.369 C  
HETATM   19  H   UNL     4     -13.202  13.686  68.559  1.00  0.00     0.000 HD 
HETATM   20  O   UNL     4     -12.258  13.578  68.559  1.00  0.00    -0.320 OA 
HETATM   21  O   UNL     4     -11.336  16.333  70.807  1.00  0.00    -0.395 OA 
HETATM   22  O   UNL     4     -13.163  14.941  70.838  1.00  0.00    -0.375 OA 
ENDBRANCH  14  17
ENDBRANCH  11  14
ENDBRANCH   8  11
ENDBRANCH   3   8
BRANCH   7  23
HETATM   23  C   UNL     5      -9.287   6.982  66.906  1.00  0.00    -0.153 C  
HETATM   24  O   UNL     5      -8.611   6.556  65.722  1.00  0.00    -0.148 OA 
HETATM   25  H   UNL     5      -7.687   6.755  65.818  1.00  0.00     0.000 HD 
BRANCH  23  26
HETATM   26  C   UNL     5      -9.051   8.486  67.170  1.00  0.00    -0.140 C  
HETATM   27  O   UNL     5      -9.761   8.879  68.367  1.00  0.00    -0.155 OA 
HETATM   28  H   UNL     5      -9.616   9.804  68.529  1.00  0.00     0.000 HD 
BRANCH  26  29
HETATM   29  C   UNL     5      -7.584   8.994  67.223  1.00  0.00    -0.088 C  
HETATM   30  O   UNL     5      -7.341   9.879  68.316  1.00  0.00    -0.078 OA 
HETATM   31  H   UNL     5      -6.444  10.190  68.349  1.00  0.00     0.000 HD 
BRANCH  29  32
HETATM   32  C   UNL     5      -6.959   9.525  65.923  1.00  0.00    -0.091 C  
HETATM   33  C   UNL     5      -7.813  10.533  65.125  1.00  0.00    -0.076 C  
HETATM   34  O   UNL     5      -6.550   8.409  65.055  1.00  0.00    -0.062 OA 
HETATM   35  O   UNL     5      -8.542  11.327  65.791  1.00  0.00    -0.160 OA 
HETATM   36  O   UNL     5      -7.723  10.386  63.854  1.00  0.00    -0.129 OA 
HETATM   37  H   UNL     5      -6.164   8.737  64.252  1.00  0.00     0.000 HD 
ENDBRANCH  29  32
ENDBRANCH  26  29
ENDBRANCH  23  26
ENDBRANCH   7  23
TORSDOF 8
ENDMDL
MODEL      309
REMARK 921   NORMALIZED FREE ENERGY PREDICTED BY IDOCK:   -4.56 KCAL/MOL
REMARK 922        TOTAL FREE ENERGY PREDICTED BY IDOCK:   -8.94 KCAL/MOL
REMARK 923 INTER-LIGAND FREE ENERGY PREDICTED BY IDOCK:   -6.62 KCAL/MOL
REMARK 924 INTRA-LIGAND FREE ENERGY PREDICTED BY IDOCK:   -2.31 KCAL/MOL
REMARK 927      BINDING AFFINITY PREDICTED BY RF-SCORE:    0.00 PKD
ROOT
HETATM    1 MG   UNL     3     -12.040   9.504  67.558  1.00  0.00    -0.265 Mg 
HETATM    2  O   UNL     4     -13.790  12.889  72.457  1.00  0.00    -0.619 OA 
HETATM    3  C   UNL     4     -12.737  12.328  71.696  1.00  0.00    -0.203 C  
HETATM    4  H   UNL     4     -13.890  13.824  72.318  1.00  0.00     0.000 HD 
HETATM    5  O   UNL     5      -9.296   2.362  66.737  1.00  0.00    -0.339 OA 
HETATM    6  H   UNL     5      -9.996   1.728  66.634  1.00  0.00     0.000 HD 
HETATM    7  C   UNL     5      -9.524   3.225  67.851  1.00  0.00    -0.164 C  
ENDROOT
BRANCH   3   8
HETATM    8  C   UNL     4     -12.576  10.817  71.921  1.00  0.00    -0.158 C  
HETATM    9  O   UNL     4     -13.872  10.213  72.098  1.00  0.00    -0.358 OA 
HETATM   10  H   UNL     4     -13.772   9.279  72.238  1.00  0.00     0.000 HD 
BRANCH   8  11
HETATM   11  C   UNL     4     -11.840   9.972  70.840  1.00  0.00    -0.368 C  
HETATM   12  O   UNL     4     -10.760  10.665  70.224  1.00  0.00    -0.453 OA 
HETATM   13  H   UNL     4     -10.311  10.149  69.565  1.00  0.00     0.000 HD 
BRANCH  11  14
HETATM   14  C   UNL     4     -11.448   8.513  71.198  1.00  0.00    -0.276 C  
HETATM   15  H   UNL     4     -11.803   7.331  72.712  1.00  0.00     0.000 HD 
HETATM   16  O   UNL     4     -12.043   8.223  72.493  1.00  0.00    -0.385 OA 
BRANCH  14  17
HETATM   17  C   UNL     4      -9.955   8.079  71.173  1.00  0.00    -0.174 C  
HETATM   18  C   UNL     4      -9.771   6.516  71.363  1.00  0.00    -0.172 C  
HETATM   19  H   UNL     4      -8.229   8.621  72.022  1.00  0.00     0.000 HD 
HETATM   20  O   UNL     4      -9.141   8.886  72.038  1.00  0.00    -0.353 OA 
HETATM   21  O   UNL     4     -10.684   5.805  70.766  1.00  0.00    -0.256 OA 
HETATM   22  O   UNL     4      -8.852   6.097  72.119  1.00  0.00    -0.138 OA 
ENDBRANCH  14  17
ENDBRANCH  11  14
ENDBRANCH   8  11
ENDBRANCH   3   8
BRANCH   7  23
HETATM   23  C   UNL     5      -8.388   4.255  68.018  1.00  0.00    -0.094 C  
HETATM   24  O   UNL     5      -7.399   3.996  67.020  1.00  0.00    -0.070 OA 
HETATM   25  H   UNL     5      -6.699   4.630  67.123  1.00  0.00     0.000 HD 
BRANCH  23  26
HETATM   26  C   UNL     5      -8.912   5.704  67.919  1.00  0.00    -0.108 C  
HETATM   27  O   UNL     5      -7.808   6.625  68.074  1.00  0.00    -0.109 OA 
HETATM   28  H   UNL     5      -8.131   7.516  68.014  1.00  0.00     0.000 HD 
BRANCH  26  29
HETATM   29  C   UNL     5      -9.762   6.087  66.675  1.00  0.00    -0.157 C  
HETATM   30  O   UNL     5      -9.092   5.823  65.443  1.00  0.00    -0.317 OA 
HETATM   31  H   UNL     5      -9.612   6.057  64.682  1.00  0.00     0.000 HD 
BRANCH  29  32
HETATM   32  C   UNL     5     -10.433   7.470  66.662  1.00  0.00    -0.131 C  
HETATM   33  C   UNL     5      -9.489   8.680  66.498  1.00  0.00    -0.216 C  
HETATM   34  O   UNL     5     -11.278   7.643  67.855  1.00  0.00    -0.438 OA 
HETATM   35  O   UNL     5      -8.466   8.519  65.768  1.00  0.00    -0.136 OA 
HETATM   36  O   UNL     5      -9.837   9.697  67.198  1.00  0.00    -0.168 OA 
HETATM   37  H   UNL     5     -11.693   8.497  67.847  1.00  0.00     0.000 HD 
ENDBRANCH  29  32
ENDBRANCH  26  29
ENDBRANCH  23  26
ENDBRANCH   7  23
TORSDOF 8
ENDMDL
MODEL      310
REMARK 921   NORMALIZED FREE ENERGY PREDICTED BY IDOCK:   -4.55 KCAL/MOL
REMARK 922        TOTAL FREE ENERGY PREDICTED BY IDOCK:   -8.93 KCAL/MOL
REMARK 923 INTER-LIGAND FREE ENERGY PREDICTED BY IDOCK:   -7.66 KCAL/MOL
REMARK 924 INTRA-LIGAND FREE ENERGY PREDICTED BY IDOCK:   -1.27 KCAL/MOL
REMARK 927      BINDING AFFINITY PREDICTED BY RF-SCORE:    0.00 PKD
ROOT
HETATM    1 MG   UNL     3     -10.197  11.900  68.318  1.00  0.00    -0.164 Mg 
HETATM    2  O   UNL     4      -8.588   6.993  64.875  1.00  0.00    -0.345 OA 
HETATM    3  C   UNL     4      -8.191   8.169  65.554  1.00  0.00    -0.144 C  
HETATM    4  H   UNL     4      -8.357   6.199  65.343  1.00  0.00     0.000 HD 
HETATM    5  O   UNL     5     -10.967  19.412  66.837  1.00  0.00    -0.444 OA 
HETATM    6  H   UNL     5     -11.844  19.622  66.541  1.00  0.00     0.000 HD 
HETATM    7  C   UNL     5     -10.420  18.302  66.125  1.00  0.00    -0.383 C  
ENDROOT
BRANCH   3   8
HETATM    8  C   UNL     4      -8.565   9.452  64.798  1.00  0.00    -0.180 C  
HETATM    9  O   UNL     4      -8.983   9.121  63.460  1.00  0.00    -0.418 OA 
HETATM   10  H   UNL     4      -9.214   9.915  62.992  1.00  0.00     0.000 HD 
BRANCH   8  11
HETATM   11  C   UNL     4      -9.669  10.376  65.389  1.00  0.00    -0.265 C  
HETATM   12  O   UNL     4      -9.982  10.082  66.746  1.00  0.00    -0.191 OA 
HETATM   13  H   UNL     4     -10.656  10.646  67.107  1.00  0.00     0.000 HD 
BRANCH  11  14
HETATM   14  C   UNL     4      -9.541  11.906  65.156  1.00  0.00    -0.114 C  
HETATM   15  H   UNL     4      -9.071  13.430  66.284  1.00  0.00     0.000 HD 
HETATM   16  O   UNL     4      -9.149  12.494  66.427  1.00  0.00    -0.208 OA 
BRANCH  14  17
HETATM   17  C   UNL     4     -10.721  12.701  64.527  1.00  0.00    -0.341 C  
HETATM   18  C   UNL     4     -12.041  12.628  65.401  1.00  0.00    -0.462 C  
HETATM   19  H   UNL     4     -11.627  12.871  62.753  1.00  0.00     0.000 HD 
HETATM   20  O   UNL     4     -10.906  12.385  63.138  1.00  0.00    -0.362 OA 
HETATM   21  O   UNL     4     -11.821  12.664  66.685  1.00  0.00    -0.389 OA 
HETATM   22  O   UNL     4     -13.149  12.457  64.822  1.00  0.00    -0.806 OA 
ENDBRANCH  14  17
ENDBRANCH  11  14
ENDBRANCH   8  11
ENDBRANCH   3   8
BRANCH   7  23
HETATM   23  C   UNL     5      -8.995  17.960  66.605  1.00  0.00    -0.268 C  
HETATM   24  O   UNL     5      -8.099  18.126  65.505  1.00  0.00    -0.302 OA 
HETATM   25  H   UNL     5      -7.222  17.915  65.801  1.00  0.00     0.000 HD 
BRANCH  23  26
HETATM   26  C   UNL     5      -8.571  18.835  67.805  1.00  0.00    -0.283 C  
HETATM   27  O   UNL     5      -9.608  18.802  68.813  1.00  0.00    -0.358 OA 
HETATM   28  H   UNL     5      -9.347  19.340  69.551  1.00  0.00     0.000 HD 
BRANCH  26  29
HETATM   29  C   UNL     5      -7.184  18.563  68.450  1.00  0.00    -0.276 C  
HETATM   30  O   UNL     5      -6.100  18.769  67.545  1.00  0.00    -0.177 OA 
HETATM   31  H   UNL     5      -5.252  18.603  67.939  1.00  0.00     0.000 HD 
BRANCH  29  32
HETATM   32  C   UNL     5      -7.006  17.262  69.250  1.00  0.00    -0.178 C  
HETATM   33  C   UNL     5      -5.876  17.263  70.301  1.00  0.00    -0.113 C  
HETATM   34  O   UNL     5      -6.851  16.116  68.339  1.00  0.00    -0.123 OA 
HETATM   35  O   UNL     5      -5.647  18.355  70.901  1.00  0.00    -0.205 OA 
HETATM   36  O   UNL     5      -5.253  16.145  70.382  1.00  0.00    -0.157 OA 
HETATM   37  H   UNL     5      -6.741  15.312  68.833  1.00  0.00     0.000 HD 
ENDBRANCH  29  32
ENDBRANCH  26  29
ENDBRANCH  23  26
ENDBRANCH   7  23
TORSDOF 8
ENDMDL
MODEL      311
REMARK 921   NORMALIZED FREE ENERGY PREDICTED BY IDOCK:   -4.55 KCAL/MOL
REMARK 922        TOTAL FREE ENERGY PREDICTED BY IDOCK:   -8.92 KCAL/MOL
REMARK 923 INTER-LIGAND FREE ENERGY PREDICTED BY IDOCK:   -7.30 KCAL/MOL
REMARK 924 INTRA-LIGAND FREE ENERGY PREDICTED BY IDOCK:   -1.62 KCAL/MOL
REMARK 927      BINDING AFFINITY PREDICTED BY RF-SCORE:    0.00 PKD
ROOT
HETATM    1 MG   UNL     3      -9.613  10.598  70.290  1.00  0.00    -0.357 Mg 
HETATM    2  O   UNL     4     -12.730  15.734  71.843  1.00  0.00    -0.416 OA 
HETATM    3  C   UNL     4     -12.682  14.538  71.090  1.00  0.00    -0.338 C  
HETATM    4  H   UNL     4     -13.306  15.675  72.597  1.00  0.00     0.000 HD 
HETATM    5  O   UNL     5      -5.739   8.426  64.006  1.00  0.00    -0.063 OA 
HETATM    6  H   UNL     5      -4.827   8.689  64.048  1.00  0.00     0.000 HD 
HETATM    7  C   UNL     5      -6.617   9.508  64.317  1.00  0.00    -0.100 C  
ENDROOT
BRANCH   3   8
HETATM    8  C   UNL     4     -11.752  14.635  69.872  1.00  0.00    -0.299 C  
HETATM    9  O   UNL     4     -10.549  15.337  70.237  1.00  0.00    -0.391 OA 
HETATM   10  H   UNL     4      -9.973  15.397  69.483  1.00  0.00     0.000 HD 
BRANCH   8  11
HETATM   11  C   UNL     4     -11.300  13.323  69.167  1.00  0.00    -0.282 C  
HETATM   12  O   UNL     4     -11.191  12.216  70.055  1.00  0.00    -0.494 OA 
HETATM   13  H   UNL     4     -10.915  11.415  69.624  1.00  0.00     0.000 HD 
BRANCH  11  14
HETATM   14  C   UNL     4     -12.013  12.923  67.847  1.00  0.00    -0.282 C  
HETATM   15  H   UNL     4     -12.510  11.225  67.018  1.00  0.00     0.000 HD 
HETATM   16  O   UNL     4     -12.074  11.470  67.825  1.00  0.00    -0.626 OA 
BRANCH  14  17
HETATM   17  C   UNL     4     -11.496  13.468  66.485  1.00  0.00    -0.339 C  
HETATM   18  C   UNL     4      -9.945  13.793  66.506  1.00  0.00    -0.288 C  
HETATM   19  H   UNL     4     -12.007  14.862  65.146  1.00  0.00     0.000 HD 
HETATM   20  O   UNL     4     -12.322  14.529  65.978  1.00  0.00    -0.332 OA 
HETATM   21  O   UNL     4      -9.241  12.940  67.195  1.00  0.00    -0.208 OA 
HETATM   22  O   UNL     4      -9.536  14.854  65.959  1.00  0.00    -0.296 OA 
ENDBRANCH  14  17
ENDBRANCH  11  14
ENDBRANCH   8  11
ENDBRANCH   3   8
BRANCH   7  23
HETATM   23  C   UNL     5      -8.097   9.081  64.248  1.00  0.00    -0.151 C  
HETATM   24  O   UNL     5      -8.148   7.660  64.111  1.00  0.00    -0.233 OA 
HETATM   25  H   UNL     5      -9.059   7.397  64.068  1.00  0.00     0.000 HD 
BRANCH  23  26
HETATM   26  C   UNL     5      -8.884   9.549  65.491  1.00  0.00    -0.168 C  
HETATM   27  O   UNL     5     -10.302   9.428  65.234  1.00  0.00    -0.126 OA 
HETATM   28  H   UNL     5     -10.787   9.716  65.999  1.00  0.00     0.000 HD 
BRANCH  26  29
HETATM   29  C   UNL     5      -8.530   8.906  66.861  1.00  0.00    -0.112 C  
HETATM   30  O   UNL     5      -7.268   8.238  66.851  1.00  0.00    -0.080 OA 
HETATM   31  H   UNL     5      -7.051   7.846  67.689  1.00  0.00     0.000 HD 
BRANCH  29  32
HETATM   32  C   UNL     5      -9.607   8.060  67.558  1.00  0.00    -0.153 C  
HETATM   33  C   UNL     5      -9.983   6.736  66.861  1.00  0.00    -0.191 C  
HETATM   34  O   UNL     5     -10.814   8.865  67.805  1.00  0.00    -0.461 OA 
HETATM   35  O   UNL     5      -9.058   6.120  66.253  1.00  0.00    -0.150 OA 
HETATM   36  O   UNL     5     -11.234   6.459  66.932  1.00  0.00    -0.368 OA 
HETATM   37  H   UNL     5     -11.480   8.342  68.236  1.00  0.00     0.000 HD 
ENDBRANCH  29  32
ENDBRANCH  26  29
ENDBRANCH  23  26
ENDBRANCH   7  23
TORSDOF 8
ENDMDL
MODEL      312
REMARK 921   NORMALIZED FREE ENERGY PREDICTED BY IDOCK:   -4.54 KCAL/MOL
REMARK 922        TOTAL FREE ENERGY PREDICTED BY IDOCK:   -8.91 KCAL/MOL
REMARK 923 INTER-LIGAND FREE ENERGY PREDICTED BY IDOCK:   -7.67 KCAL/MOL
REMARK 924 INTRA-LIGAND FREE ENERGY PREDICTED BY IDOCK:   -1.24 KCAL/MOL
REMARK 927      BINDING AFFINITY PREDICTED BY RF-SCORE:    0.00 PKD
ROOT
HETATM    1 MG   UNL     3     -13.462  11.125  70.149  1.00  0.00    -0.125 Mg 
HETATM    2  O   UNL     4     -10.966   6.512  73.466  1.00  0.00    -0.456 OA 
HETATM    3  C   UNL     4     -10.802   7.773  72.846  1.00  0.00    -0.392 C  
HETATM    4  H   UNL     4     -11.047   6.571  74.411  1.00  0.00     0.000 HD 
HETATM    5  O   UNL     5     -12.753  13.400  62.832  1.00  0.00    -0.619 OA 
HETATM    6  H   UNL     5     -13.380  12.964  62.267  1.00  0.00     0.000 HD 
HETATM    7  C   UNL     5     -12.056  12.473  63.664  1.00  0.00    -0.554 C  
ENDROOT
BRANCH   3   8
HETATM    8  C   UNL     4     -10.672   7.677  71.319  1.00  0.00    -0.228 C  
HETATM    9  O   UNL     4      -9.313   7.956  70.931  1.00  0.00    -0.151 OA 
HETATM   10  H   UNL     4      -9.232   7.896  69.986  1.00  0.00     0.000 HD 
BRANCH   8  11
HETATM   11  C   UNL     4     -11.067   6.346  70.615  1.00  0.00    -0.317 C  
HETATM   12  O   UNL     4     -11.972   6.530  69.532  1.00  0.00    -0.601 OA 
HETATM   13  H   UNL     4     -12.213   5.718  69.102  1.00  0.00     0.000 HD 
BRANCH  11  14
HETATM   14  C   UNL     4      -9.932   5.353  70.243  1.00  0.00    -0.230 C  
HETATM   15  H   UNL     4      -9.482   4.321  68.646  1.00  0.00     0.000 HD 
HETATM   16  O   UNL     4     -10.177   4.928  68.874  1.00  0.00    -0.157 OA 
BRANCH  14  17
HETATM   17  C   UNL     4      -9.640   4.126  71.152  1.00  0.00    -0.179 C  
HETATM   18  C   UNL     4      -8.306   4.292  71.991  1.00  0.00    -0.106 C  
HETATM   19  H   UNL     4      -9.568   2.135  70.993  1.00  0.00     0.000 HD 
HETATM   20  O   UNL     4      -9.746   2.885  70.437  1.00  0.00    -0.130 OA 
HETATM   21  O   UNL     4      -8.106   5.505  72.422  1.00  0.00    -0.106 OA 
HETATM   22  O   UNL     4      -7.525   3.307  72.099  1.00  0.00    -0.050 OA 
ENDBRANCH  14  17
ENDBRANCH  11  14
ENDBRANCH   8  11
ENDBRANCH   3   8
BRANCH   7  23
HETATM   23  C   UNL     5     -11.038  13.181  64.581  1.00  0.00    -0.345 C  
HETATM   24  O   UNL     5     -10.750  14.465  64.024  1.00  0.00    -0.388 OA 
HETATM   25  H   UNL     5     -10.123  14.901  64.589  1.00  0.00     0.000 HD 
BRANCH  23  26
HETATM   26  C   UNL     5     -11.563  13.307  66.028  1.00  0.00    -0.349 C  
HETATM   27  O   UNL     5     -12.176  12.059  66.425  1.00  0.00    -0.551 OA 
HETATM   28  H   UNL     5     -12.499  12.137  67.315  1.00  0.00     0.000 HD 
BRANCH  26  29
HETATM   29  C   UNL     5     -10.572  13.792  67.122  1.00  0.00    -0.277 C  
HETATM   30  O   UNL     5     -10.945  15.046  67.693  1.00  0.00    -0.286 OA 
HETATM   31  H   UNL     5     -10.339  15.343  68.362  1.00  0.00     0.000 HD 
BRANCH  29  32
HETATM   32  C   UNL     5      -9.069  13.748  66.802  1.00  0.00    -0.221 C  
HETATM   33  C   UNL     5      -8.163  13.140  67.892  1.00  0.00    -0.162 C  
HETATM   34  O   UNL     5      -8.584  15.086  66.426  1.00  0.00    -0.438 OA 
HETATM   35  O   UNL     5      -8.643  12.189  68.578  1.00  0.00    -0.153 OA 
HETATM   36  O   UNL     5      -7.035  13.738  68.011  1.00  0.00    -0.102 OA 
HETATM   37  H   UNL     5      -7.655  15.059  66.228  1.00  0.00     0.000 HD 
ENDBRANCH  29  32
ENDBRANCH  26  29
ENDBRANCH  23  26
ENDBRANCH   7  23
TORSDOF 8
ENDMDL
MODEL      313
REMARK 921   NORMALIZED FREE ENERGY PREDICTED BY IDOCK:   -4.53 KCAL/MOL
REMARK 922        TOTAL FREE ENERGY PREDICTED BY IDOCK:   -8.90 KCAL/MOL
REMARK 923 INTER-LIGAND FREE ENERGY PREDICTED BY IDOCK:   -7.16 KCAL/MOL
REMARK 924 INTRA-LIGAND FREE ENERGY PREDICTED BY IDOCK:   -1.73 KCAL/MOL
REMARK 927      BINDING AFFINITY PREDICTED BY RF-SCORE:    0.00 PKD
ROOT
HETATM    1 MG   UNL     3     -11.466   7.132  66.703  1.00  0.00    -0.366 Mg 
HETATM    2  O   UNL     4     -10.563  12.375  63.507  1.00  0.00    -0.438 OA 
HETATM    3  C   UNL     4     -10.003  11.286  64.214  1.00  0.00    -0.297 C  
HETATM    4  H   UNL     4     -10.471  12.292  62.565  1.00  0.00     0.000 HD 
HETATM    5  O   UNL     5     -11.008   5.308  74.164  1.00  0.00    -0.393 OA 
HETATM    6  H   UNL     5     -11.834   5.450  74.611  1.00  0.00     0.000 HD 
HETATM    7  C   UNL     5     -10.625   6.441  73.385  1.00  0.00    -0.276 C  
ENDROOT
BRANCH   3   8
HETATM    8  C   UNL     4     -10.152  11.420  65.737  1.00  0.00    -0.246 C  
HETATM    9  O   UNL     4      -8.874  11.216  66.368  1.00  0.00    -0.167 OA 
HETATM   10  H   UNL     4      -8.966  11.299  67.310  1.00  0.00     0.000 HD 
BRANCH   8  11
HETATM   11  C   UNL     4     -10.726  12.744  66.320  1.00  0.00    -0.270 C  
HETATM   12  O   UNL     4     -11.351  12.576  67.588  1.00  0.00    -0.267 OA 
HETATM   13  H   UNL     4     -11.701  13.384  67.944  1.00  0.00     0.000 HD 
BRANCH  11  14
HETATM   14  C   UNL     4      -9.818  14.004  66.298  1.00  0.00    -0.305 C  
HETATM   15  H   UNL     4      -8.406  14.697  67.457  1.00  0.00     0.000 HD 
HETATM   16  O   UNL     4      -8.961  13.926  67.470  1.00  0.00    -0.178 OA 
BRANCH  14  17
HETATM   17  C   UNL     4     -10.451  15.420  66.177  1.00  0.00    -0.316 C  
HETATM   18  C   UNL     4     -11.408  15.554  64.921  1.00  0.00    -0.335 C  
HETATM   19  H   UNL     4      -9.858  17.328  66.224  1.00  0.00     0.000 HD 
HETATM   20  O   UNL     4      -9.472  16.463  66.298  1.00  0.00    -0.276 OA 
HETATM   21  O   UNL     4     -12.112  14.485  64.681  1.00  0.00    -0.438 OA 
HETATM   22  O   UNL     4     -11.354  16.604  64.222  1.00  0.00    -1.116 OA 
ENDBRANCH  14  17
ENDBRANCH  11  14
ENDBRANCH   8  11
ENDBRANCH   3   8
BRANCH   7  23
HETATM   23  C   UNL     5      -9.284   6.210  72.660  1.00  0.00    -0.140 C  
HETATM   24  O   UNL     5      -9.496   5.251  71.622  1.00  0.00    -0.145 OA 
HETATM   25  H   UNL     5      -8.669   5.108  71.176  1.00  0.00     0.000 HD 
BRANCH  23  26
HETATM   26  C   UNL     5      -8.708   7.526  72.093  1.00  0.00    -0.114 C  
HETATM   27  O   UNL     5      -7.265   7.438  72.052  1.00  0.00    -0.066 OA 
HETATM   28  H   UNL     5      -6.910   8.248  71.704  1.00  0.00     0.000 HD 
BRANCH  26  29
HETATM   29  C   UNL     5      -9.255   8.032  70.729  1.00  0.00    -0.157 C  
HETATM   30  O   UNL     5     -10.602   7.627  70.486  1.00  0.00    -0.218 OA 
HETATM   31  H   UNL     5     -10.936   7.936  69.653  1.00  0.00     0.000 HD 
BRANCH  29  32
HETATM   32  C   UNL     5      -8.377   7.832  69.484  1.00  0.00    -0.129 C  
HETATM   33  C   UNL     5      -9.056   8.107  68.126  1.00  0.00    -0.134 C  
HETATM   34  O   UNL     5      -7.776   6.488  69.488  1.00  0.00    -0.096 OA 
HETATM   35  O   UNL     5      -9.921   9.032  68.089  1.00  0.00    -0.161 OA 
HETATM   36  O   UNL     5      -8.696   7.295  67.201  1.00  0.00    -0.119 OA 
HETATM   37  H   UNL     5      -7.234   6.364  68.718  1.00  0.00     0.000 HD 
ENDBRANCH  29  32
ENDBRANCH  26  29
ENDBRANCH  23  26
ENDBRANCH   7  23
TORSDOF 8
ENDMDL
MODEL      314
REMARK 921   NORMALIZED FREE ENERGY PREDICTED BY IDOCK:   -4.53 KCAL/MOL
REMARK 922        TOTAL FREE ENERGY PREDICTED BY IDOCK:   -8.89 KCAL/MOL
REMARK 923 INTER-LIGAND FREE ENERGY PREDICTED BY IDOCK:   -7.67 KCAL/MOL
REMARK 924 INTRA-LIGAND FREE ENERGY PREDICTED BY IDOCK:   -1.22 KCAL/MOL
REMARK 927      BINDING AFFINITY PREDICTED BY RF-SCORE:    0.00 PKD
ROOT
HETATM    1 MG   UNL     3     -13.481  13.441  69.127  1.00  0.00     0.400 Mg 
HETATM    2  O   UNL     4     -11.206  16.019  63.960  1.00  0.00    -1.078 OA 
HETATM    3  C   UNL     4     -11.865  14.925  64.569  1.00  0.00    -0.396 C  
HETATM    4  H   UNL     4     -11.795  16.576  63.464  1.00  0.00     0.000 HD 
HETATM    5  O   UNL     5     -11.144   7.689  73.673  1.00  0.00    -0.522 OA 
HETATM    6  H   UNL     5     -10.564   7.998  74.359  1.00  0.00     0.000 HD 
HETATM    7  C   UNL     5     -10.751   8.174  72.389  1.00  0.00    -0.334 C  
ENDROOT
BRANCH   3   8
HETATM    8  C   UNL     4     -10.913  14.024  65.370  1.00  0.00    -0.321 C  
HETATM    9  O   UNL     4      -9.584  14.576  65.340  1.00  0.00    -0.525 OA 
HETATM   10  H   UNL     4      -8.995  14.019  65.835  1.00  0.00     0.000 HD 
BRANCH   8  11
HETATM   11  C   UNL     4     -11.236  13.733  66.865  1.00  0.00    -0.313 C  
HETATM   12  O   UNL     4     -10.370  12.766  67.450  1.00  0.00    -0.220 OA 
HETATM   13  H   UNL     4     -10.567  12.589  68.362  1.00  0.00     0.000 HD 
BRANCH  11  14
HETATM   14  C   UNL     4     -11.457  14.943  67.812  1.00  0.00    -0.338 C  
HETATM   15  H   UNL     4     -11.106  16.861  67.690  1.00  0.00     0.000 HD 
HETATM   16  O   UNL     4     -10.971  16.121  67.110  1.00  0.00    -0.266 OA 
BRANCH  14  17
HETATM   17  C   UNL     4     -10.904  14.907  69.266  1.00  0.00    -0.266 C  
HETATM   18  C   UNL     4     -11.892  15.574  70.310  1.00  0.00    -0.357 C  
HETATM   19  H   UNL     4      -9.211  15.352  70.229  1.00  0.00     0.000 HD 
HETATM   20  O   UNL     4      -9.549  15.374  69.342  1.00  0.00    -0.246 OA 
HETATM   21  O   UNL     4     -13.150  15.337  70.067  1.00  0.00    -0.088 OA 
HETATM   22  O   UNL     4     -11.417  16.326  71.205  1.00  0.00    -0.423 OA 
ENDBRANCH  14  17
ENDBRANCH  11  14
ENDBRANCH   8  11
ENDBRANCH   3   8
BRANCH   7  23
HETATM   23  C   UNL     5     -11.692   7.672  71.276  1.00  0.00    -0.284 C  
HETATM   24  O   UNL     5     -11.835   8.712  70.307  1.00  0.00    -0.477 OA 
HETATM   25  H   UNL     5     -12.415   8.403  69.622  1.00  0.00     0.000 HD 
BRANCH  23  26
HETATM   26  C   UNL     5     -11.166   6.374  70.625  1.00  0.00    -0.339 C  
HETATM   27  O   UNL     5     -11.879   6.134  69.390  1.00  0.00    -0.292 OA 
HETATM   28  H   UNL     5     -11.555   5.336  68.989  1.00  0.00     0.000 HD 
BRANCH  26  29
HETATM   29  C   UNL     5      -9.634   6.245  70.396  1.00  0.00    -0.165 C  
HETATM   30  O   UNL     5      -9.124   7.218  69.484  1.00  0.00    -0.143 OA 
HETATM   31  H   UNL     5      -8.188   7.139  69.344  1.00  0.00     0.000 HD 
BRANCH  29  32
HETATM   32  C   UNL     5      -9.067   4.847  70.097  1.00  0.00    -0.110 C  
HETATM   33  C   UNL     5      -9.339   4.295  68.683  1.00  0.00    -0.152 C  
HETATM   34  O   UNL     5      -9.517   3.882  71.114  1.00  0.00    -0.137 OA 
HETATM   35  O   UNL     5      -9.364   5.131  67.731  1.00  0.00    -0.115 OA 
HETATM   36  O   UNL     5      -9.579   3.035  68.663  1.00  0.00    -0.164 OA 
HETATM   37  H   UNL     5      -9.167   3.019  70.930  1.00  0.00     0.000 HD 
ENDBRANCH  29  32
ENDBRANCH  26  29
ENDBRANCH  23  26
ENDBRANCH   7  23
TORSDOF 8
ENDMDL
MODEL      315
REMARK 921   NORMALIZED FREE ENERGY PREDICTED BY IDOCK:   -4.52 KCAL/MOL
REMARK 922        TOTAL FREE ENERGY PREDICTED BY IDOCK:   -8.88 KCAL/MOL
REMARK 923 INTER-LIGAND FREE ENERGY PREDICTED BY IDOCK:   -7.44 KCAL/MOL
REMARK 924 INTRA-LIGAND FREE ENERGY PREDICTED BY IDOCK:   -1.44 KCAL/MOL
REMARK 927      BINDING AFFINITY PREDICTED BY RF-SCORE:    0.00 PKD
ROOT
HETATM    1 MG   UNL     3     -10.111  15.218  64.824  1.00  0.00    -0.321 Mg 
HETATM    2  O   UNL     4      -9.451  21.091  66.719  1.00  0.00    -0.634 OA 
HETATM    3  C   UNL     4      -8.839  19.885  66.305  1.00  0.00    -0.345 C  
HETATM    4  H   UNL     4      -9.443  21.761  66.045  1.00  0.00     0.000 HD 
HETATM    5  O   UNL     5      -9.009   8.389  68.194  1.00  0.00    -0.138 OA 
HETATM    6  H   UNL     5      -9.791   8.089  68.642  1.00  0.00     0.000 HD 
HETATM    7  C   UNL     5      -8.687   9.737  68.535  1.00  0.00    -0.120 C  
ENDROOT
BRANCH   3   8
HETATM    8  C   UNL     4      -8.851  18.803  67.395  1.00  0.00    -0.270 C  
HETATM    9  O   UNL     4      -9.278  19.379  68.644  1.00  0.00    -0.360 OA 
HETATM   10  H   UNL     4      -9.286  18.710  69.319  1.00  0.00     0.000 HD 
BRANCH   8  11
HETATM   11  C   UNL     4      -9.718  17.529  67.178  1.00  0.00    -0.279 C  
HETATM   12  O   UNL     4     -10.228  17.414  65.854  1.00  0.00    -0.499 OA 
HETATM   13  H   UNL     4     -10.757  16.636  65.721  1.00  0.00     0.000 HD 
BRANCH  11  14
HETATM   14  C   UNL     4      -9.162  16.173  67.690  1.00  0.00    -0.205 C  
HETATM   15  H   UNL     4      -8.424  14.581  66.831  1.00  0.00     0.000 HD 
HETATM   16  O   UNL     4      -8.765  15.411  66.517  1.00  0.00    -0.279 OA 
BRANCH  14  17
HETATM   17  C   UNL     4     -10.013  15.293  68.651  1.00  0.00    -0.216 C  
HETATM   18  C   UNL     4      -9.723  13.745  68.478  1.00  0.00    -0.193 C  
HETATM   19  H   UNL     4     -11.924  15.112  69.208  1.00  0.00     0.000 HD 
HETATM   20  O   UNL     4     -11.404  15.649  68.621  1.00  0.00    -0.315 OA 
HETATM   21  O   UNL     4      -8.471  13.468  68.253  1.00  0.00    -0.162 OA 
HETATM   22  O   UNL     4     -10.694  12.938  68.479  1.00  0.00    -0.242 OA 
ENDBRANCH  14  17
ENDBRANCH  11  14
ENDBRANCH   8  11
ENDBRANCH   3   8
BRANCH   7  23
HETATM   23  C   UNL     5      -7.418  10.223  67.807  1.00  0.00    -0.088 C  
HETATM   24  O   UNL     5      -6.772   9.089  67.227  1.00  0.00    -0.068 OA 
HETATM   25  H   UNL     5      -5.990   9.388  66.778  1.00  0.00     0.000 HD 
BRANCH  23  26
HETATM   26  C   UNL     5      -7.746  11.286  66.735  1.00  0.00    -0.155 C  
HETATM   27  O   UNL     5      -6.528  11.956  66.337  1.00  0.00    -0.394 OA 
HETATM   28  H   UNL     5      -6.730  12.610  65.678  1.00  0.00     0.000 HD 
BRANCH  26  29
HETATM   29  C   UNL     5      -8.545  10.832  65.482  1.00  0.00    -0.176 C  
HETATM   30  O   UNL     5      -7.724  10.681  64.324  1.00  0.00    -0.351 OA 
HETATM   31  H   UNL     5      -8.213  10.403  63.558  1.00  0.00     0.000 HD 
BRANCH  29  32
HETATM   32  C   UNL     5      -9.847  11.579  65.151  1.00  0.00    -0.257 C  
HETATM   33  C   UNL     5     -10.266  11.584  63.666  1.00  0.00    -0.405 C  
HETATM   34  O   UNL     5      -9.796  12.957  65.668  1.00  0.00    -0.355 OA 
HETATM   35  O   UNL     5      -9.996  10.549  62.986  1.00  0.00    -0.285 OA 
HETATM   36  O   UNL     5     -10.785  12.693  63.285  1.00  0.00    -0.327 OA 
HETATM   37  H   UNL     5     -10.600  13.418  65.464  1.00  0.00     0.000 HD 
ENDBRANCH  29  32
ENDBRANCH  26  29
ENDBRANCH  23  26
ENDBRANCH   7  23
TORSDOF 8
ENDMDL
MODEL      316
REMARK 921   NORMALIZED FREE ENERGY PREDICTED BY IDOCK:   -4.50 KCAL/MOL
REMARK 922        TOTAL FREE ENERGY PREDICTED BY IDOCK:   -8.85 KCAL/MOL
REMARK 923 INTER-LIGAND FREE ENERGY PREDICTED BY IDOCK:   -7.57 KCAL/MOL
REMARK 924 INTRA-LIGAND FREE ENERGY PREDICTED BY IDOCK:   -1.29 KCAL/MOL
REMARK 927      BINDING AFFINITY PREDICTED BY RF-SCORE:    0.00 PKD
ROOT
HETATM    1 MG   UNL     3      -6.880  13.492  67.053  1.00  0.00    -0.162 Mg 
HETATM    2  O   UNL     4      -8.953  19.308  67.681  1.00  0.00    -0.289 OA 
HETATM    3  C   UNL     4      -8.595  18.086  68.296  1.00  0.00    -0.287 C  
HETATM    4  H   UNL     4      -8.297  19.987  67.796  1.00  0.00     0.000 HD 
HETATM    5  O   UNL     5     -10.231   6.579  67.482  1.00  0.00    -0.143 OA 
HETATM    6  H   UNL     5     -10.573   6.302  66.640  1.00  0.00     0.000 HD 
HETATM    7  C   UNL     5     -10.635   7.909  67.806  1.00  0.00    -0.175 C  
ENDROOT
BRANCH   3   8
HETATM    8  C   UNL     4      -9.655  16.990  68.109  1.00  0.00    -0.266 C  
HETATM    9  O   UNL     4     -10.869  17.370  68.784  1.00  0.00    -0.275 OA 
HETATM   10  H   UNL     4     -11.524  16.692  68.668  1.00  0.00     0.000 HD 
BRANCH   8  11
HETATM   11  C   UNL     4     -10.063  16.580  66.664  1.00  0.00    -0.294 C  
HETATM   12  O   UNL     4      -9.209  17.122  65.663  1.00  0.00    -0.509 OA 
HETATM   13  H   UNL     4      -9.458  16.872  64.781  1.00  0.00     0.000 HD 
BRANCH  11  14
HETATM   14  C   UNL     4     -10.375  15.083  66.392  1.00  0.00    -0.287 C  
HETATM   15  H   UNL     4     -10.358  13.945  64.804  1.00  0.00     0.000 HD 
HETATM   16  O   UNL     4     -10.167  14.861  64.971  1.00  0.00    -0.380 OA 
BRANCH  14  17
HETATM   17  C   UNL     4     -11.732  14.474  66.848  1.00  0.00    -0.382 C  
HETATM   18  C   UNL     4     -11.576  13.483  68.074  1.00  0.00    -0.337 C  
HETATM   19  H   UNL     4     -13.316  13.576  66.022  1.00  0.00     0.000 HD 
HETATM   20  O   UNL     4     -12.487  13.947  65.745  1.00  0.00    -0.457 OA 
HETATM   21  O   UNL     4     -10.689  13.866  68.947  1.00  0.00    -0.247 OA 
HETATM   22  O   UNL     4     -12.223  12.399  68.069  1.00  0.00    -0.356 OA 
ENDBRANCH  14  17
ENDBRANCH  11  14
ENDBRANCH   8  11
ENDBRANCH   3   8
BRANCH   7  23
HETATM   23  C   UNL     5     -10.079   8.357  69.173  1.00  0.00    -0.203 C  
HETATM   24  O   UNL     5     -10.328   9.756  69.320  1.00  0.00    -0.192 OA 
HETATM   25  H   UNL     5      -9.986  10.033  70.162  1.00  0.00     0.000 HD 
BRANCH  23  26
HETATM   26  C   UNL     5     -10.706   7.555  70.335  1.00  0.00    -0.239 C  
HETATM   27  O   UNL     5     -11.924   6.924  69.879  1.00  0.00    -0.627 OA 
HETATM   28  H   UNL     5     -12.309   6.431  70.594  1.00  0.00     0.000 HD 
BRANCH  26  29
HETATM   29  C   UNL     5      -9.809   6.524  71.074  1.00  0.00    -0.179 C  
HETATM   30  O   UNL     5     -10.560   5.496  71.720  1.00  0.00    -0.225 OA 
HETATM   31  H   UNL     5     -10.011   4.865  72.172  1.00  0.00     0.000 HD 
BRANCH  29  32
HETATM   32  C   UNL     5      -8.695   7.062  71.987  1.00  0.00    -0.123 C  
HETATM   33  C   UNL     5      -9.151   7.981  73.139  1.00  0.00    -0.275 C  
HETATM   34  O   UNL     5      -7.653   7.729  71.188  1.00  0.00    -0.076 OA 
HETATM   35  O   UNL     5     -10.272   7.727  73.672  1.00  0.00    -0.290 OA 
HETATM   36  O   UNL     5      -8.344   8.952  73.369  1.00  0.00    -0.297 OA 
HETATM   37  H   UNL     5      -6.965   8.062  71.752  1.00  0.00     0.000 HD 
ENDBRANCH  29  32
ENDBRANCH  26  29
ENDBRANCH  23  26
ENDBRANCH   7  23
TORSDOF 8
ENDMDL
MODEL      317
REMARK 921   NORMALIZED FREE ENERGY PREDICTED BY IDOCK:   -4.49 KCAL/MOL
REMARK 922        TOTAL FREE ENERGY PREDICTED BY IDOCK:   -8.84 KCAL/MOL
REMARK 923 INTER-LIGAND FREE ENERGY PREDICTED BY IDOCK:   -7.73 KCAL/MOL
REMARK 924 INTRA-LIGAND FREE ENERGY PREDICTED BY IDOCK:   -1.10 KCAL/MOL
REMARK 927      BINDING AFFINITY PREDICTED BY RF-SCORE:    0.00 PKD
ROOT
HETATM    1 MG   UNL     3     -11.192   8.031  66.087  1.00  0.00    -0.177 Mg 
HETATM    2  O   UNL     4     -11.881  13.341  62.949  1.00  0.00    -0.742 OA 
HETATM    3  C   UNL     4     -11.036  12.483  63.691  1.00  0.00    -0.456 C  
HETATM    4  H   UNL     4     -11.710  13.312  62.015  1.00  0.00     0.000 HD 
HETATM    5  O   UNL     5     -10.609   6.312  73.565  1.00  0.00    -0.247 OA 
HETATM    6  H   UNL     5     -11.462   6.165  73.958  1.00  0.00     0.000 HD 
HETATM    7  C   UNL     5     -10.576   7.523  72.811  1.00  0.00    -0.313 C  
ENDROOT
BRANCH   3   8
HETATM    8  C   UNL     4     -11.313  12.531  65.201  1.00  0.00    -0.313 C  
HETATM    9  O   UNL     4     -10.117  12.182  65.924  1.00  0.00    -0.234 OA 
HETATM   10  H   UNL     4     -10.289  12.211  66.858  1.00  0.00     0.000 HD 
BRANCH   8  11
HETATM   11  C   UNL     4     -11.835  13.857  65.827  1.00  0.00    -0.378 C  
HETATM   12  O   UNL     4     -12.753  13.652  66.896  1.00  0.00    -0.278 OA 
HETATM   13  H   UNL     4     -13.071  14.462  67.277  1.00  0.00     0.000 HD 
BRANCH  11  14
HETATM   14  C   UNL     4     -10.796  14.957  66.175  1.00  0.00    -0.327 C  
HETATM   15  H   UNL     4     -10.518  16.147  67.699  1.00  0.00     0.000 HD 
HETATM   16  O   UNL     4     -11.154  15.474  67.486  1.00  0.00    -0.321 OA 
BRANCH  14  17
HETATM   17  C   UNL     4     -10.531  16.123  65.181  1.00  0.00    -0.268 C  
HETATM   18  C   UNL     4     -10.182  17.484  65.915  1.00  0.00    -0.242 C  
HETATM   19  H   UNL     4     -11.398  16.941  63.576  1.00  0.00     0.000 HD 
HETATM   20  O   UNL     4     -11.560  16.229  64.184  1.00  0.00    -0.838 OA 
HETATM   21  O   UNL     4      -9.444  17.331  66.977  1.00  0.00    -0.248 OA 
HETATM   22  O   UNL     4     -10.696  18.556  65.491  1.00  0.00    -0.586 OA 
ENDBRANCH  14  17
ENDBRANCH  11  14
ENDBRANCH   8  11
ENDBRANCH   3   8
BRANCH   7  23
HETATM   23  C   UNL     5      -9.193   7.762  72.173  1.00  0.00    -0.149 C  
HETATM   24  O   UNL     5      -8.301   6.751  72.646  1.00  0.00    -0.111 OA 
HETATM   25  H   UNL     5      -7.449   6.899  72.254  1.00  0.00     0.000 HD 
BRANCH  23  26
HETATM   26  C   UNL     5      -9.267   7.760  70.630  1.00  0.00    -0.161 C  
HETATM   27  O   UNL     5     -10.652   7.813  70.217  1.00  0.00    -0.221 OA 
HETATM   28  H   UNL     5     -10.698   7.812  69.268  1.00  0.00     0.000 HD 
BRANCH  26  29
HETATM   29  C   UNL     5      -8.435   8.823  69.860  1.00  0.00    -0.131 C  
HETATM   30  O   UNL     5      -9.019  10.124  69.904  1.00  0.00    -0.344 OA 
HETATM   31  H   UNL     5      -8.510  10.774  69.434  1.00  0.00     0.000 HD 
BRANCH  29  32
HETATM   32  C   UNL     5      -7.956   8.472  68.442  1.00  0.00    -0.118 C  
HETATM   33  C   UNL     5      -9.009   8.597  67.322  1.00  0.00    -0.133 C  
HETATM   34  O   UNL     5      -7.351   7.130  68.422  1.00  0.00    -0.094 OA 
HETATM   35  O   UNL     5      -9.867   9.522  67.437  1.00  0.00    -0.154 OA 
HETATM   36  O   UNL     5      -8.918   7.680  66.430  1.00  0.00    -0.153 OA 
HETATM   37  H   UNL     5      -7.055   6.913  67.546  1.00  0.00     0.000 HD 
ENDBRANCH  29  32
ENDBRANCH  26  29
ENDBRANCH  23  26
ENDBRANCH   7  23
TORSDOF 8
ENDMDL
MODEL      318
REMARK 921   NORMALIZED FREE ENERGY PREDICTED BY IDOCK:   -4.49 KCAL/MOL
REMARK 922        TOTAL FREE ENERGY PREDICTED BY IDOCK:   -8.83 KCAL/MOL
REMARK 923 INTER-LIGAND FREE ENERGY PREDICTED BY IDOCK:   -7.41 KCAL/MOL
REMARK 924 INTRA-LIGAND FREE ENERGY PREDICTED BY IDOCK:   -1.42 KCAL/MOL
REMARK 927      BINDING AFFINITY PREDICTED BY RF-SCORE:    0.00 PKD
ROOT
HETATM    1 MG   UNL     3     -12.077  10.954  70.714  1.00  0.00    -0.224 Mg 
HETATM    2  O   UNL     4     -14.149  16.172  73.359  1.00  0.00    -0.761 OA 
HETATM    3  C   UNL     4     -13.961  15.414  72.180  1.00  0.00    -0.549 C  
HETATM    4  H   UNL     4     -15.051  16.171  73.661  1.00  0.00     0.000 HD 
HETATM    5  O   UNL     5      -5.928   9.253  66.412  1.00  0.00    -0.057 OA 
HETATM    6  H   UNL     5      -5.185   9.003  66.947  1.00  0.00     0.000 HD 
HETATM    7  C   UNL     5      -6.526  10.466  66.869  1.00  0.00    -0.076 C  
ENDROOT
BRANCH   3   8
HETATM    8  C   UNL     4     -12.505  15.415  71.693  1.00  0.00    -0.381 C  
HETATM    9  O   UNL     4     -11.617  15.496  72.824  1.00  0.00    -0.460 OA 
HETATM   10  H   UNL     4     -10.715  15.498  72.523  1.00  0.00     0.000 HD 
BRANCH   8  11
HETATM   11  C   UNL     4     -12.003  14.227  70.822  1.00  0.00    -0.320 C  
HETATM   12  O   UNL     4     -12.840  13.077  70.904  1.00  0.00    -0.249 OA 
HETATM   13  H   UNL     4     -12.533  12.352  70.372  1.00  0.00     0.000 HD 
BRANCH  11  14
HETATM   14  C   UNL     4     -11.588  14.522  69.356  1.00  0.00    -0.303 C  
HETATM   15  H   UNL     4     -11.950  13.679  67.631  1.00  0.00     0.000 HD 
HETATM   16  O   UNL     4     -12.204  13.498  68.529  1.00  0.00    -0.320 OA 
BRANCH  14  17
HETATM   17  C   UNL     4     -10.085  14.690  68.990  1.00  0.00    -0.209 C  
HETATM   18  C   UNL     4      -9.701  16.191  68.659  1.00  0.00    -0.227 C  
HETATM   19  H   UNL     4      -8.739  13.834  67.785  1.00  0.00     0.000 HD 
HETATM   20  O   UNL     4      -9.657  13.733  68.008  1.00  0.00    -0.201 OA 
HETATM   21  O   UNL     4     -10.307  17.065  69.412  1.00  0.00    -0.299 OA 
HETATM   22  O   UNL     4      -8.945  16.426  67.677  1.00  0.00    -0.195 OA 
ENDBRANCH  14  17
ENDBRANCH  11  14
ENDBRANCH   8  11
ENDBRANCH   3   8
BRANCH   7  23
HETATM   23  C   UNL     5      -7.734  10.871  66.000  1.00  0.00    -0.107 C  
HETATM   24  O   UNL     5      -7.444  10.529  64.643  1.00  0.00    -0.316 OA 
HETATM   25  H   UNL     5      -8.188  10.778  64.107  1.00  0.00     0.000 HD 
BRANCH  23  26
HETATM   26  C   UNL     5      -9.035  10.192  66.479  1.00  0.00    -0.143 C  
HETATM   27  O   UNL     5     -10.121  10.561  65.597  1.00  0.00    -0.250 OA 
HETATM   28  H   UNL     5     -10.922  10.143  65.892  1.00  0.00     0.000 HD 
BRANCH  26  29
HETATM   29  C   UNL     5      -9.017   8.653  66.694  1.00  0.00    -0.145 C  
HETATM   30  O   UNL     5      -9.301   7.921  65.503  1.00  0.00    -0.401 OA 
HETATM   31  H   UNL     5      -9.290   6.980  65.634  1.00  0.00     0.000 HD 
BRANCH  29  32
HETATM   32  C   UNL     5      -9.788   8.086  67.897  1.00  0.00    -0.167 C  
HETATM   33  C   UNL     5     -10.114   6.579  67.843  1.00  0.00    -0.147 C  
HETATM   34  O   UNL     5     -11.017   8.863  68.132  1.00  0.00    -0.467 OA 
HETATM   35  O   UNL     5      -9.263   5.824  67.285  1.00  0.00    -0.111 OA 
HETATM   36  O   UNL     5     -11.268   6.288  68.321  1.00  0.00    -0.328 OA 
HETATM   37  H   UNL     5     -11.494   8.513  68.875  1.00  0.00     0.000 HD 
ENDBRANCH  29  32
ENDBRANCH  26  29
ENDBRANCH  23  26
ENDBRANCH   7  23
TORSDOF 8
ENDMDL
MODEL      319
REMARK 921   NORMALIZED FREE ENERGY PREDICTED BY IDOCK:   -4.48 KCAL/MOL
REMARK 922        TOTAL FREE ENERGY PREDICTED BY IDOCK:   -8.81 KCAL/MOL
REMARK 923 INTER-LIGAND FREE ENERGY PREDICTED BY IDOCK:   -7.59 KCAL/MOL
REMARK 924 INTRA-LIGAND FREE ENERGY PREDICTED BY IDOCK:   -1.23 KCAL/MOL
REMARK 927      BINDING AFFINITY PREDICTED BY RF-SCORE:    0.00 PKD
ROOT
HETATM    1 MG   UNL     3      -7.387   9.406  68.808  1.00  0.00    -0.065 Mg 
HETATM    2  O   UNL     4     -10.141   6.235  73.377  1.00  0.00    -0.177 OA 
HETATM    3  C   UNL     4     -10.190   6.717  72.048  1.00  0.00    -0.191 C  
HETATM    4  H   UNL     4      -9.953   5.305  73.427  1.00  0.00     0.000 HD 
HETATM    5  O   UNL     5      -8.539  16.358  65.717  1.00  0.00    -0.398 OA 
HETATM    6  H   UNL     5      -8.042  17.029  66.170  1.00  0.00     0.000 HD 
HETATM    7  C   UNL     5      -9.267  15.534  66.627  1.00  0.00    -0.271 C  
ENDROOT
BRANCH   3   8
HETATM    8  C   UNL     4     -10.494   8.221  71.969  1.00  0.00    -0.280 C  
HETATM    9  O   UNL     4      -9.315   8.971  72.316  1.00  0.00    -0.333 OA 
HETATM   10  H   UNL     4      -9.503   9.902  72.267  1.00  0.00     0.000 HD 
BRANCH   8  11
HETATM   11  C   UNL     4     -11.013   8.811  70.625  1.00  0.00    -0.238 C  
HETATM   12  O   UNL     4     -11.846   9.953  70.797  1.00  0.00    -0.288 OA 
HETATM   13  H   UNL     4     -12.162  10.313  69.977  1.00  0.00     0.000 HD 
BRANCH  11  14
HETATM   14  C   UNL     4      -9.988   9.024  69.479  1.00  0.00    -0.191 C  
HETATM   15  H   UNL     4      -8.926  10.539  68.853  1.00  0.00     0.000 HD 
HETATM   16  O   UNL     4      -9.553  10.409  69.554  1.00  0.00    -0.215 OA 
BRANCH  14  17
HETATM   17  C   UNL     4     -10.365   8.648  68.017  1.00  0.00    -0.223 C  
HETATM   18  C   UNL     4      -9.609   7.352  67.506  1.00  0.00    -0.140 C  
HETATM   19  H   UNL     4     -10.514   9.546  66.237  1.00  0.00     0.000 HD 
HETATM   20  O   UNL     4     -10.284   9.775  67.130  1.00  0.00    -0.200 OA 
HETATM   21  O   UNL     4      -9.473   6.432  68.418  1.00  0.00    -0.121 OA 
HETATM   22  O   UNL     4      -9.136   7.342  66.337  1.00  0.00    -0.152 OA 
ENDBRANCH  14  17
ENDBRANCH  11  14
ENDBRANCH   8  11
ENDBRANCH   3   8
BRANCH   7  23
HETATM   23  C   UNL     5     -10.073  14.444  65.892  1.00  0.00    -0.325 C  
HETATM   24  O   UNL     5      -9.289  13.250  65.863  1.00  0.00    -0.475 OA 
HETATM   25  H   UNL     5      -9.786  12.578  65.410  1.00  0.00     0.000 HD 
BRANCH  23  26
HETATM   26  C   UNL     5     -11.441  14.196  66.563  1.00  0.00    -0.358 C  
HETATM   27  O   UNL     5     -12.463  14.096  65.544  1.00  0.00    -0.457 OA 
HETATM   28  H   UNL     5     -13.305  13.943  65.957  1.00  0.00     0.000 HD 
BRANCH  26  29
HETATM   29  C   UNL     5     -11.558  13.010  67.560  1.00  0.00    -0.356 C  
HETATM   30  O   UNL     5     -12.232  11.881  67.005  1.00  0.00    -0.492 OA 
HETATM   31  H   UNL     5     -12.303  11.156  67.615  1.00  0.00     0.000 HD 
BRANCH  29  32
HETATM   32  C   UNL     5     -12.054  13.314  68.983  1.00  0.00    -0.226 C  
HETATM   33  C   UNL     5     -11.892  14.773  69.459  1.00  0.00    -0.326 C  
HETATM   34  O   UNL     5     -11.437  12.393  69.951  1.00  0.00    -0.478 OA 
HETATM   35  O   UNL     5     -12.023  15.683  68.588  1.00  0.00    -0.336 OA 
HETATM   36  O   UNL     5     -11.569  14.873  70.696  1.00  0.00    -0.271 OA 
HETATM   37  H   UNL     5     -11.743  12.580  70.830  1.00  0.00     0.000 HD 
ENDBRANCH  29  32
ENDBRANCH  26  29
ENDBRANCH  23  26
ENDBRANCH   7  23
TORSDOF 8
ENDMDL
MODEL      320
REMARK 921   NORMALIZED FREE ENERGY PREDICTED BY IDOCK:   -4.47 KCAL/MOL
REMARK 922        TOTAL FREE ENERGY PREDICTED BY IDOCK:   -8.80 KCAL/MOL
REMARK 923 INTER-LIGAND FREE ENERGY PREDICTED BY IDOCK:   -7.61 KCAL/MOL
REMARK 924 INTRA-LIGAND FREE ENERGY PREDICTED BY IDOCK:   -1.20 KCAL/MOL
REMARK 927      BINDING AFFINITY PREDICTED BY RF-SCORE:    0.00 PKD
ROOT
HETATM    1 MG   UNL     3     -11.033   8.400  66.166  1.00  0.00    -0.257 Mg 
HETATM    2  O   UNL     4     -12.116  13.533  62.850  1.00  0.00    -0.798 OA 
HETATM    3  C   UNL     4     -11.244  12.810  63.698  1.00  0.00    -0.427 C  
HETATM    4  H   UNL     4     -11.841  13.521  61.940  1.00  0.00     0.000 HD 
HETATM    5  O   UNL     5     -11.033   6.840  73.701  1.00  0.00    -0.509 OA 
HETATM    6  H   UNL     5     -11.893   6.576  74.004  1.00  0.00     0.000 HD 
HETATM    7  C   UNL     5     -11.088   8.038  72.927  1.00  0.00    -0.331 C  
ENDROOT
BRANCH   3   8
HETATM    8  C   UNL     4     -11.688  12.830  65.168  1.00  0.00    -0.360 C  
HETATM    9  O   UNL     4     -10.714  12.143  65.977  1.00  0.00    -0.256 OA 
HETATM   10  H   UNL     4     -10.989  12.155  66.886  1.00  0.00     0.000 HD 
BRANCH   8  11
HETATM   11  C   UNL     4     -11.944  14.202  65.857  1.00  0.00    -0.409 C  
HETATM   12  O   UNL     4     -12.373  14.083  67.209  1.00  0.00    -0.533 OA 
HETATM   13  H   UNL     4     -12.528  14.920  67.629  1.00  0.00     0.000 HD 
BRANCH  11  14
HETATM   14  C   UNL     4     -10.865  15.308  65.700  1.00  0.00    -0.363 C  
HETATM   15  H   UNL     4      -9.536  15.744  64.336  1.00  0.00     0.000 HD 
HETATM   16  O   UNL     4     -10.196  15.068  64.431  1.00  0.00     0.074 OA 
BRANCH  14  17
HETATM   17  C   UNL     4      -9.823  15.547  66.830  1.00  0.00    -0.237 C  
HETATM   18  C   UNL     4      -8.765  16.666  66.457  1.00  0.00    -0.282 C  
HETATM   19  H   UNL     4      -8.617  14.465  68.000  1.00  0.00     0.000 HD 
HETATM   20  O   UNL     4      -9.253  14.319  67.309  1.00  0.00    -0.197 OA 
HETATM   21  O   UNL     4      -9.270  17.665  65.793  1.00  0.00    -0.505 OA 
HETATM   22  O   UNL     4      -7.549  16.474  66.737  1.00  0.00    -0.208 OA 
ENDBRANCH  14  17
ENDBRANCH  11  14
ENDBRANCH   8  11
ENDBRANCH   3   8
BRANCH   7  23
HETATM   23  C   UNL     5      -9.691   8.466  72.435  1.00  0.00    -0.306 C  
HETATM   24  O   UNL     5      -8.720   7.613  73.045  1.00  0.00    -0.135 OA 
HETATM   25  H   UNL     5      -7.860   7.877  72.742  1.00  0.00     0.000 HD 
BRANCH  23  26
HETATM   26  C   UNL     5      -9.587   8.414  70.895  1.00  0.00    -0.175 C  
HETATM   27  O   UNL     5     -10.732   7.710  70.361  1.00  0.00    -0.227 OA 
HETATM   28  H   UNL     5     -10.668   7.679  69.413  1.00  0.00     0.000 HD 
BRANCH  26  29
HETATM   29  C   UNL     5      -9.376   9.753  70.135  1.00  0.00    -0.215 C  
HETATM   30  O   UNL     5     -10.560  10.548  70.069  1.00  0.00    -0.383 OA 
HETATM   31  H   UNL     5     -10.431  11.367  69.605  1.00  0.00     0.000 HD 
BRANCH  29  32
HETATM   32  C   UNL     5      -8.660   9.703  68.775  1.00  0.00    -0.125 C  
HETATM   33  C   UNL     5      -7.460  10.659  68.607  1.00  0.00    -0.098 C  
HETATM   34  O   UNL     5      -9.623   9.899  67.679  1.00  0.00    -0.146 OA 
HETATM   35  O   UNL     5      -6.752  10.883  69.633  1.00  0.00    -0.102 OA 
HETATM   36  O   UNL     5      -7.375  11.169  67.433  1.00  0.00    -0.097 OA 
HETATM   37  H   UNL     5      -9.180   9.868  66.839  1.00  0.00     0.000 HD 
ENDBRANCH  29  32
ENDBRANCH  26  29
ENDBRANCH  23  26
ENDBRANCH   7  23
TORSDOF 8
ENDMDL
MODEL      321
REMARK 921   NORMALIZED FREE ENERGY PREDICTED BY IDOCK:   -4.46 KCAL/MOL
REMARK 922        TOTAL FREE ENERGY PREDICTED BY IDOCK:   -8.80 KCAL/MOL
REMARK 923 INTER-LIGAND FREE ENERGY PREDICTED BY IDOCK:   -7.88 KCAL/MOL
REMARK 924 INTRA-LIGAND FREE ENERGY PREDICTED BY IDOCK:   -0.91 KCAL/MOL
REMARK 927      BINDING AFFINITY PREDICTED BY RF-SCORE:    0.00 PKD
ROOT
HETATM    1 MG   UNL     3      -6.755  12.042  70.929  1.00  0.00    -0.282 Mg 
HETATM    2  O   UNL     4      -9.297   6.551  72.308  1.00  0.00    -0.140 OA 
HETATM    3  C   UNL     4      -8.701   7.391  71.338  1.00  0.00    -0.125 C  
HETATM    4  H   UNL     4      -8.709   5.873  72.623  1.00  0.00     0.000 HD 
HETATM    5  O   UNL     5      -9.195  18.195  67.006  1.00  0.00    -0.258 OA 
HETATM    6  H   UNL     5      -9.654  18.809  67.567  1.00  0.00     0.000 HD 
HETATM    7  C   UNL     5      -9.674  16.862  67.176  1.00  0.00    -0.253 C  
ENDROOT
BRANCH   3   8
HETATM    8  C   UNL     4      -9.651   8.485  70.830  1.00  0.00    -0.180 C  
HETATM    9  O   UNL     4     -10.216   9.193  71.949  1.00  0.00    -0.332 OA 
HETATM   10  H   UNL     4     -10.804   9.870  71.634  1.00  0.00     0.000 HD 
BRANCH   8  11
HETATM   11  C   UNL     4      -9.096   9.567  69.857  1.00  0.00    -0.216 C  
HETATM   12  O   UNL     4      -7.974  10.271  70.379  1.00  0.00    -0.423 OA 
HETATM   13  H   UNL     4      -7.636  10.931  69.785  1.00  0.00     0.000 HD 
BRANCH  11  14
HETATM   14  C   UNL     4      -8.875   9.168  68.373  1.00  0.00    -0.129 C  
HETATM   15  H   UNL     4      -7.879   9.939  66.880  1.00  0.00     0.000 HD 
HETATM   16  O   UNL     4      -8.014  10.183  67.788  1.00  0.00    -0.101 OA 
BRANCH  14  17
HETATM   17  C   UNL     4     -10.096   8.888  67.450  1.00  0.00    -0.227 C  
HETATM   18  C   UNL     4     -10.524   7.362  67.452  1.00  0.00    -0.296 C  
HETATM   19  H   UNL     4     -10.676   9.292  65.581  1.00  0.00     0.000 HD 
HETATM   20  O   UNL     4      -9.930   9.462  66.144  1.00  0.00    -0.274 OA 
HETATM   21  O   UNL     4     -10.423   6.791  68.617  1.00  0.00    -0.181 OA 
HETATM   22  O   UNL     4     -10.829   6.813  66.357  1.00  0.00    -0.001 OA 
ENDBRANCH  14  17
ENDBRANCH  11  14
ENDBRANCH   8  11
ENDBRANCH   3   8
BRANCH   7  23
HETATM   23  C   UNL     5      -8.928  15.866  66.265  1.00  0.00    -0.346 C  
HETATM   24  O   UNL     5      -7.551  16.244  66.221  1.00  0.00    -0.189 OA 
HETATM   25  H   UNL     5      -7.092  15.631  65.659  1.00  0.00     0.000 HD 
BRANCH  23  26
HETATM   26  C   UNL     5      -9.090  14.411  66.756  1.00  0.00    -0.257 C  
HETATM   27  O   UNL     5      -9.028  14.383  68.201  1.00  0.00    -0.172 OA 
HETATM   28  H   UNL     5      -9.127  13.488  68.503  1.00  0.00     0.000 HD 
BRANCH  26  29
HETATM   29  C   UNL     5     -10.321  13.606  66.255  1.00  0.00    -0.293 C  
HETATM   30  O   UNL     5     -10.248  12.218  66.580  1.00  0.00    -0.213 OA 
HETATM   31  H   UNL     5     -11.001  11.726  66.274  1.00  0.00     0.000 HD 
BRANCH  29  32
HETATM   32  C   UNL     5     -10.775  13.818  64.802  1.00  0.00    -0.416 C  
HETATM   33  C   UNL     5     -12.281  13.622  64.528  1.00  0.00    -0.401 C  
HETATM   34  O   UNL     5      -9.981  12.981  63.888  1.00  0.00    -0.713 OA 
HETATM   35  O   UNL     5     -13.084  13.962  65.447  1.00  0.00    -0.752 OA 
HETATM   36  O   UNL     5     -12.527  13.061  63.401  1.00  0.00    -0.710 OA 
HETATM   37  H   UNL     5     -10.261  13.111  62.990  1.00  0.00     0.000 HD 
ENDBRANCH  29  32
ENDBRANCH  26  29
ENDBRANCH  23  26
ENDBRANCH   7  23
TORSDOF 8
ENDMDL
MODEL      322
REMARK 921   NORMALIZED FREE ENERGY PREDICTED BY IDOCK:   -4.46 KCAL/MOL
REMARK 922        TOTAL FREE ENERGY PREDICTED BY IDOCK:   -8.80 KCAL/MOL
REMARK 923 INTER-LIGAND FREE ENERGY PREDICTED BY IDOCK:   -6.46 KCAL/MOL
REMARK 924 INTRA-LIGAND FREE ENERGY PREDICTED BY IDOCK:   -2.34 KCAL/MOL
REMARK 927      BINDING AFFINITY PREDICTED BY RF-SCORE:    0.00 PKD
ROOT
HETATM    1 MG   UNL     3     -11.919   9.632  67.403  1.00  0.00    -0.366 Mg 
HETATM    2  O   UNL     4     -13.904   8.857  73.231  1.00  0.00    -1.163 OA 
HETATM    3  C   UNL     4     -13.154   9.622  72.308  1.00  0.00    -0.382 C  
HETATM    4  H   UNL     4     -14.734   9.260  73.459  1.00  0.00     0.000 HD 
HETATM    5  O   UNL     5      -5.139   8.598  63.914  1.00  0.00    -0.050 OA 
HETATM    6  H   UNL     5      -5.047   7.712  63.582  1.00  0.00     0.000 HD 
HETATM    7  C   UNL     5      -5.573   8.612  65.273  1.00  0.00    -0.047 C  
ENDROOT
BRANCH   3   8
HETATM    8  C   UNL     4     -11.813   8.970  71.941  1.00  0.00    -0.376 C  
HETATM    9  O   UNL     4     -11.344   8.173  73.045  1.00  0.00    -0.340 OA 
HETATM   10  H   UNL     4     -10.514   7.769  72.818  1.00  0.00     0.000 HD 
BRANCH   8  11
HETATM   11  C   UNL     4     -11.741   8.061  70.679  1.00  0.00    -0.150 C  
HETATM   12  O   UNL     4     -11.612   8.794  69.465  1.00  0.00    -0.328 OA 
HETATM   13  H   UNL     4     -11.568   8.239  68.695  1.00  0.00     0.000 HD 
BRANCH  11  14
HETATM   14  C   UNL     4     -10.776   6.844  70.711  1.00  0.00    -0.233 C  
HETATM   15  H   UNL     4      -8.928   6.575  71.283  1.00  0.00     0.000 HD 
HETATM   16  O   UNL     4      -9.518   7.319  71.263  1.00  0.00    -0.156 OA 
BRANCH  14  17
HETATM   17  C   UNL     4     -10.528   6.011  69.421  1.00  0.00    -0.267 C  
HETATM   18  C   UNL     4      -9.606   4.749  69.678  1.00  0.00    -0.183 C  
HETATM   19  H   UNL     4      -9.972   6.325  67.527  1.00  0.00     0.000 HD 
HETATM   20  O   UNL     4     -10.123   6.834  68.316  1.00  0.00    -0.148 OA 
HETATM   21  O   UNL     4      -9.827   4.162  70.820  1.00  0.00    -0.192 OA 
HETATM   22  O   UNL     4      -8.704   4.471  68.841  1.00  0.00    -0.083 OA 
ENDBRANCH  14  17
ENDBRANCH  11  14
ENDBRANCH   8  11
ENDBRANCH   3   8
BRANCH   7  23
HETATM   23  C   UNL     5      -5.723  10.049  65.811  1.00  0.00    -0.064 C  
HETATM   24  O   UNL     5      -5.885  10.930  64.697  1.00  0.00    -0.371 OA 
HETATM   25  H   UNL     5      -5.977  11.815  65.028  1.00  0.00     0.000 HD 
BRANCH  23  26
HETATM   26  C   UNL     5      -6.907  10.171  66.794  1.00  0.00    -0.086 C  
HETATM   27  O   UNL     5      -6.418  10.604  68.083  1.00  0.00    -0.061 OA 
HETATM   28  H   UNL     5      -7.147  10.679  68.688  1.00  0.00     0.000 HD 
BRANCH  26  29
HETATM   29  C   UNL     5      -8.124  11.037  66.362  1.00  0.00    -0.166 C  
HETATM   30  O   UNL     5      -7.825  12.431  66.312  1.00  0.00    -0.226 OA 
HETATM   31  H   UNL     5      -8.569  12.960  66.049  1.00  0.00     0.000 HD 
BRANCH  29  32
HETATM   32  C   UNL     5      -9.472  10.778  67.055  1.00  0.00    -0.164 C  
HETATM   33  C   UNL     5     -10.556  11.856  66.850  1.00  0.00    -0.230 C  
HETATM   34  O   UNL     5      -9.272  10.527  68.492  1.00  0.00    -0.153 OA 
HETATM   35  O   UNL     5     -10.579  12.447  65.729  1.00  0.00    -0.246 OA 
HETATM   36  O   UNL     5     -11.270  12.068  67.894  1.00  0.00    -0.229 OA 
HETATM   37  H   UNL     5     -10.104  10.367  68.920  1.00  0.00     0.000 HD 
ENDBRANCH  29  32
ENDBRANCH  26  29
ENDBRANCH  23  26
ENDBRANCH   7  23
TORSDOF 8
ENDMDL
MODEL      323
REMARK 921   NORMALIZED FREE ENERGY PREDICTED BY IDOCK:   -4.44 KCAL/MOL
REMARK 922        TOTAL FREE ENERGY PREDICTED BY IDOCK:   -8.76 KCAL/MOL
REMARK 923 INTER-LIGAND FREE ENERGY PREDICTED BY IDOCK:   -6.97 KCAL/MOL
REMARK 924 INTRA-LIGAND FREE ENERGY PREDICTED BY IDOCK:   -1.79 KCAL/MOL
REMARK 927      BINDING AFFINITY PREDICTED BY RF-SCORE:    0.00 PKD
ROOT
HETATM    1 MG   UNL     3     -11.310   8.936  66.461  1.00  0.00    -0.045 Mg 
HETATM    2  O   UNL     4     -12.317  14.430  63.755  1.00  0.00    -0.990 OA 
HETATM    3  C   UNL     4     -11.392  13.435  64.149  1.00  0.00    -0.364 C  
HETATM    4  H   UNL     4     -12.495  14.422  62.822  1.00  0.00     0.000 HD 
HETATM    5  O   UNL     5      -8.356   6.811  73.241  1.00  0.00    -0.117 OA 
HETATM    6  H   UNL     5      -9.025   6.760  73.914  1.00  0.00     0.000 HD 
HETATM    7  C   UNL     5      -8.424   8.040  72.520  1.00  0.00    -0.162 C  
ENDROOT
BRANCH   3   8
HETATM    8  C   UNL     4     -11.105  13.449  65.658  1.00  0.00    -0.285 C  
HETATM    9  O   UNL     4      -9.690  13.307  65.883  1.00  0.00    -0.385 OA 
HETATM   10  H   UNL     4      -9.512  13.315  66.816  1.00  0.00     0.000 HD 
BRANCH   8  11
HETATM   11  C   UNL     4     -11.564  14.676  66.498  1.00  0.00    -0.344 C  
HETATM   12  O   UNL     4     -12.521  14.347  67.499  1.00  0.00    -0.599 OA 
HETATM   13  H   UNL     4     -12.801  15.096  68.011  1.00  0.00     0.000 HD 
BRANCH  11  14
HETATM   14  C   UNL     4     -10.472  15.631  67.051  1.00  0.00    -0.303 C  
HETATM   15  H   UNL     4      -9.219  15.559  68.548  1.00  0.00     0.000 HD 
HETATM   16  O   UNL     4      -9.887  14.975  68.210  1.00  0.00    -0.211 OA 
BRANCH  14  17
HETATM   17  C   UNL     4     -10.822  17.110  67.379  1.00  0.00    -0.164 C  
HETATM   18  C   UNL     4     -10.532  18.089  66.166  1.00  0.00    -0.331 C  
HETATM   19  H   UNL     4     -10.480  18.437  68.834  1.00  0.00     0.000 HD 
HETATM   20  O   UNL     4     -10.266  17.533  68.634  1.00  0.00    -0.335 OA 
HETATM   21  O   UNL     4     -10.814  17.578  65.002  1.00  0.00    -0.727 OA 
HETATM   22  O   UNL     4      -9.988  19.204  66.397  1.00  0.00    -0.347 OA 
ENDBRANCH  14  17
ENDBRANCH  11  14
ENDBRANCH   8  11
ENDBRANCH   3   8
BRANCH   7  23
HETATM   23  C   UNL     5      -7.339   8.123  71.427  1.00  0.00    -0.076 C  
HETATM   24  O   UNL     5      -7.785   7.376  70.294  1.00  0.00    -0.090 OA 
HETATM   25  H   UNL     5      -7.117   7.426  69.622  1.00  0.00     0.000 HD 
BRANCH  23  26
HETATM   26  C   UNL     5      -7.026   9.585  71.042  1.00  0.00    -0.015 C  
HETATM   27  O   UNL     5      -5.842  10.024  71.744  1.00  0.00    -0.285 OA 
HETATM   28  H   UNL     5      -5.650  10.924  71.507  1.00  0.00     0.000 HD 
BRANCH  26  29
HETATM   29  C   UNL     5      -6.915   9.931  69.530  1.00  0.00    -0.070 C  
HETATM   30  O   UNL     5      -5.682  10.567  69.196  1.00  0.00    -0.041 OA 
HETATM   31  H   UNL     5      -5.613  10.779  68.272  1.00  0.00     0.000 HD 
BRANCH  29  32
HETATM   32  C   UNL     5      -8.108  10.635  68.864  1.00  0.00    -0.139 C  
HETATM   33  C   UNL     5      -8.810   9.854  67.734  1.00  0.00    -0.129 C  
HETATM   34  O   UNL     5      -7.715  11.972  68.387  1.00  0.00    -0.126 OA 
HETATM   35  O   UNL     5      -8.867   8.593  67.853  1.00  0.00    -0.136 OA 
HETATM   36  O   UNL     5      -9.195  10.596  66.762  1.00  0.00    -0.154 OA 
HETATM   37  H   UNL     5      -8.451  12.407  67.976  1.00  0.00     0.000 HD 
ENDBRANCH  29  32
ENDBRANCH  26  29
ENDBRANCH  23  26
ENDBRANCH   7  23
TORSDOF 8
ENDMDL
MODEL      324
REMARK 921   NORMALIZED FREE ENERGY PREDICTED BY IDOCK:   -4.43 KCAL/MOL
REMARK 922        TOTAL FREE ENERGY PREDICTED BY IDOCK:   -8.75 KCAL/MOL
REMARK 923 INTER-LIGAND FREE ENERGY PREDICTED BY IDOCK:   -7.86 KCAL/MOL
REMARK 924 INTRA-LIGAND FREE ENERGY PREDICTED BY IDOCK:   -0.90 KCAL/MOL
REMARK 927      BINDING AFFINITY PREDICTED BY RF-SCORE:    0.00 PKD
ROOT
HETATM    1 MG   UNL     3      -8.398  11.425  70.018  1.00  0.00    -0.342 Mg 
HETATM    2  O   UNL     4      -6.324   5.660  71.006  1.00  0.00    -0.032 OA 
HETATM    3  C   UNL     4      -6.308   6.822  70.199  1.00  0.00    -0.039 C  
HETATM    4  H   UNL     4      -5.544   5.571  71.542  1.00  0.00     0.000 HD 
HETATM    5  O   UNL     5     -13.386  14.499  65.029  1.00  0.00    -0.369 OA 
HETATM    6  H   UNL     5     -14.274  14.485  65.368  1.00  0.00     0.000 HD 
HETATM    7  C   UNL     5     -12.752  13.226  65.155  1.00  0.00    -0.402 C  
ENDROOT
BRANCH   3   8
HETATM    8  C   UNL     4      -7.568   6.965  69.333  1.00  0.00    -0.099 C  
HETATM    9  O   UNL     4      -7.456   6.120  68.172  1.00  0.00    -0.086 OA 
HETATM   10  H   UNL     4      -8.235   6.209  67.636  1.00  0.00     0.000 HD 
BRANCH   8  11
HETATM   11  C   UNL     4      -8.955   6.659  69.969  1.00  0.00    -0.144 C  
HETATM   12  O   UNL     4      -8.909   6.531  71.386  1.00  0.00    -0.137 OA 
HETATM   13  H   UNL     4      -9.755   6.344  71.774  1.00  0.00     0.000 HD 
BRANCH  11  14
HETATM   14  C   UNL     4     -10.169   7.514  69.517  1.00  0.00    -0.207 C  
HETATM   15  H   UNL     4     -12.025   7.122  69.048  1.00  0.00     0.000 HD 
HETATM   16  O   UNL     4     -11.282   6.598  69.324  1.00  0.00    -0.289 OA 
BRANCH  14  17
HETATM   17  C   UNL     4     -10.036   8.476  68.301  1.00  0.00    -0.192 C  
HETATM   18  C   UNL     4     -10.810   9.842  68.517  1.00  0.00    -0.217 C  
HETATM   19  H   UNL     4     -10.239   8.405  66.314  1.00  0.00     0.000 HD 
HETATM   20  O   UNL     4     -10.320   7.818  67.057  1.00  0.00    -0.279 OA 
HETATM   21  O   UNL     4     -10.745  10.294  69.737  1.00  0.00    -0.249 OA 
HETATM   22  O   UNL     4     -11.479  10.323  67.561  1.00  0.00    -0.323 OA 
ENDBRANCH  14  17
ENDBRANCH  11  14
ENDBRANCH   8  11
ENDBRANCH   3   8
BRANCH   7  23
HETATM   23  C   UNL     5     -11.311  13.249  64.606  1.00  0.00    -0.346 C  
HETATM   24  O   UNL     5     -11.324  12.684  63.293  1.00  0.00    -0.654 OA 
HETATM   25  H   UNL     5     -10.436  12.698  62.955  1.00  0.00     0.000 HD 
BRANCH  23  26
HETATM   26  C   UNL     5     -10.728  14.678  64.591  1.00  0.00    -0.286 C  
HETATM   27  O   UNL     5     -11.608  15.548  63.843  1.00  0.00    -0.806 OA 
HETATM   28  H   UNL     5     -11.249  16.427  63.834  1.00  0.00     0.000 HD 
BRANCH  26  29
HETATM   29  C   UNL     5     -10.361  15.328  65.954  1.00  0.00    -0.329 C  
HETATM   30  O   UNL     5     -11.339  15.089  66.965  1.00  0.00    -0.346 OA 
HETATM   31  H   UNL     5     -11.115  15.486  67.799  1.00  0.00     0.000 HD 
BRANCH  29  32
HETATM   32  C   UNL     5      -9.906  16.796  65.952  1.00  0.00    -0.249 C  
HETATM   33  C   UNL     5      -9.638  17.425  67.335  1.00  0.00    -0.257 C  
HETATM   34  O   UNL     5     -10.855  17.627  65.192  1.00  0.00    -0.664 OA 
HETATM   35  O   UNL     5      -9.161  16.666  68.231  1.00  0.00    -0.206 OA 
HETATM   36  O   UNL     5     -10.008  18.650  67.420  1.00  0.00    -0.308 OA 
HETATM   37  H   UNL     5     -10.574  18.535  65.191  1.00  0.00     0.000 HD 
ENDBRANCH  29  32
ENDBRANCH  26  29
ENDBRANCH  23  26
ENDBRANCH   7  23
TORSDOF 8
ENDMDL
MODEL      325
REMARK 921   NORMALIZED FREE ENERGY PREDICTED BY IDOCK:   -4.43 KCAL/MOL
REMARK 922        TOTAL FREE ENERGY PREDICTED BY IDOCK:   -8.75 KCAL/MOL
REMARK 923 INTER-LIGAND FREE ENERGY PREDICTED BY IDOCK:   -7.73 KCAL/MOL
REMARK 924 INTRA-LIGAND FREE ENERGY PREDICTED BY IDOCK:   -1.02 KCAL/MOL
REMARK 927      BINDING AFFINITY PREDICTED BY RF-SCORE:    0.00 PKD
ROOT
HETATM    1 MG   UNL     3     -11.356   7.359  66.968  1.00  0.00    -0.329 Mg 
HETATM    2  O   UNL     4     -11.130  12.123  62.996  1.00  0.00    -0.680 OA 
HETATM    3  C   UNL     4     -10.431  11.149  63.748  1.00  0.00    -0.381 C  
HETATM    4  H   UNL     4     -11.178  11.912  62.071  1.00  0.00     0.000 HD 
HETATM    5  O   UNL     5      -9.713   6.590  74.446  1.00  0.00    -0.246 OA 
HETATM    6  H   UNL     5     -10.467   6.781  74.991  1.00  0.00     0.000 HD 
HETATM    7  C   UNL     5      -9.492   7.610  73.472  1.00  0.00    -0.289 C  
ENDROOT
BRANCH   3   8
HETATM    8  C   UNL     4     -10.353  11.491  65.243  1.00  0.00    -0.272 C  
HETATM    9  O   UNL     4      -9.021  11.929  65.571  1.00  0.00    -0.420 OA 
HETATM   10  H   UNL     4      -8.973  12.140  66.496  1.00  0.00     0.000 HD 
BRANCH   8  11
HETATM   11  C   UNL     4     -11.324  12.562  65.820  1.00  0.00    -0.336 C  
HETATM   12  O   UNL     4     -12.661  12.421  65.349  1.00  0.00    -0.637 OA 
HETATM   13  H   UNL     4     -13.253  13.075  65.701  1.00  0.00     0.000 HD 
BRANCH  11  14
HETATM   14  C   UNL     4     -11.287  12.831  67.348  1.00  0.00    -0.313 C  
HETATM   15  H   UNL     4     -11.770  11.799  68.935  1.00  0.00     0.000 HD 
HETATM   16  O   UNL     4     -11.793  11.634  68.000  1.00  0.00    -0.514 OA 
BRANCH  14  17
HETATM   17  C   UNL     4     -11.970  14.101  67.933  1.00  0.00    -0.343 C  
HETATM   18  C   UNL     4     -11.100  15.410  67.730  1.00  0.00    -0.320 C  
HETATM   19  H   UNL     4     -12.853  14.670  69.633  1.00  0.00     0.000 HD 
HETATM   20  O   UNL     4     -12.436  13.895  69.276  1.00  0.00    -0.255 OA 
HETATM   21  O   UNL     4     -10.477  15.453  66.587  1.00  0.00    -0.281 OA 
HETATM   22  O   UNL     4     -11.003  16.233  68.682  1.00  0.00    -0.303 OA 
ENDBRANCH  14  17
ENDBRANCH  11  14
ENDBRANCH   8  11
ENDBRANCH   3   8
BRANCH   7  23
HETATM   23  C   UNL     5      -8.269   7.299  72.586  1.00  0.00    -0.107 C  
HETATM   24  O   UNL     5      -7.948   5.915  72.735  1.00  0.00    -0.104 OA 
HETATM   25  H   UNL     5      -7.194   5.724  72.190  1.00  0.00     0.000 HD 
BRANCH  23  26
HETATM   26  C   UNL     5      -8.531   7.654  71.106  1.00  0.00    -0.116 C  
HETATM   27  O   UNL     5      -7.379   8.342  70.567  1.00  0.00    -0.053 OA 
HETATM   28  H   UNL     5      -7.540   8.560  69.657  1.00  0.00     0.000 HD 
BRANCH  26  29
HETATM   29  C   UNL     5      -8.970   6.509  70.151  1.00  0.00    -0.155 C  
HETATM   30  O   UNL     5      -8.751   6.819  68.775  1.00  0.00    -0.125 OA 
HETATM   31  H   UNL     5      -9.019   6.120  68.191  1.00  0.00     0.000 HD 
BRANCH  29  32
HETATM   32  C   UNL     5     -10.356   5.882  70.370  1.00  0.00    -0.231 C  
HETATM   33  C   UNL     5     -11.510   6.870  70.645  1.00  0.00    -0.336 C  
HETATM   34  O   UNL     5     -10.298   4.862  71.430  1.00  0.00    -0.199 OA 
HETATM   35  O   UNL     5     -11.461   7.992  70.060  1.00  0.00    -0.108 OA 
HETATM   36  O   UNL     5     -12.355   6.440  71.509  1.00  0.00    -0.281 OA 
HETATM   37  H   UNL     5     -11.154   4.475  71.565  1.00  0.00     0.000 HD 
ENDBRANCH  29  32
ENDBRANCH  26  29
ENDBRANCH  23  26
ENDBRANCH   7  23
TORSDOF 8
ENDMDL
MODEL      326
REMARK 921   NORMALIZED FREE ENERGY PREDICTED BY IDOCK:   -4.40 KCAL/MOL
REMARK 922        TOTAL FREE ENERGY PREDICTED BY IDOCK:   -8.71 KCAL/MOL
REMARK 923 INTER-LIGAND FREE ENERGY PREDICTED BY IDOCK:   -7.07 KCAL/MOL
REMARK 924 INTRA-LIGAND FREE ENERGY PREDICTED BY IDOCK:   -1.64 KCAL/MOL
REMARK 927      BINDING AFFINITY PREDICTED BY RF-SCORE:    0.00 PKD
ROOT
HETATM    1 MG   UNL     3     -10.079  10.721  65.900  1.00  0.00    -0.195 Mg 
HETATM    2  O   UNL     4     -10.336   5.307  68.922  1.00  0.00    -0.200 OA 
HETATM    3  C   UNL     4     -10.970   6.523  68.578  1.00  0.00    -0.286 C  
HETATM    4  H   UNL     4     -10.676   4.562  68.439  1.00  0.00     0.000 HD 
HETATM    5  O   UNL     5      -9.143  18.022  68.143  1.00  0.00    -0.262 OA 
HETATM    6  H   UNL     5      -8.225  18.263  68.180  1.00  0.00     0.000 HD 
HETATM    7  C   UNL     5      -9.396  16.792  68.820  1.00  0.00    -0.254 C  
ENDROOT
BRANCH   3   8
HETATM    8  C   UNL     4     -10.420   7.726  69.358  1.00  0.00    -0.220 C  
HETATM    9  O   UNL     4     -11.401   8.781  69.376  1.00  0.00    -0.430 OA 
HETATM   10  H   UNL     4     -11.060   9.525  69.859  1.00  0.00     0.000 HD 
BRANCH   8  11
HETATM   11  C   UNL     4      -9.967   7.520  70.833  1.00  0.00    -0.180 C  
HETATM   12  O   UNL     4      -9.171   8.589  71.332  1.00  0.00    -0.170 OA 
HETATM   13  H   UNL     4      -8.895   8.462  72.232  1.00  0.00     0.000 HD 
BRANCH  11  14
HETATM   14  C   UNL     4     -11.037   7.079  71.869  1.00  0.00    -0.242 C  
HETATM   15  H   UNL     4     -11.547   5.372  72.670  1.00  0.00     0.000 HD 
HETATM   16  O   UNL     4     -10.893   5.642  72.037  1.00  0.00    -0.231 OA 
BRANCH  14  17
HETATM   17  C   UNL     4     -12.531   7.457  71.657  1.00  0.00    -0.349 C  
HETATM   18  C   UNL     4     -12.986   8.676  72.562  1.00  0.00    -0.290 C  
HETATM   19  H   UNL     4     -14.306   6.542  71.589  1.00  0.00     0.000 HD 
HETATM   20  O   UNL     4     -13.394   6.311  71.719  1.00  0.00     0.115 OA 
HETATM   21  O   UNL     4     -12.075   9.598  72.696  1.00  0.00     0.288 OA 
HETATM   22  O   UNL     4     -14.108   8.624  73.136  1.00  0.00    -0.196 OA 
ENDBRANCH  14  17
ENDBRANCH  11  14
ENDBRANCH   8  11
ENDBRANCH   3   8
BRANCH   7  23
HETATM   23  C   UNL     5     -10.886  16.402  68.761  1.00  0.00    -0.338 C  
HETATM   24  O   UNL     5     -11.146  15.816  67.484  1.00  0.00    -0.317 OA 
HETATM   25  H   UNL     5     -12.064  15.576  67.447  1.00  0.00     0.000 HD 
BRANCH  23  26
HETATM   26  C   UNL     5     -11.270  15.437  69.904  1.00  0.00    -0.299 C  
HETATM   27  O   UNL     5     -11.917  16.180  70.962  1.00  0.00    -0.525 OA 
HETATM   28  H   UNL     5     -12.153  15.586  71.665  1.00  0.00     0.000 HD 
BRANCH  26  29
HETATM   29  C   UNL     5     -12.105  14.177  69.543  1.00  0.00    -0.340 C  
HETATM   30  O   UNL     5     -13.239  13.999  70.392  1.00  0.00    -0.256 OA 
HETATM   31  H   UNL     5     -13.750  13.229  70.171  1.00  0.00     0.000 HD 
BRANCH  29  32
HETATM   32  C   UNL     5     -11.354  12.853  69.328  1.00  0.00    -0.243 C  
HETATM   33  C   UNL     5     -11.476  12.225  67.924  1.00  0.00    -0.330 C  
HETATM   34  O   UNL     5     -11.736  11.872  70.357  1.00  0.00    -0.495 OA 
HETATM   35  O   UNL     5     -11.552  13.021  66.940  1.00  0.00    -0.327 OA 
HETATM   36  O   UNL     5     -11.556  10.946  67.941  1.00  0.00    -0.497 OA 
HETATM   37  H   UNL     5     -11.272  11.054  70.225  1.00  0.00     0.000 HD 
ENDBRANCH  29  32
ENDBRANCH  26  29
ENDBRANCH  23  26
ENDBRANCH   7  23
TORSDOF 8
ENDMDL
MODEL      327
REMARK 921   NORMALIZED FREE ENERGY PREDICTED BY IDOCK:   -4.36 KCAL/MOL
REMARK 922        TOTAL FREE ENERGY PREDICTED BY IDOCK:   -8.65 KCAL/MOL
REMARK 923 INTER-LIGAND FREE ENERGY PREDICTED BY IDOCK:   -5.94 KCAL/MOL
REMARK 924 INTRA-LIGAND FREE ENERGY PREDICTED BY IDOCK:   -2.70 KCAL/MOL
REMARK 927      BINDING AFFINITY PREDICTED BY RF-SCORE:    0.00 PKD
ROOT
HETATM    1 MG   UNL     3      -7.785  10.663  64.307  1.00  0.00    -0.150 Mg 
HETATM    2  O   UNL     4      -9.094  15.852  67.449  1.00  0.00    -0.193 OA 
HETATM    3  C   UNL     4      -8.424  14.607  67.409  1.00  0.00    -0.204 C  
HETATM    4  H   UNL     4      -8.511  16.591  67.318  1.00  0.00     0.000 HD 
HETATM    5  O   UNL     5     -10.111   3.353  64.908  1.00  0.00    -0.346 OA 
HETATM    6  H   UNL     5     -10.894   3.191  64.395  1.00  0.00     0.000 HD 
HETATM    7  C   UNL     5     -10.244   4.516  65.725  1.00  0.00    -0.265 C  
ENDROOT
BRANCH   3   8
HETATM    8  C   UNL     4      -9.367  13.413  67.621  1.00  0.00    -0.217 C  
HETATM    9  O   UNL     4     -10.452  13.801  68.484  1.00  0.00    -0.235 OA 
HETATM   10  H   UNL     4     -11.035  13.062  68.615  1.00  0.00     0.000 HD 
BRANCH   8  11
HETATM   11  C   UNL     4     -10.012  12.737  66.376  1.00  0.00    -0.265 C  
HETATM   12  O   UNL     4      -9.070  12.414  65.359  1.00  0.00    -0.404 OA 
HETATM   13  H   UNL     4      -9.464  12.001  64.600  1.00  0.00     0.000 HD 
BRANCH  11  14
HETATM   14  C   UNL     4     -11.009  11.571  66.615  1.00  0.00    -0.296 C  
HETATM   15  H   UNL     4     -12.856  11.453  67.243  1.00  0.00     0.000 HD 
HETATM   16  O   UNL     4     -12.246  12.167  67.096  1.00  0.00    -0.507 OA 
BRANCH  14  17
HETATM   17  C   UNL     4     -10.600  10.365  67.508  1.00  0.00    -0.262 C  
HETATM   18  C   UNL     4     -10.285   9.061  66.665  1.00  0.00    -0.263 C  
HETATM   19  H   UNL     4     -11.261   9.429  69.146  1.00  0.00     0.000 HD 
HETATM   20  O   UNL     4     -11.511  10.166  68.600  1.00  0.00    -0.167 OA 
HETATM   21  O   UNL     4      -9.670   9.300  65.541  1.00  0.00    -0.277 OA 
HETATM   22  O   UNL     4     -10.713   7.948  67.078  1.00  0.00    -0.339 OA 
ENDBRANCH  14  17
ENDBRANCH  11  14
ENDBRANCH   8  11
ENDBRANCH   3   8
BRANCH   7  23
HETATM   23  C   UNL     5      -8.973   4.779  66.557  1.00  0.00    -0.112 C  
HETATM   24  O   UNL     5      -8.729   6.187  66.570  1.00  0.00    -0.124 OA 
HETATM   25  H   UNL     5      -7.946   6.348  67.083  1.00  0.00     0.000 HD 
BRANCH  23  26
HETATM   26  C   UNL     5      -9.106   4.224  67.993  1.00  0.00    -0.131 C  
HETATM   27  O   UNL     5      -8.956   2.787  67.967  1.00  0.00    -0.119 OA 
HETATM   28  H   UNL     5      -9.038   2.446  68.850  1.00  0.00     0.000 HD 
BRANCH  26  29
HETATM   29  C   UNL     5      -8.202   4.840  69.097  1.00  0.00    -0.081 C  
HETATM   30  O   UNL     5      -7.382   3.870  69.748  1.00  0.00    -0.048 OA 
HETATM   31  H   UNL     5      -6.829   4.246  70.423  1.00  0.00     0.000 HD 
BRANCH  29  32
HETATM   32  C   UNL     5      -8.854   5.794  70.111  1.00  0.00    -0.140 C  
HETATM   33  C   UNL     5      -9.973   5.190  70.985  1.00  0.00    -0.206 C  
HETATM   34  O   UNL     5      -9.339   7.009  69.436  1.00  0.00    -0.147 OA 
HETATM   35  O   UNL     5      -9.851   3.974  71.320  1.00  0.00    -0.180 OA 
HETATM   36  O   UNL     5     -10.942   6.000  71.208  1.00  0.00    -0.264 OA 
HETATM   37  H   UNL     5      -9.741   7.598  70.062  1.00  0.00     0.000 HD 
ENDBRANCH  29  32
ENDBRANCH  26  29
ENDBRANCH  23  26
ENDBRANCH   7  23
TORSDOF 8
ENDMDL
MODEL      328
REMARK 921   NORMALIZED FREE ENERGY PREDICTED BY IDOCK:   -4.36 KCAL/MOL
REMARK 922        TOTAL FREE ENERGY PREDICTED BY IDOCK:   -8.64 KCAL/MOL
REMARK 923 INTER-LIGAND FREE ENERGY PREDICTED BY IDOCK:   -7.14 KCAL/MOL
REMARK 924 INTRA-LIGAND FREE ENERGY PREDICTED BY IDOCK:   -1.50 KCAL/MOL
REMARK 927      BINDING AFFINITY PREDICTED BY RF-SCORE:    0.00 PKD
ROOT
HETATM    1 MG   UNL     3      -7.232  10.263  70.943  1.00  0.00    -0.136 Mg 
HETATM    2  O   UNL     4      -6.640   4.596  68.482  1.00  0.00    -0.043 OA 
HETATM    3  C   UNL     4      -6.623   5.998  68.292  1.00  0.00    -0.055 C  
HETATM    4  H   UNL     4      -5.770   4.213  68.492  1.00  0.00     0.000 HD 
HETATM    5  O   UNL     5     -12.717  15.650  70.626  1.00  0.00    -0.454 OA 
HETATM    6  H   UNL     5     -13.361  15.535  71.316  1.00  0.00     0.000 HD 
HETATM    7  C   UNL     5     -12.469  14.431  69.926  1.00  0.00    -0.261 C  
ENDROOT
BRANCH   3   8
HETATM    8  C   UNL     4      -8.029   6.616  68.275  1.00  0.00    -0.111 C  
HETATM    9  O   UNL     4      -9.001   5.617  68.637  1.00  0.00    -0.111 OA 
HETATM   10  H   UNL     4      -9.871   6.000  68.627  1.00  0.00     0.000 HD 
BRANCH   8  11
HETATM   11  C   UNL     4      -8.314   7.855  69.174  1.00  0.00    -0.133 C  
HETATM   12  O   UNL     4      -7.202   8.236  69.976  1.00  0.00    -0.056 OA 
HETATM   13  H   UNL     4      -7.376   8.992  70.524  1.00  0.00     0.000 HD 
BRANCH  11  14
HETATM   14  C   UNL     4      -8.989   9.090  68.518  1.00  0.00    -0.133 C  
HETATM   15  H   UNL     4      -8.697  11.020  68.605  1.00  0.00     0.000 HD 
HETATM   16  O   UNL     4      -8.283  10.264  69.005  1.00  0.00    -0.118 OA 
BRANCH  14  17
HETATM   17  C   UNL     4     -10.528   9.290  68.633  1.00  0.00    -0.209 C  
HETATM   18  C   UNL     4     -11.077  10.385  67.627  1.00  0.00    -0.293 C  
HETATM   19  H   UNL     4     -11.891   9.584  70.065  1.00  0.00     0.000 HD 
HETATM   20  O   UNL     4     -10.951   9.462  69.995  1.00  0.00    -0.230 OA 
HETATM   21  O   UNL     4     -10.490  10.370  66.465  1.00  0.00    -0.236 OA 
HETATM   22  O   UNL     4     -11.937  11.213  68.036  1.00  0.00    -0.625 OA 
ENDBRANCH  14  17
ENDBRANCH  11  14
ENDBRANCH   8  11
ENDBRANCH   3   8
BRANCH   7  23
HETATM   23  C   UNL     5     -11.425  14.617  68.807  1.00  0.00    -0.296 C  
HETATM   24  O   UNL     5     -12.117  14.892  67.588  1.00  0.00    -0.516 OA 
HETATM   25  H   UNL     5     -11.474  15.006  66.899  1.00  0.00     0.000 HD 
BRANCH  23  26
HETATM   26  C   UNL     5     -10.422  15.743  69.143  1.00  0.00    -0.240 C  
HETATM   27  O   UNL     5      -9.291  15.183  69.849  1.00  0.00    -0.463 OA 
HETATM   28  H   UNL     5      -8.675  15.876  70.056  1.00  0.00     0.000 HD 
BRANCH  26  29
HETATM   29  C   UNL     5      -9.935  16.654  67.982  1.00  0.00    -0.258 C  
HETATM   30  O   UNL     5      -8.525  16.580  67.772  1.00  0.00    -0.172 OA 
HETATM   31  H   UNL     5      -8.227  17.136  67.062  1.00  0.00     0.000 HD 
BRANCH  29  32
HETATM   32  C   UNL     5     -10.430  18.109  67.953  1.00  0.00    -0.392 C  
HETATM   33  C   UNL     5      -9.631  19.077  67.056  1.00  0.00    -0.318 C  
HETATM   34  O   UNL     5     -10.526  18.646  69.320  1.00  0.00    -0.418 OA 
HETATM   35  O   UNL     5      -9.143  18.605  65.987  1.00  0.00    -0.487 OA 
HETATM   36  O   UNL     5      -9.504  20.251  67.557  1.00  0.00    -0.375 OA 
HETATM   37  H   UNL     5     -10.832  19.545  69.303  1.00  0.00     0.000 HD 
ENDBRANCH  29  32
ENDBRANCH  26  29
ENDBRANCH  23  26
ENDBRANCH   7  23
TORSDOF 8
ENDMDL
MODEL      329
REMARK 921   NORMALIZED FREE ENERGY PREDICTED BY IDOCK:   -4.36 KCAL/MOL
REMARK 922        TOTAL FREE ENERGY PREDICTED BY IDOCK:   -8.64 KCAL/MOL
REMARK 923 INTER-LIGAND FREE ENERGY PREDICTED BY IDOCK:   -8.25 KCAL/MOL
REMARK 924 INTRA-LIGAND FREE ENERGY PREDICTED BY IDOCK:   -0.39 KCAL/MOL
REMARK 927      BINDING AFFINITY PREDICTED BY RF-SCORE:    0.00 PKD
ROOT
HETATM    1 MG   UNL     3      -8.647  11.106  63.643  1.00  0.00    -0.175 Mg 
HETATM    2  O   UNL     4     -11.661  16.531  63.651  1.00  0.00    -1.415 OA 
HETATM    3  C   UNL     4     -10.930  15.560  64.375  1.00  0.00    -0.043 C  
HETATM    4  H   UNL     4     -11.150  17.306  63.449  1.00  0.00     0.000 HD 
HETATM    5  O   UNL     5     -10.323   4.088  66.317  1.00  0.00    -0.400 OA 
HETATM    6  H   UNL     5     -10.786   3.569  65.671  1.00  0.00     0.000 HD 
HETATM    7  C   UNL     5     -10.904   5.383  66.470  1.00  0.00    -0.148 C  
ENDROOT
BRANCH   3   8
HETATM    8  C   UNL     4     -11.757  14.308  64.702  1.00  0.00    -0.430 C  
HETATM    9  O   UNL     4     -11.389  13.239  63.810  1.00  0.00    -0.552 OA 
HETATM   10  H   UNL     4     -11.901  12.465  64.012  1.00  0.00     0.000 HD 
BRANCH   8  11
HETATM   11  C   UNL     4     -11.694  13.723  66.143  1.00  0.00    -0.370 C  
HETATM   12  O   UNL     4     -12.355  12.468  66.270  1.00  0.00    -0.570 OA 
HETATM   13  H   UNL     4     -12.316  12.111  67.149  1.00  0.00     0.000 HD 
BRANCH  11  14
HETATM   14  C   UNL     4     -10.320  13.715  66.866  1.00  0.00    -0.262 C  
HETATM   15  H   UNL     4      -9.335  12.402  67.925  1.00  0.00     0.000 HD 
HETATM   16  O   UNL     4     -10.175  12.406  67.482  1.00  0.00    -0.206 OA 
BRANCH  14  17
HETATM   17  C   UNL     4      -9.968  14.839  67.883  1.00  0.00    -0.213 C  
HETATM   18  C   UNL     4     -11.250  15.597  68.423  1.00  0.00    -0.352 C  
HETATM   19  H   UNL     4      -8.709  16.386  68.019  1.00  0.00     0.000 HD 
HETATM   20  O   UNL     4      -8.925  15.700  67.398  1.00  0.00    -0.187 OA 
HETATM   21  O   UNL     4     -12.276  14.817  68.618  1.00  0.00    -0.206 OA 
HETATM   22  O   UNL     4     -11.217  16.853  68.533  1.00  0.00    -0.289 OA 
ENDBRANCH  14  17
ENDBRANCH  11  14
ENDBRANCH   8  11
ENDBRANCH   3   8
BRANCH   7  23
HETATM   23  C   UNL     5     -10.152   6.226  67.520  1.00  0.00    -0.154 C  
HETATM   24  O   UNL     5     -10.162   7.589  67.090  1.00  0.00    -0.222 OA 
HETATM   25  H   UNL     5      -9.698   8.109  67.736  1.00  0.00     0.000 HD 
BRANCH  23  26
HETATM   26  C   UNL     5     -10.777   6.081  68.924  1.00  0.00    -0.317 C  
HETATM   27  O   UNL     5     -10.317   4.851  69.529  1.00  0.00    -0.224 OA 
HETATM   28  H   UNL     5     -10.702   4.762  70.393  1.00  0.00     0.000 HD 
BRANCH  26  29
HETATM   29  C   UNL     5     -10.613   7.264  69.919  1.00  0.00    -0.231 C  
HETATM   30  O   UNL     5      -9.578   8.171  69.539  1.00  0.00    -0.166 OA 
HETATM   31  H   UNL     5      -9.478   8.894  70.147  1.00  0.00     0.000 HD 
BRANCH  29  32
HETATM   32  C   UNL     5     -10.548   6.937  71.420  1.00  0.00    -0.219 C  
HETATM   33  C   UNL     5     -11.824   7.239  72.234  1.00  0.00    -0.248 C  
HETATM   34  O   UNL     5      -9.384   7.592  72.039  1.00  0.00    -0.136 OA 
HETATM   35  O   UNL     5     -12.935   7.077  71.648  1.00  0.00    -0.376 OA 
HETATM   36  O   UNL     5     -11.584   7.694  73.409  1.00  0.00    -0.147 OA 
HETATM   37  H   UNL     5      -9.344   7.391  72.966  1.00  0.00     0.000 HD 
ENDBRANCH  29  32
ENDBRANCH  26  29
ENDBRANCH  23  26
ENDBRANCH   7  23
TORSDOF 8
ENDMDL
MODEL      330
REMARK 921   NORMALIZED FREE ENERGY PREDICTED BY IDOCK:   -4.35 KCAL/MOL
REMARK 922        TOTAL FREE ENERGY PREDICTED BY IDOCK:   -8.63 KCAL/MOL
REMARK 923 INTER-LIGAND FREE ENERGY PREDICTED BY IDOCK:   -7.09 KCAL/MOL
REMARK 924 INTRA-LIGAND FREE ENERGY PREDICTED BY IDOCK:   -1.54 KCAL/MOL
REMARK 927      BINDING AFFINITY PREDICTED BY RF-SCORE:    0.00 PKD
ROOT
HETATM    1 MG   UNL     3      -7.847  11.238  64.262  1.00  0.00    -0.352 Mg 
HETATM    2  O   UNL     4     -11.232  16.425  63.863  1.00  0.00    -1.383 OA 
HETATM    3  C   UNL     4     -10.370  15.607  64.630  1.00  0.00     0.304 C  
HETATM    4  H   UNL     4     -10.798  17.194  63.511  1.00  0.00     0.000 HD 
HETATM    5  O   UNL     5      -8.765   4.563  67.977  1.00  0.00    -0.101 OA 
HETATM    6  H   UNL     5      -9.246   3.933  67.453  1.00  0.00     0.000 HD 
HETATM    7  C   UNL     5      -9.422   5.829  68.018  1.00  0.00    -0.110 C  
ENDROOT
BRANCH   3   8
HETATM    8  C   UNL     4     -11.072  14.364  65.197  1.00  0.00    -0.362 C  
HETATM    9  O   UNL     4     -12.438  14.685  65.519  1.00  0.00    -0.268 OA 
HETATM   10  H   UNL     4     -12.872  13.916  65.871  1.00  0.00     0.000 HD 
BRANCH   8  11
HETATM   11  C   UNL     4     -11.114  13.068  64.336  1.00  0.00    -0.370 C  
HETATM   12  O   UNL     4      -9.960  12.897  63.520  1.00  0.00    -0.681 OA 
HETATM   13  H   UNL     4      -9.986  12.106  62.995  1.00  0.00     0.000 HD 
BRANCH  11  14
HETATM   14  C   UNL     4     -11.515  11.741  65.036  1.00  0.00    -0.188 C  
HETATM   15  H   UNL     4     -12.621  11.286  66.581  1.00  0.00     0.000 HD 
HETATM   16  O   UNL     4     -12.376  12.098  66.152  1.00  0.00    -0.536 OA 
BRANCH  14  17
HETATM   17  C   UNL     4     -10.418  10.736  65.490  1.00  0.00    -0.194 C  
HETATM   18  C   UNL     4      -9.509  11.310  66.654  1.00  0.00    -0.186 C  
HETATM   19  H   UNL     4      -9.022   9.575  64.655  1.00  0.00     0.000 HD 
HETATM   20  O   UNL     4      -9.692  10.189  64.378  1.00  0.00    -0.308 OA 
HETATM   21  O   UNL     4     -10.163  12.024  67.526  1.00  0.00    -0.195 OA 
HETATM   22  O   UNL     4      -8.263  11.121  66.606  1.00  0.00    -0.147 OA 
ENDBRANCH  14  17
ENDBRANCH  11  14
ENDBRANCH   8  11
ENDBRANCH   3   8
BRANCH   7  23
HETATM   23  C   UNL     5      -8.641   6.851  68.869  1.00  0.00    -0.131 C  
HETATM   24  O   UNL     5      -8.511   8.057  68.114  1.00  0.00    -0.122 OA 
HETATM   25  H   UNL     5      -8.030   8.686  68.638  1.00  0.00     0.000 HD 
BRANCH  23  26
HETATM   26  C   UNL     5      -9.334   7.115  70.223  1.00  0.00    -0.155 C  
HETATM   27  O   UNL     5      -9.505   8.539  70.405  1.00  0.00    -0.158 OA 
HETATM   28  H   UNL     5      -9.932   8.701  71.238  1.00  0.00     0.000 HD 
BRANCH  26  29
HETATM   29  C   UNL     5     -10.667   6.371  70.515  1.00  0.00    -0.257 C  
HETATM   30  O   UNL     5     -11.746   7.258  70.808  1.00  0.00    -0.299 OA 
HETATM   31  H   UNL     5     -12.561   6.803  70.986  1.00  0.00     0.000 HD 
BRANCH  29  32
HETATM   32  C   UNL     5     -10.631   5.190  71.499  1.00  0.00    -0.147 C  
HETATM   33  C   UNL     5     -10.259   5.534  72.956  1.00  0.00    -0.188 C  
HETATM   34  O   UNL     5      -9.753   4.123  70.989  1.00  0.00    -0.170 OA 
HETATM   35  O   UNL     5     -10.647   6.654  73.402  1.00  0.00    -0.268 OA 
HETATM   36  O   UNL     5      -9.526   4.645  73.520  1.00  0.00    -0.121 OA 
HETATM   37  H   UNL     5      -9.730   3.394  71.597  1.00  0.00     0.000 HD 
ENDBRANCH  29  32
ENDBRANCH  26  29
ENDBRANCH  23  26
ENDBRANCH   7  23
TORSDOF 8
ENDMDL
MODEL      331
REMARK 921   NORMALIZED FREE ENERGY PREDICTED BY IDOCK:   -4.35 KCAL/MOL
REMARK 922        TOTAL FREE ENERGY PREDICTED BY IDOCK:   -8.63 KCAL/MOL
REMARK 923 INTER-LIGAND FREE ENERGY PREDICTED BY IDOCK:   -7.92 KCAL/MOL
REMARK 924 INTRA-LIGAND FREE ENERGY PREDICTED BY IDOCK:   -0.71 KCAL/MOL
REMARK 927      BINDING AFFINITY PREDICTED BY RF-SCORE:    0.00 PKD
ROOT
HETATM    1 MG   UNL     3     -11.153   9.559  71.352  1.00  0.00    -0.228 Mg 
HETATM    2  O   UNL     4     -12.413  15.472  69.948  1.00  0.00    -0.532 OA 
HETATM    3  C   UNL     4     -12.668  14.100  69.716  1.00  0.00     0.050 C  
HETATM    4  H   UNL     4     -13.098  15.895  70.453  1.00  0.00     0.000 HD 
HETATM    5  O   UNL     5      -7.260   3.962  67.785  1.00  0.00    -0.061 OA 
HETATM    6  H   UNL     5      -6.339   3.972  68.019  1.00  0.00     0.000 HD 
HETATM    7  C   UNL     5      -7.724   5.257  67.406  1.00  0.00    -0.096 C  
ENDROOT
BRANCH   3   8
HETATM    8  C   UNL     4     -11.560  13.416  68.901  1.00  0.00    -0.314 C  
HETATM    9  O   UNL     4     -12.137  12.404  68.054  1.00  0.00    -0.398 OA 
HETATM   10  H   UNL     4     -11.452  11.981  67.550  1.00  0.00     0.000 HD 
BRANCH   8  11
HETATM   11  C   UNL     4     -10.652  14.290  67.987  1.00  0.00    -0.238 C  
HETATM   12  O   UNL     4      -9.345  14.486  68.515  1.00  0.00    -0.195 OA 
HETATM   13  H   UNL     4      -8.791  15.019  67.957  1.00  0.00     0.000 HD 
BRANCH  11  14
HETATM   14  C   UNL     4     -10.607  13.957  66.471  1.00  0.00    -0.279 C  
HETATM   15  H   UNL     4      -9.178  13.723  65.161  1.00  0.00     0.000 HD 
HETATM   16  O   UNL     4      -9.205  13.927  66.088  1.00  0.00    -0.157 OA 
BRANCH  14  17
HETATM   17  C   UNL     4     -11.432  14.806  65.462  1.00  0.00    -0.329 C  
HETATM   18  C   UNL     4     -12.391  13.921  64.562  1.00  0.00    -0.372 C  
HETATM   19  H   UNL     4     -11.112  16.247  64.114  1.00  0.00     0.000 HD 
HETATM   20  O   UNL     4     -10.609  15.728  64.731  1.00  0.00    -0.504 OA 
HETATM   21  O   UNL     4     -12.937  12.926  65.200  1.00  0.00    -0.758 OA 
HETATM   22  O   UNL     4     -12.480  14.178  63.330  1.00  0.00    -0.758 OA 
ENDBRANCH  14  17
ENDBRANCH  11  14
ENDBRANCH   8  11
ENDBRANCH   3   8
BRANCH   7  23
HETATM   23  C   UNL     5      -9.219   5.240  67.027  1.00  0.00    -0.116 C  
HETATM   24  O   UNL     5      -9.900   4.368  67.930  1.00  0.00    -0.147 OA 
HETATM   25  H   UNL     5     -10.821   4.357  67.697  1.00  0.00     0.000 HD 
BRANCH  23  26
HETATM   26  C   UNL     5      -9.831   6.658  67.055  1.00  0.00    -0.160 C  
HETATM   27  O   UNL     5     -11.230   6.583  66.697  1.00  0.00    -0.680 OA 
HETATM   28  H   UNL     5     -11.606   7.455  66.714  1.00  0.00     0.000 HD 
BRANCH  26  29
HETATM   29  C   UNL     5      -9.650   7.503  68.346  1.00  0.00    -0.150 C  
HETATM   30  O   UNL     5      -8.291   7.864  68.589  1.00  0.00    -0.126 OA 
HETATM   31  H   UNL     5      -8.180   8.381  69.378  1.00  0.00     0.000 HD 
BRANCH  29  32
HETATM   32  C   UNL     5     -10.336   7.009  69.631  1.00  0.00    -0.209 C  
HETATM   33  C   UNL     5      -9.592   5.906  70.413  1.00  0.00    -0.168 C  
HETATM   34  O   UNL     5     -11.717   6.585  69.346  1.00  0.00    -0.649 OA 
HETATM   35  O   UNL     5      -8.326   5.946  70.404  1.00  0.00    -0.118 OA 
HETATM   36  O   UNL     5     -10.374   5.030  70.928  1.00  0.00    -0.230 OA 
HETATM   37  H   UNL     5     -12.140   6.280  70.139  1.00  0.00     0.000 HD 
ENDBRANCH  29  32
ENDBRANCH  26  29
ENDBRANCH  23  26
ENDBRANCH   7  23
TORSDOF 8
ENDMDL
MODEL      332
REMARK 921   NORMALIZED FREE ENERGY PREDICTED BY IDOCK:   -4.33 KCAL/MOL
REMARK 922        TOTAL FREE ENERGY PREDICTED BY IDOCK:   -8.60 KCAL/MOL
REMARK 923 INTER-LIGAND FREE ENERGY PREDICTED BY IDOCK:   -5.86 KCAL/MOL
REMARK 924 INTRA-LIGAND FREE ENERGY PREDICTED BY IDOCK:   -2.75 KCAL/MOL
REMARK 927      BINDING AFFINITY PREDICTED BY RF-SCORE:    0.00 PKD
ROOT
HETATM    1 MG   UNL     3     -13.209  14.230  67.709  1.00  0.00    -0.416 Mg 
HETATM    2  O   UNL     4     -12.202  11.020  62.493  1.00  0.00    -0.171 OA 
HETATM    3  C   UNL     4     -11.701  11.501  63.725  1.00  0.00    -0.178 C  
HETATM    4  H   UNL     4     -12.409  10.093  62.514  1.00  0.00     0.000 HD 
HETATM    5  O   UNL     5     -10.980  21.161  70.200  1.00  0.00     0.013 OA 
HETATM    6  H   UNL     5     -11.590  21.840  69.938  1.00  0.00     0.000 HD 
HETATM    7  C   UNL     5     -10.613  20.326  69.102  1.00  0.00     0.430 C  
ENDROOT
BRANCH   3   8
HETATM    8  C   UNL     4     -11.366  12.999  63.692  1.00  0.00    -0.339 C  
HETATM    9  O   UNL     4     -12.558  13.767  63.944  1.00  0.00    -0.701 OA 
HETATM   10  H   UNL     4     -12.350  14.694  63.922  1.00  0.00     0.000 HD 
BRANCH   8  11
HETATM   11  C   UNL     4     -10.276  13.546  64.659  1.00  0.00    -0.316 C  
HETATM   12  O   UNL     4      -9.685  14.762  64.211  1.00  0.00    -0.031 OA 
HETATM   13  H   UNL     4      -9.020  15.095  64.801  1.00  0.00     0.000 HD 
BRANCH  11  14
HETATM   14  C   UNL     4     -10.608  13.603  66.174  1.00  0.00    -0.291 C  
HETATM   15  H   UNL     4     -11.719  14.757  67.292  1.00  0.00     0.000 HD 
HETATM   16  O   UNL     4     -11.516  14.722  66.365  1.00  0.00    -0.350 OA 
BRANCH  14  17
HETATM   17  C   UNL     4      -9.460  13.645  67.223  1.00  0.00    -0.230 C  
HETATM   18  C   UNL     4      -9.929  14.237  68.617  1.00  0.00    -0.234 C  
HETATM   19  H   UNL     4      -7.562  14.261  67.334  1.00  0.00     0.000 HD 
HETATM   20  O   UNL     4      -8.264  14.236  66.694  1.00  0.00     0.033 OA 
HETATM   21  O   UNL     4     -11.134  13.882  68.959  1.00  0.00    -0.254 OA 
HETATM   22  O   UNL     4      -9.173  15.047  69.221  1.00  0.00    -0.206 OA 
ENDBRANCH  14  17
ENDBRANCH  11  14
ENDBRANCH   8  11
ENDBRANCH   3   8
BRANCH   7  23
HETATM   23  C   UNL     5      -9.623  19.223  69.527  1.00  0.00     0.054 C  
HETATM   24  O   UNL     5     -10.295  17.964  69.451  1.00  0.00    -0.384 OA 
HETATM   25  H   UNL     5      -9.685  17.285  69.714  1.00  0.00     0.000 HD 
BRANCH  23  26
HETATM   26  C   UNL     5      -8.351  19.229  68.652  1.00  0.00    -0.372 C  
HETATM   27  O   UNL     5      -7.218  18.820  69.451  1.00  0.00    -0.200 OA 
HETATM   28  H   UNL     5      -6.435  18.824  68.912  1.00  0.00     0.000 HD 
BRANCH  26  29
HETATM   29  C   UNL     5      -8.383  18.435  67.317  1.00  0.00    -0.249 C  
HETATM   30  O   UNL     5      -8.012  17.066  67.476  1.00  0.00    -0.171 OA 
HETATM   31  H   UNL     5      -8.032  16.580  66.659  1.00  0.00     0.000 HD 
BRANCH  29  32
HETATM   32  C   UNL     5      -7.699  19.061  66.091  1.00  0.00    -0.271 C  
HETATM   33  C   UNL     5      -6.176  19.284  66.206  1.00  0.00    -0.172 C  
HETATM   34  O   UNL     5      -8.368  20.317  65.714  1.00  0.00    -0.542 OA 
HETATM   35  O   UNL     5      -5.516  18.432  66.872  1.00  0.00    -0.137 OA 
HETATM   36  O   UNL     5      -5.776  20.371  65.655  1.00  0.00    -0.173 OA 
HETATM   37  H   UNL     5      -7.946  20.704  64.957  1.00  0.00     0.000 HD 
ENDBRANCH  29  32
ENDBRANCH  26  29
ENDBRANCH  23  26
ENDBRANCH   7  23
TORSDOF 8
ENDMDL
MODEL      333
REMARK 921   NORMALIZED FREE ENERGY PREDICTED BY IDOCK:   -4.31 KCAL/MOL
REMARK 922        TOTAL FREE ENERGY PREDICTED BY IDOCK:   -8.58 KCAL/MOL
REMARK 923 INTER-LIGAND FREE ENERGY PREDICTED BY IDOCK:   -7.60 KCAL/MOL
REMARK 924 INTRA-LIGAND FREE ENERGY PREDICTED BY IDOCK:   -0.98 KCAL/MOL
REMARK 927      BINDING AFFINITY PREDICTED BY RF-SCORE:    0.00 PKD
ROOT
HETATM    1 MG   UNL     3     -11.421  14.711  72.010  1.00  0.00    -0.329 Mg 
HETATM    2  O   UNL     4     -10.236  18.281  67.074  1.00  0.00    -0.342 OA 
HETATM    3  C   UNL     4     -10.972  17.211  67.636  1.00  0.00    -0.148 C  
HETATM    4  H   UNL     4     -10.747  19.077  66.988  1.00  0.00     0.000 HD 
HETATM    5  O   UNL     5      -9.672   7.451  73.865  1.00  0.00    -0.281 OA 
HETATM    6  H   UNL     5      -8.837   7.396  74.314  1.00  0.00     0.000 HD 
HETATM    7  C   UNL     5      -9.580   8.229  72.672  1.00  0.00    -0.282 C  
ENDROOT
BRANCH   3   8
HETATM    8  C   UNL     4     -10.146  15.924  67.773  1.00  0.00    -0.244 C  
HETATM    9  O   UNL     4      -9.606  15.835  69.106  1.00  0.00    -0.220 OA 
HETATM   10  H   UNL     4      -9.095  15.038  69.191  1.00  0.00     0.000 HD 
BRANCH   8  11
HETATM   11  C   UNL     4     -10.832  14.557  67.483  1.00  0.00    -0.289 C  
HETATM   12  O   UNL     4     -12.243  14.585  67.673  1.00  0.00    -0.598 OA 
HETATM   13  H   UNL     4     -12.661  13.751  67.496  1.00  0.00     0.000 HD 
BRANCH  11  14
HETATM   14  C   UNL     4     -10.451  13.814  66.174  1.00  0.00    -0.297 C  
HETATM   15  H   UNL     4     -10.480  14.277  64.277  1.00  0.00     0.000 HD 
HETATM   16  O   UNL     4     -10.712  14.732  65.077  1.00  0.00    -0.380 OA 
BRANCH  14  17
HETATM   17  C   UNL     4     -11.053  12.412  65.870  1.00  0.00    -0.313 C  
HETATM   18  C   UNL     4     -10.657  11.329  66.956  1.00  0.00    -0.246 C  
HETATM   19  H   UNL     4     -11.192  11.153  64.324  1.00  0.00     0.000 HD 
HETATM   20  O   UNL     4     -10.824  12.008  64.511  1.00  0.00    -0.285 OA 
HETATM   21  O   UNL     4     -10.628  11.794  68.173  1.00  0.00    -0.189 OA 
HETATM   22  O   UNL     4     -10.324  10.174  66.574  1.00  0.00    -0.231 OA 
ENDBRANCH  14  17
ENDBRANCH  11  14
ENDBRANCH   8  11
ENDBRANCH   3   8
BRANCH   7  23
HETATM   23  C   UNL     5     -10.935   8.319  71.942  1.00  0.00    -0.287 C  
HETATM   24  O   UNL     5     -11.020   9.598  71.311  1.00  0.00    -0.349 OA 
HETATM   25  H   UNL     5     -11.855   9.653  70.861  1.00  0.00     0.000 HD 
BRANCH  23  26
HETATM   26  C   UNL     5     -11.107   7.179  70.914  1.00  0.00    -0.263 C  
HETATM   27  O   UNL     5     -12.512   7.008  70.618  1.00  0.00    -0.588 OA 
HETATM   28  H   UNL     5     -12.617   6.307  69.986  1.00  0.00     0.000 HD 
BRANCH  26  29
HETATM   29  C   UNL     5     -10.285   7.256  69.597  1.00  0.00    -0.211 C  
HETATM   30  O   UNL     5     -10.587   8.415  68.822  1.00  0.00    -0.312 OA 
HETATM   31  H   UNL     5     -10.084   8.463  68.016  1.00  0.00     0.000 HD 
BRANCH  29  32
HETATM   32  C   UNL     5     -10.214   5.997  68.719  1.00  0.00    -0.188 C  
HETATM   33  C   UNL     5      -8.850   5.709  68.057  1.00  0.00    -0.105 C  
HETATM   34  O   UNL     5     -11.277   6.020  67.700  1.00  0.00    -0.416 OA 
HETATM   35  O   UNL     5      -7.813   6.024  68.712  1.00  0.00    -0.097 OA 
HETATM   36  O   UNL     5      -8.949   5.239  66.868  1.00  0.00    -0.111 OA 
HETATM   37  H   UNL     5     -11.234   5.243  67.157  1.00  0.00     0.000 HD 
ENDBRANCH  29  32
ENDBRANCH  26  29
ENDBRANCH  23  26
ENDBRANCH   7  23
TORSDOF 8
ENDMDL
MODEL      334
REMARK 921   NORMALIZED FREE ENERGY PREDICTED BY IDOCK:   -4.31 KCAL/MOL
REMARK 922        TOTAL FREE ENERGY PREDICTED BY IDOCK:   -8.57 KCAL/MOL
REMARK 923 INTER-LIGAND FREE ENERGY PREDICTED BY IDOCK:   -7.18 KCAL/MOL
REMARK 924 INTRA-LIGAND FREE ENERGY PREDICTED BY IDOCK:   -1.40 KCAL/MOL
REMARK 927      BINDING AFFINITY PREDICTED BY RF-SCORE:    0.00 PKD
ROOT
HETATM    1 MG   UNL     3     -11.038  14.110  65.665  1.00  0.00    -0.289 Mg 
HETATM    2  O   UNL     4     -10.226   9.032  69.139  1.00  0.00    -0.194 OA 
HETATM    3  C   UNL     4     -10.610  10.391  69.067  1.00  0.00    -0.221 C  
HETATM    4  H   UNL     4     -10.967   8.441  69.214  1.00  0.00     0.000 HD 
HETATM    5  O   UNL     5      -7.141  20.700  64.888  1.00  0.00    -0.497 OA 
HETATM    6  H   UNL     5      -6.468  20.632  64.221  1.00  0.00     0.000 HD 
HETATM    7  C   UNL     5      -7.088  19.608  65.806  1.00  0.00    -0.303 C  
ENDROOT
BRANCH   3   8
HETATM    8  C   UNL     4      -9.413  11.346  68.945  1.00  0.00    -0.050 C  
HETATM    9  O   UNL     4      -8.271  10.776  69.613  1.00  0.00    -0.380 OA 
HETATM   10  H   UNL     4      -7.530  11.367  69.538  1.00  0.00     0.000 HD 
BRANCH   8  11
HETATM   11  C   UNL     4      -8.930  11.766  67.526  1.00  0.00    -0.168 C  
HETATM   12  O   UNL     4      -7.517  11.917  67.434  1.00  0.00    -0.128 OA 
HETATM   13  H   UNL     4      -7.223  12.174  66.568  1.00  0.00     0.000 HD 
BRANCH  11  14
HETATM   14  C   UNL     4      -9.498  10.995  66.305  1.00  0.00    -0.193 C  
HETATM   15  H   UNL     4     -11.295  10.598  65.648  1.00  0.00     0.000 HD 
HETATM   16  O   UNL     4     -10.948  11.070  66.396  1.00  0.00    -0.234 OA 
BRANCH  14  17
HETATM   17  C   UNL     4      -9.044   9.533  66.025  1.00  0.00    -0.176 C  
HETATM   18  C   UNL     4      -8.060   9.427  64.787  1.00  0.00    -0.131 C  
HETATM   19  H   UNL     4      -9.874   7.727  65.819  1.00  0.00     0.000 HD 
HETATM   20  O   UNL     4     -10.151   8.619  65.990  1.00  0.00    -0.189 OA 
HETATM   21  O   UNL     4      -7.218  10.417  64.700  1.00  0.00    -0.117 OA 
HETATM   22  O   UNL     4      -8.217   8.485  63.962  1.00  0.00    -0.159 OA 
ENDBRANCH  14  17
ENDBRANCH  11  14
ENDBRANCH   8  11
ENDBRANCH   3   8
BRANCH   7  23
HETATM   23  C   UNL     5      -8.181  19.717  66.888  1.00  0.00    -0.307 C  
HETATM   24  O   UNL     5      -8.578  21.086  66.987  1.00  0.00    -0.573 OA 
HETATM   25  H   UNL     5      -9.251  21.154  67.654  1.00  0.00     0.000 HD 
BRANCH  23  26
HETATM   26  C   UNL     5      -9.390  18.809  66.574  1.00  0.00    -0.336 C  
HETATM   27  O   UNL     5      -8.934  17.631  65.871  1.00  0.00    -0.519 OA 
HETATM   28  H   UNL     5      -9.677  17.072  65.678  1.00  0.00     0.000 HD 
BRANCH  26  29
HETATM   29  C   UNL     5     -10.322  18.406  67.750  1.00  0.00    -0.405 C  
HETATM   30  O   UNL     5     -10.172  19.249  68.892  1.00  0.00    -0.520 OA 
HETATM   31  H   UNL     5     -10.742  19.003  69.612  1.00  0.00     0.000 HD 
BRANCH  29  32
HETATM   32  C   UNL     5     -10.373  16.923  68.152  1.00  0.00    -0.336 C  
HETATM   33  C   UNL     5      -9.042  16.305  68.630  1.00  0.00    -0.228 C  
HETATM   34  O   UNL     5     -10.945  16.115  67.063  1.00  0.00    -0.256 OA 
HETATM   35  O   UNL     5      -8.254  17.059  69.274  1.00  0.00    -0.103 OA 
HETATM   36  O   UNL     5      -8.872  15.095  68.241  1.00  0.00    -0.165 OA 
HETATM   37  H   UNL     5     -10.977  15.198  67.311  1.00  0.00     0.000 HD 
ENDBRANCH  29  32
ENDBRANCH  26  29
ENDBRANCH  23  26
ENDBRANCH   7  23
TORSDOF 8
ENDMDL
MODEL      335
REMARK 921   NORMALIZED FREE ENERGY PREDICTED BY IDOCK:   -4.31 KCAL/MOL
REMARK 922        TOTAL FREE ENERGY PREDICTED BY IDOCK:   -8.57 KCAL/MOL
REMARK 923 INTER-LIGAND FREE ENERGY PREDICTED BY IDOCK:   -7.63 KCAL/MOL
REMARK 924 INTRA-LIGAND FREE ENERGY PREDICTED BY IDOCK:   -0.95 KCAL/MOL
REMARK 927      BINDING AFFINITY PREDICTED BY RF-SCORE:    0.00 PKD
ROOT
HETATM    1 MG   UNL     3     -13.022  10.088  69.842  1.00  0.00    -0.494 Mg 
HETATM    2  O   UNL     4     -10.765   4.766  72.101  1.00  0.00    -0.174 OA 
HETATM    3  C   UNL     4     -10.525   6.103  71.708  1.00  0.00    -0.216 C  
HETATM    4  H   UNL     4     -10.790   4.656  73.045  1.00  0.00     0.000 HD 
HETATM    5  O   UNL     5     -12.506  13.612  63.021  1.00  0.00    -1.020 OA 
HETATM    6  H   UNL     5     -13.198  13.336  62.432  1.00  0.00     0.000 HD 
HETATM    7  C   UNL     5     -11.849  12.497  63.625  1.00  0.00    -0.530 C  
ENDROOT
BRANCH   3   8
HETATM    8  C   UNL     4     -10.485   6.281  70.183  1.00  0.00    -0.222 C  
HETATM    9  O   UNL     4     -11.712   5.796  69.607  1.00  0.00     0.254 OA 
HETATM   10  H   UNL     4     -11.686   5.905  68.663  1.00  0.00     0.000 HD 
BRANCH   8  11
HETATM   11  C   UNL     4     -10.256   7.705  69.599  1.00  0.00    -0.204 C  
HETATM   12  O   UNL     4     -10.160   8.714  70.599  1.00  0.00    -0.186 OA 
HETATM   13  H   UNL     4     -10.020   9.584  70.242  1.00  0.00     0.000 HD 
BRANCH  11  14
HETATM   14  C   UNL     4      -9.162   7.880  68.511  1.00  0.00    -0.138 C  
HETATM   15  H   UNL     4      -8.729   9.274  67.213  1.00  0.00     0.000 HD 
HETATM   16  O   UNL     4      -9.398   9.168  67.879  1.00  0.00    -0.137 OA 
BRANCH  14  17
HETATM   17  C   UNL     4      -8.947   6.775  67.437  1.00  0.00    -0.115 C  
HETATM   18  C   UNL     4      -7.854   7.175  66.361  1.00  0.00    -0.109 C  
HETATM   19  H   UNL     4     -10.057   5.633  66.229  1.00  0.00     0.000 HD 
HETATM   20  O   UNL     4     -10.188   6.308  66.885  1.00  0.00    -0.171 OA 
HETATM   21  O   UNL     4      -6.844   7.828  66.859  1.00  0.00    -0.068 OA 
HETATM   22  O   UNL     4      -8.075   6.924  65.144  1.00  0.00    -0.126 OA 
ENDBRANCH  14  17
ENDBRANCH  11  14
ENDBRANCH   8  11
ENDBRANCH   3   8
BRANCH   7  23
HETATM   23  C   UNL     5     -10.727  12.944  64.582  1.00  0.00    -0.353 C  
HETATM   24  O   UNL     5      -9.544  13.169  63.812  1.00  0.00    -0.450 OA 
HETATM   25  H   UNL     5      -8.853  13.445  64.402  1.00  0.00     0.000 HD 
BRANCH  23  26
HETATM   26  C   UNL     5     -11.123  14.209  65.375  1.00  0.00    -0.321 C  
HETATM   27  O   UNL     5     -11.724  13.818  66.631  1.00  0.00    -0.353 OA 
HETATM   28  H   UNL     5     -11.968  14.596  67.119  1.00  0.00     0.000 HD 
BRANCH  26  29
HETATM   29  C   UNL     5     -10.031  15.289  65.615  1.00  0.00    -0.364 C  
HETATM   30  O   UNL     5      -8.780  14.734  66.020  1.00  0.00    -0.410 OA 
HETATM   31  H   UNL     5      -8.112  15.395  66.166  1.00  0.00     0.000 HD 
BRANCH  29  32
HETATM   32  C   UNL     5     -10.405  16.511  66.469  1.00  0.00    -0.305 C  
HETATM   33  C   UNL     5     -10.592  17.839  65.706  1.00  0.00    -0.175 C  
HETATM   34  O   UNL     5      -9.437  16.688  67.565  1.00  0.00    -0.226 OA 
HETATM   35  O   UNL     5     -11.080  17.770  64.539  1.00  0.00    -0.652 OA 
HETATM   36  O   UNL     5     -10.153  18.861  66.343  1.00  0.00    -0.360 OA 
HETATM   37  H   UNL     5      -9.667  17.443  68.093  1.00  0.00     0.000 HD 
ENDBRANCH  29  32
ENDBRANCH  26  29
ENDBRANCH  23  26
ENDBRANCH   7  23
TORSDOF 8
ENDMDL
MODEL      336
REMARK 921   NORMALIZED FREE ENERGY PREDICTED BY IDOCK:   -4.30 KCAL/MOL
REMARK 922        TOTAL FREE ENERGY PREDICTED BY IDOCK:   -8.56 KCAL/MOL
REMARK 923 INTER-LIGAND FREE ENERGY PREDICTED BY IDOCK:   -6.72 KCAL/MOL
REMARK 924 INTRA-LIGAND FREE ENERGY PREDICTED BY IDOCK:   -1.85 KCAL/MOL
REMARK 927      BINDING AFFINITY PREDICTED BY RF-SCORE:    0.00 PKD
ROOT
HETATM    1 MG   UNL     3      -6.192   8.522  68.316  1.00  0.00    -0.041 Mg 
HETATM    2  O   UNL     4      -6.645   6.896  74.289  1.00  0.00    -0.082 OA 
HETATM    3  C   UNL     4      -7.172   6.820  72.978  1.00  0.00    -0.076 C  
HETATM    4  H   UNL     4      -6.192   6.103  74.552  1.00  0.00     0.000 HD 
HETATM    5  O   UNL     5     -10.044  13.459  63.844  1.00  0.00    -0.734 OA 
HETATM    6  H   UNL     5      -9.661  14.328  63.871  1.00  0.00     0.000 HD 
HETATM    7  C   UNL     5     -10.245  12.928  65.154  1.00  0.00    -0.271 C  
ENDROOT
BRANCH   3   8
HETATM    8  C   UNL     4      -7.903   8.102  72.552  1.00  0.00    -0.136 C  
HETATM    9  O   UNL     4      -6.987   9.213  72.579  1.00  0.00    -0.311 OA 
HETATM   10  H   UNL     4      -7.440  10.006  72.316  1.00  0.00     0.000 HD 
BRANCH   8  11
HETATM   11  C   UNL     4      -8.603   8.140  71.163  1.00  0.00    -0.133 C  
HETATM   12  O   UNL     4      -7.764   7.705  70.098  1.00  0.00    -0.088 OA 
HETATM   13  H   UNL     4      -8.192   7.728  69.250  1.00  0.00     0.000 HD 
BRANCH  11  14
HETATM   14  C   UNL     4     -10.027   7.532  71.047  1.00  0.00    -0.186 C  
HETATM   15  H   UNL     4     -11.680   8.072  70.157  1.00  0.00     0.000 HD 
HETATM   16  O   UNL     4     -10.809   8.444  70.227  1.00  0.00    -0.236 OA 
BRANCH  14  17
HETATM   17  C   UNL     4     -10.814   7.139  72.330  1.00  0.00    -0.246 C  
HETATM   18  C   UNL     4     -10.970   5.571  72.493  1.00  0.00    -0.263 C  
HETATM   19  H   UNL     4     -12.518   7.639  73.247  1.00  0.00     0.000 HD 
HETATM   20  O   UNL     4     -12.038   7.879  72.463  1.00  0.00    -0.315 OA 
HETATM   21  O   UNL     4      -9.918   4.898  72.122  1.00  0.00    -0.166 OA 
HETATM   22  O   UNL     4     -12.081   5.103  72.865  1.00  0.00    -0.169 OA 
ENDBRANCH  14  17
ENDBRANCH  11  14
ENDBRANCH   8  11
ENDBRANCH   3   8
BRANCH   7  23
HETATM   23  C   UNL     5     -10.866  11.518  65.110  1.00  0.00    -0.265 C  
HETATM   24  O   UNL     5     -11.333  11.275  63.782  1.00  0.00    -0.531 OA 
HETATM   25  H   UNL     5     -11.716  10.406  63.755  1.00  0.00     0.000 HD 
BRANCH  23  26
HETATM   26  C   UNL     5      -9.858  10.436  65.552  1.00  0.00    -0.269 C  
HETATM   27  O   UNL     5      -8.513  10.903  65.302  1.00  0.00    -0.281 OA 
HETATM   28  H   UNL     5      -7.892  10.237  65.574  1.00  0.00     0.000 HD 
BRANCH  26  29
HETATM   29  C   UNL     5      -9.974   9.880  66.999  1.00  0.00    -0.200 C  
HETATM   30  O   UNL     5     -11.120   9.051  67.186  1.00  0.00    -0.306 OA 
HETATM   31  H   UNL     5     -11.191   8.712  68.071  1.00  0.00     0.000 HD 
BRANCH  29  32
HETATM   32  C   UNL     5      -9.802  10.869  68.164  1.00  0.00    -0.175 C  
HETATM   33  C   UNL     5     -11.054  11.682  68.552  1.00  0.00    -0.235 C  
HETATM   34  O   UNL     5      -8.669  11.773  67.908  1.00  0.00    -0.150 OA 
HETATM   35  O   UNL     5     -12.176  11.105  68.435  1.00  0.00    -0.610 OA 
HETATM   36  O   UNL     5     -10.794  12.892  68.887  1.00  0.00    -0.242 OA 
HETATM   37  H   UNL     5      -8.562  12.384  68.628  1.00  0.00     0.000 HD 
ENDBRANCH  29  32
ENDBRANCH  26  29
ENDBRANCH  23  26
ENDBRANCH   7  23
TORSDOF 8
ENDMDL
MODEL      337
REMARK 921   NORMALIZED FREE ENERGY PREDICTED BY IDOCK:   -4.30 KCAL/MOL
REMARK 922        TOTAL FREE ENERGY PREDICTED BY IDOCK:   -8.56 KCAL/MOL
REMARK 923 INTER-LIGAND FREE ENERGY PREDICTED BY IDOCK:   -7.05 KCAL/MOL
REMARK 924 INTRA-LIGAND FREE ENERGY PREDICTED BY IDOCK:   -1.51 KCAL/MOL
REMARK 927      BINDING AFFINITY PREDICTED BY RF-SCORE:    0.00 PKD
ROOT
HETATM    1 MG   UNL     3     -11.909   9.982  72.060  1.00  0.00    -0.344 Mg 
HETATM    2  O   UNL     4     -13.144  15.981  71.057  1.00  0.00    -0.581 OA 
HETATM    3  C   UNL     4     -13.127  14.657  70.559  1.00  0.00    -0.202 C  
HETATM    4  H   UNL     4     -14.018  16.282  71.279  1.00  0.00     0.000 HD 
HETATM    5  O   UNL     5      -6.303   5.248  69.742  1.00  0.00    -0.025 OA 
HETATM    6  H   UNL     5      -5.564   5.262  70.339  1.00  0.00     0.000 HD 
HETATM    7  C   UNL     5      -6.715   6.565  69.379  1.00  0.00    -0.056 C  
ENDROOT
BRANCH   3   8
HETATM    8  C   UNL     4     -11.715  14.171  70.200  1.00  0.00    -0.280 C  
HETATM    9  O   UNL     4     -11.568  12.788  70.574  1.00  0.00    -0.500 OA 
HETATM   10  H   UNL     4     -10.695  12.488  70.352  1.00  0.00     0.000 HD 
BRANCH   8  11
HETATM   11  C   UNL     4     -11.237  14.282  68.722  1.00  0.00    -0.262 C  
HETATM   12  O   UNL     4      -9.828  14.136  68.574  1.00  0.00    -0.226 OA 
HETATM   13  H   UNL     4      -9.537  14.203  67.672  1.00  0.00     0.000 HD 
BRANCH  11  14
HETATM   14  C   UNL     4     -12.007  13.471  67.645  1.00  0.00    -0.336 C  
HETATM   15  H   UNL     4     -12.637  11.627  67.507  1.00  0.00     0.000 HD 
HETATM   16  O   UNL     4     -12.165  12.123  68.166  1.00  0.00    -0.388 OA 
BRANCH  14  17
HETATM   17  C   UNL     4     -11.489  13.434  66.179  1.00  0.00    -0.327 C  
HETATM   18  C   UNL     4     -12.663  13.486  65.116  1.00  0.00    -0.399 C  
HETATM   19  H   UNL     4     -10.220  12.356  65.072  1.00  0.00     0.000 HD 
HETATM   20  O   UNL     4     -10.537  12.379  65.968  1.00  0.00    -0.247 OA 
HETATM   21  O   UNL     4     -13.645  14.270  65.457  1.00  0.00    -0.497 OA 
HETATM   22  O   UNL     4     -12.608  12.729  64.107  1.00  0.00    -0.609 OA 
ENDBRANCH  14  17
ENDBRANCH  11  14
ENDBRANCH   8  11
ENDBRANCH   3   8
BRANCH   7  23
HETATM   23  C   UNL     5      -7.915   6.543  68.410  1.00  0.00    -0.110 C  
HETATM   24  O   UNL     5      -9.020   7.183  69.051  1.00  0.00    -0.135 OA 
HETATM   25  H   UNL     5      -9.759   7.169  68.455  1.00  0.00     0.000 HD 
BRANCH  23  26
HETATM   26  C   UNL     5      -7.578   7.227  67.067  1.00  0.00    -0.106 C  
HETATM   27  O   UNL     5      -6.285   6.770  66.608  1.00  0.00    -0.040 OA 
HETATM   28  H   UNL     5      -6.078   7.190  65.782  1.00  0.00     0.000 HD 
BRANCH  26  29
HETATM   29  C   UNL     5      -8.622   7.130  65.920  1.00  0.00    -0.148 C  
HETATM   30  O   UNL     5      -9.772   7.944  66.146  1.00  0.00    -0.414 OA 
HETATM   31  H   UNL     5     -10.410   7.886  65.444  1.00  0.00     0.000 HD 
BRANCH  29  32
HETATM   32  C   UNL     5      -9.015   5.730  65.422  1.00  0.00    -0.036 C  
HETATM   33  C   UNL     5      -9.998   4.945  66.316  1.00  0.00    -0.234 C  
HETATM   34  O   UNL     5      -7.813   4.922  65.157  1.00  0.00    -0.088 OA 
HETATM   35  O   UNL     5     -10.878   5.615  66.933  1.00  0.00    -0.286 OA 
HETATM   36  O   UNL     5      -9.744   3.689  66.373  1.00  0.00    -0.174 OA 
HETATM   37  H   UNL     5      -8.056   4.057  64.849  1.00  0.00     0.000 HD 
ENDBRANCH  29  32
ENDBRANCH  26  29
ENDBRANCH  23  26
ENDBRANCH   7  23
TORSDOF 8
ENDMDL
MODEL      338
REMARK 921   NORMALIZED FREE ENERGY PREDICTED BY IDOCK:   -4.29 KCAL/MOL
REMARK 922        TOTAL FREE ENERGY PREDICTED BY IDOCK:   -8.55 KCAL/MOL
REMARK 923 INTER-LIGAND FREE ENERGY PREDICTED BY IDOCK:   -6.33 KCAL/MOL
REMARK 924 INTRA-LIGAND FREE ENERGY PREDICTED BY IDOCK:   -2.21 KCAL/MOL
REMARK 927      BINDING AFFINITY PREDICTED BY RF-SCORE:    0.00 PKD
ROOT
HETATM    1 MG   UNL     3     -10.196   9.620  64.653  1.00  0.00    -0.307 Mg 
HETATM    2  O   UNL     4     -10.100   3.825  66.872  1.00  0.00    -0.311 OA 
HETATM    3  C   UNL     4     -10.619   5.138  66.959  1.00  0.00    -0.131 C  
HETATM    4  H   UNL     4     -10.714   3.209  66.488  1.00  0.00     0.000 HD 
HETATM    5  O   UNL     5      -7.328  16.313  67.140  1.00  0.00    -0.167 OA 
HETATM    6  H   UNL     5      -6.443  16.454  66.825  1.00  0.00     0.000 HD 
HETATM    7  C   UNL     5      -7.486  15.016  67.715  1.00  0.00    -0.159 C  
ENDROOT
BRANCH   3   8
HETATM    8  C   UNL     4      -9.627   6.133  67.579  1.00  0.00    -0.112 C  
HETATM    9  O   UNL     4      -8.533   6.357  66.670  1.00  0.00    -0.110 OA 
HETATM   10  H   UNL     4      -7.920   6.972  67.054  1.00  0.00     0.000 HD 
BRANCH   8  11
HETATM   11  C   UNL     4     -10.142   7.539  68.005  1.00  0.00    -0.183 C  
HETATM   12  O   UNL     4     -11.088   8.090  67.095  1.00  0.00    -0.447 OA 
HETATM   13  H   UNL     4     -11.402   8.948  67.355  1.00  0.00     0.000 HD 
BRANCH  11  14
HETATM   14  C   UNL     4     -10.591   7.736  69.478  1.00  0.00    -0.221 C  
HETATM   15  H   UNL     4     -11.570   9.126  70.439  1.00  0.00     0.000 HD 
HETATM   16  O   UNL     4     -11.296   9.006  69.537  1.00  0.00    -0.016 OA 
BRANCH  14  17
HETATM   17  C   UNL     4      -9.552   7.632  70.631  1.00  0.00    -0.163 C  
HETATM   18  C   UNL     4      -8.238   8.471  70.344  1.00  0.00    -0.114 C  
HETATM   19  H   UNL     4      -8.684   6.209  71.733  1.00  0.00     0.000 HD 
HETATM   20  O   UNL     4      -9.318   6.272  71.029  1.00  0.00    -0.160 OA 
HETATM   21  O   UNL     4      -8.461   9.606  69.745  1.00  0.00    -0.153 OA 
HETATM   22  O   UNL     4      -7.116   7.962  70.619  1.00  0.00    -0.048 OA 
ENDBRANCH  14  17
ENDBRANCH  11  14
ENDBRANCH   8  11
ENDBRANCH   3   8
BRANCH   7  23
HETATM   23  C   UNL     5      -8.923  14.789  68.226  1.00  0.00    -0.181 C  
HETATM   24  O   UNL     5      -9.797  15.666  67.512  1.00  0.00    -0.225 OA 
HETATM   25  H   UNL     5     -10.682  15.525  67.827  1.00  0.00     0.000 HD 
BRANCH  23  26
HETATM   26  C   UNL     5      -9.360  13.316  68.065  1.00  0.00    -0.218 C  
HETATM   27  O   UNL     5      -8.326  12.450  68.587  1.00  0.00    -0.309 OA 
HETATM   28  H   UNL     5      -8.595  11.544  68.488  1.00  0.00     0.000 HD 
BRANCH  26  29
HETATM   29  C   UNL     5     -10.746  12.902  68.632  1.00  0.00    -0.247 C  
HETATM   30  O   UNL     5     -10.699  11.693  69.389  1.00  0.00    -0.407 OA 
HETATM   31  H   UNL     5     -11.546  11.440  69.736  1.00  0.00     0.000 HD 
BRANCH  29  32
HETATM   32  C   UNL     5     -11.948  12.916  67.674  1.00  0.00    -0.289 C  
HETATM   33  C   UNL     5     -11.781  12.112  66.367  1.00  0.00    -0.324 C  
HETATM   34  O   UNL     5     -12.348  14.300  67.370  1.00  0.00    -0.600 OA 
HETATM   35  O   UNL     5     -11.092  11.050  66.427  1.00  0.00    -0.201 OA 
HETATM   36  O   UNL     5     -12.319  12.676  65.348  1.00  0.00    -0.528 OA 
HETATM   37  H   UNL     5     -13.091  14.308  66.778  1.00  0.00     0.000 HD 
ENDBRANCH  29  32
ENDBRANCH  26  29
ENDBRANCH  23  26
ENDBRANCH   7  23
TORSDOF 8
ENDMDL
MODEL      339
REMARK 921   NORMALIZED FREE ENERGY PREDICTED BY IDOCK:   -4.28 KCAL/MOL
REMARK 922        TOTAL FREE ENERGY PREDICTED BY IDOCK:   -8.53 KCAL/MOL
REMARK 923 INTER-LIGAND FREE ENERGY PREDICTED BY IDOCK:   -5.54 KCAL/MOL
REMARK 924 INTRA-LIGAND FREE ENERGY PREDICTED BY IDOCK:   -2.99 KCAL/MOL
REMARK 927      BINDING AFFINITY PREDICTED BY RF-SCORE:    0.00 PKD
ROOT
HETATM    1 MG   UNL     3      -6.599  10.030  67.720  1.00  0.00    -0.059 Mg 
HETATM    2  O   UNL     4      -6.484   4.005  69.201  1.00  0.00    -0.034 OA 
HETATM    3  C   UNL     4      -6.972   5.026  68.351  1.00  0.00    -0.057 C  
HETATM    4  H   UNL     4      -5.807   3.476  68.794  1.00  0.00     0.000 HD 
HETATM    5  O   UNL     5     -11.821  15.617  68.577  1.00  0.00    -0.440 OA 
HETATM    6  H   UNL     5     -11.725  16.061  69.412  1.00  0.00     0.000 HD 
HETATM    7  C   UNL     5     -11.838  14.199  68.731  1.00  0.00    -0.349 C  
ENDROOT
BRANCH   3   8
HETATM    8  C   UNL     4      -8.066   5.879  69.009  1.00  0.00    -0.103 C  
HETATM    9  O   UNL     4      -8.406   5.324  70.293  1.00  0.00    -0.102 OA 
HETATM   10  H   UNL     4      -9.084   5.852  70.700  1.00  0.00     0.000 HD 
BRANCH   8  11
HETATM   11  C   UNL     4      -7.798   7.395  69.240  1.00  0.00    -0.116 C  
HETATM   12  O   UNL     4      -6.479   7.794  68.883  1.00  0.00    -0.039 OA 
HETATM   13  H   UNL     4      -6.316   8.719  69.023  1.00  0.00     0.000 HD 
BRANCH  11  14
HETATM   14  C   UNL     4      -8.855   8.409  68.725  1.00  0.00    -0.140 C  
HETATM   15  H   UNL     4     -10.436   9.255  69.502  1.00  0.00     0.000 HD 
HETATM   16  O   UNL     4      -9.789   8.635  69.817  1.00  0.00    -0.178 OA 
BRANCH  14  17
HETATM   17  C   UNL     4      -9.621   8.132  67.400  1.00  0.00    -0.160 C  
HETATM   18  C   UNL     4      -8.849   8.670  66.125  1.00  0.00    -0.171 C  
HETATM   19  H   UNL     4     -11.467   8.361  66.668  1.00  0.00     0.000 HD 
HETATM   20  O   UNL     4     -10.999   8.530  67.477  1.00  0.00    -0.107 OA 
HETATM   21  O   UNL     4      -7.557   8.520  66.194  1.00  0.00    -0.087 OA 
HETATM   22  O   UNL     4      -9.501   9.259  65.220  1.00  0.00    -0.245 OA 
ENDBRANCH  14  17
ENDBRANCH  11  14
ENDBRANCH   8  11
ENDBRANCH   3   8
BRANCH   7  23
HETATM   23  C   UNL     5     -11.994  13.478  67.377  1.00  0.00    -0.357 C  
HETATM   24  O   UNL     5     -12.092  14.469  66.352  1.00  0.00    -0.385 OA 
HETATM   25  H   UNL     5     -12.188  14.025  65.517  1.00  0.00     0.000 HD 
BRANCH  23  26
HETATM   26  C   UNL     5     -10.820  12.512  67.106  1.00  0.00    -0.250 C  
HETATM   27  O   UNL     5     -11.315  11.334  66.429  1.00  0.00    -0.279 OA 
HETATM   28  H   UNL     5     -10.593  10.740  66.262  1.00  0.00     0.000 HD 
BRANCH  26  29
HETATM   29  C   UNL     5      -9.572  13.072  66.369  1.00  0.00    -0.257 C  
HETATM   30  O   UNL     5      -9.018  12.148  65.433  1.00  0.00    -0.400 OA 
HETATM   31  H   UNL     5      -8.255  12.490  64.982  1.00  0.00     0.000 HD 
BRANCH  29  32
HETATM   32  C   UNL     5      -8.474  13.735  67.216  1.00  0.00    -0.194 C  
HETATM   33  C   UNL     5      -8.262  15.246  66.986  1.00  0.00    -0.233 C  
HETATM   34  O   UNL     5      -7.199  13.015  67.062  1.00  0.00    -0.368 OA 
HETATM   35  O   UNL     5      -9.288  15.938  66.711  1.00  0.00    -0.217 OA 
HETATM   36  O   UNL     5      -7.031  15.603  67.036  1.00  0.00    -0.214 OA 
HETATM   37  H   UNL     5      -6.521  13.425  67.585  1.00  0.00     0.000 HD 
ENDBRANCH  29  32
ENDBRANCH  26  29
ENDBRANCH  23  26
ENDBRANCH   7  23
TORSDOF 8
ENDMDL
MODEL      340
REMARK 921   NORMALIZED FREE ENERGY PREDICTED BY IDOCK:   -4.28 KCAL/MOL
REMARK 922        TOTAL FREE ENERGY PREDICTED BY IDOCK:   -8.53 KCAL/MOL
REMARK 923 INTER-LIGAND FREE ENERGY PREDICTED BY IDOCK:   -7.11 KCAL/MOL
REMARK 924 INTRA-LIGAND FREE ENERGY PREDICTED BY IDOCK:   -1.42 KCAL/MOL
REMARK 927      BINDING AFFINITY PREDICTED BY RF-SCORE:    0.00 PKD
ROOT
HETATM    1 MG   UNL     3     -12.161  10.035  67.361  1.00  0.00    -0.288 Mg 
HETATM    2  O   UNL     4     -14.372   8.724  73.010  1.00  0.00    -1.089 OA 
HETATM    3  C   UNL     4     -13.549   9.541  72.200  1.00  0.00    -0.424 C  
HETATM    4  H   UNL     4     -15.184   9.150  73.262  1.00  0.00     0.000 HD 
HETATM    5  O   UNL     5      -5.347   8.983  63.943  1.00  0.00    -0.059 OA 
HETATM    6  H   UNL     5      -5.298   8.137  63.513  1.00  0.00     0.000 HD 
HETATM    7  C   UNL     5      -5.823   8.869  65.284  1.00  0.00    -0.051 C  
ENDROOT
BRANCH   3   8
HETATM    8  C   UNL     4     -12.238   8.852  71.793  1.00  0.00    -0.359 C  
HETATM    9  O   UNL     4     -11.173   9.821  71.756  1.00  0.00    -0.260 OA 
HETATM   10  H   UNL     4     -10.362   9.395  71.504  1.00  0.00     0.000 HD 
BRANCH   8  11
HETATM   11  C   UNL     4     -11.720   7.660  72.649  1.00  0.00    -0.270 C  
HETATM   12  O   UNL     4     -12.534   6.497  72.546  1.00  0.00    -0.519 OA 
HETATM   13  H   UNL     4     -12.218   5.769  73.068  1.00  0.00     0.000 HD 
BRANCH  11  14
HETATM   14  C   UNL     4     -10.211   7.304  72.565  1.00  0.00    -0.200 C  
HETATM   15  H   UNL     4      -8.868   7.350  71.146  1.00  0.00     0.000 HD 
HETATM   16  O   UNL     4      -9.791   7.568  71.198  1.00  0.00    -0.174 OA 
BRANCH  14  17
HETATM   17  C   UNL     4      -9.712   5.906  73.029  1.00  0.00    -0.155 C  
HETATM   18  C   UNL     4     -10.302   4.725  72.152  1.00  0.00    -0.190 C  
HETATM   19  H   UNL     4      -9.547   4.871  74.731  1.00  0.00     0.000 HD 
HETATM   20  O   UNL     4      -9.852   5.725  74.447  1.00  0.00    -0.182 OA 
HETATM   21  O   UNL     4     -10.400   5.012  70.885  1.00  0.00    -0.230 OA 
HETATM   22  O   UNL     4     -10.701   3.676  72.729  1.00  0.00    -0.144 OA 
ENDBRANCH  14  17
ENDBRANCH  11  14
ENDBRANCH   8  11
ENDBRANCH   3   8
BRANCH   7  23
HETATM   23  C   UNL     5      -5.904  10.242  65.981  1.00  0.00    -0.083 C  
HETATM   24  O   UNL     5      -5.750  11.258  64.988  1.00  0.00    -0.455 OA 
HETATM   25  H   UNL     5      -5.800  12.104  65.418  1.00  0.00     0.000 HD 
BRANCH  23  26
HETATM   26  C   UNL     5      -7.230  10.413  66.753  1.00  0.00    -0.109 C  
HETATM   27  O   UNL     5      -6.943  10.676  68.145  1.00  0.00    -0.071 OA 
HETATM   28  H   UNL     5      -7.760  10.781  68.620  1.00  0.00     0.000 HD 
BRANCH  26  29
HETATM   29  C   UNL     5      -8.258  11.445  66.211  1.00  0.00    -0.088 C  
HETATM   30  O   UNL     5      -7.930  12.791  66.557  1.00  0.00    -0.374 OA 
HETATM   31  H   UNL     5      -8.559  13.422  66.226  1.00  0.00     0.000 HD 
BRANCH  29  32
HETATM   32  C   UNL     5      -9.752  11.158  66.436  1.00  0.00    -0.204 C  
HETATM   33  C   UNL     5     -10.727  12.279  66.020  1.00  0.00    -0.261 C  
HETATM   34  O   UNL     5      -9.996  10.767  67.834  1.00  0.00    -0.169 OA 
HETATM   35  O   UNL     5     -10.411  12.973  65.008  1.00  0.00    -0.307 OA 
HETATM   36  O   UNL     5     -11.724  12.410  66.815  1.00  0.00    -0.393 OA 
HETATM   37  H   UNL     5     -10.918  10.589  67.973  1.00  0.00     0.000 HD 
ENDBRANCH  29  32
ENDBRANCH  26  29
ENDBRANCH  23  26
ENDBRANCH   7  23
TORSDOF 8
ENDMDL
MODEL      341
REMARK 921   NORMALIZED FREE ENERGY PREDICTED BY IDOCK:   -4.25 KCAL/MOL
REMARK 922        TOTAL FREE ENERGY PREDICTED BY IDOCK:   -8.48 KCAL/MOL
REMARK 923 INTER-LIGAND FREE ENERGY PREDICTED BY IDOCK:   -6.96 KCAL/MOL
REMARK 924 INTRA-LIGAND FREE ENERGY PREDICTED BY IDOCK:   -1.52 KCAL/MOL
REMARK 927      BINDING AFFINITY PREDICTED BY RF-SCORE:    0.00 PKD
ROOT
HETATM    1 MG   UNL     3     -10.149   9.569  64.843  1.00  0.00    -0.289 Mg 
HETATM    2  O   UNL     4      -9.431   4.182  67.839  1.00  0.00    -0.155 OA 
HETATM    3  C   UNL     4     -10.063   5.446  67.772  1.00  0.00    -0.171 C  
HETATM    4  H   UNL     4     -10.003   3.468  67.580  1.00  0.00     0.000 HD 
HETATM    5  O   UNL     5      -7.794  16.767  66.208  1.00  0.00    -0.294 OA 
HETATM    6  H   UNL     5      -6.940  16.934  65.827  1.00  0.00     0.000 HD 
HETATM    7  C   UNL     5      -7.808  15.557  66.966  1.00  0.00    -0.225 C  
ENDROOT
BRANCH   3   8
HETATM    8  C   UNL     4      -9.139   6.599  68.190  1.00  0.00    -0.119 C  
HETATM    9  O   UNL     4      -8.183   6.858  67.145  1.00  0.00    -0.115 OA 
HETATM   10  H   UNL     4      -7.611   7.571  67.404  1.00  0.00     0.000 HD 
BRANCH   8  11
HETATM   11  C   UNL     4      -9.773   7.973  68.558  1.00  0.00    -0.159 C  
HETATM   12  O   UNL     4     -11.032   8.196  67.933  1.00  0.00    -0.480 OA 
HETATM   13  H   UNL     4     -11.419   9.034  68.158  1.00  0.00     0.000 HD 
BRANCH  11  14
HETATM   14  C   UNL     4      -9.802   8.384  70.055  1.00  0.00    -0.182 C  
HETATM   15  H   UNL     4      -8.910   7.745  71.670  1.00  0.00     0.000 HD 
HETATM   16  O   UNL     4      -8.892   7.493  70.755  1.00  0.00    -0.145 OA 
BRANCH  14  17
HETATM   17  C   UNL     4     -11.158   8.484  70.810  1.00  0.00    -0.254 C  
HETATM   18  C   UNL     4     -11.891   7.084  70.935  1.00  0.00    -0.356 C  
HETATM   19  H   UNL     4     -12.810   9.609  70.767  1.00  0.00     0.000 HD 
HETATM   20  O   UNL     4     -11.982   9.547  70.306  1.00  0.00    -0.142 OA 
HETATM   21  O   UNL     4     -11.081   6.086  71.146  1.00  0.00    -0.277 OA 
HETATM   22  O   UNL     4     -13.136   7.027  70.740  1.00  0.00    -0.164 OA 
ENDBRANCH  14  17
ENDBRANCH  11  14
ENDBRANCH   8  11
ENDBRANCH   3   8
BRANCH   7  23
HETATM   23  C   UNL     5      -9.195  15.286  67.583  1.00  0.00    -0.187 C  
HETATM   24  O   UNL     5     -10.179  15.943  66.781  1.00  0.00    -0.267 OA 
HETATM   25  H   UNL     5     -11.033  15.776  67.161  1.00  0.00     0.000 HD 
BRANCH  23  26
HETATM   26  C   UNL     5      -9.486  13.774  67.692  1.00  0.00    -0.217 C  
HETATM   27  O   UNL     5      -8.318  13.097  68.211  1.00  0.00    -0.152 OA 
HETATM   28  H   UNL     5      -8.497  12.167  68.278  1.00  0.00     0.000 HD 
BRANCH  26  29
HETATM   29  C   UNL     5     -10.755  13.331  68.472  1.00  0.00    -0.262 C  
HETATM   30  O   UNL     5     -10.532  12.183  69.290  1.00  0.00    -0.432 OA 
HETATM   31  H   UNL     5     -11.308  11.912  69.767  1.00  0.00     0.000 HD 
BRANCH  29  32
HETATM   32  C   UNL     5     -12.074  13.216  67.693  1.00  0.00    -0.232 C  
HETATM   33  C   UNL     5     -12.028  12.364  66.407  1.00  0.00    -0.274 C  
HETATM   34  O   UNL     5     -12.615  14.552  67.396  1.00  0.00    -0.509 OA 
HETATM   35  O   UNL     5     -11.260  11.356  66.409  1.00  0.00    -0.283 OA 
HETATM   36  O   UNL     5     -12.742  12.839  65.453  1.00  0.00    -0.621 OA 
HETATM   37  H   UNL     5     -13.430  14.482  66.914  1.00  0.00     0.000 HD 
ENDBRANCH  29  32
ENDBRANCH  26  29
ENDBRANCH  23  26
ENDBRANCH   7  23
TORSDOF 8
ENDMDL
MODEL      342
REMARK 921   NORMALIZED FREE ENERGY PREDICTED BY IDOCK:   -4.24 KCAL/MOL
REMARK 922        TOTAL FREE ENERGY PREDICTED BY IDOCK:   -8.47 KCAL/MOL
REMARK 923 INTER-LIGAND FREE ENERGY PREDICTED BY IDOCK:   -7.50 KCAL/MOL
REMARK 924 INTRA-LIGAND FREE ENERGY PREDICTED BY IDOCK:   -0.96 KCAL/MOL
REMARK 927      BINDING AFFINITY PREDICTED BY RF-SCORE:    0.00 PKD
ROOT
HETATM    1 MG   UNL     3      -5.628  11.761  65.715  1.00  0.00    -0.190 Mg 
HETATM    2  O   UNL     4      -5.305  17.847  66.885  1.00  0.00    -0.129 OA 
HETATM    3  C   UNL     4      -5.285  16.524  67.384  1.00  0.00    -0.137 C  
HETATM    4  H   UNL     4      -4.442  18.244  66.853  1.00  0.00     0.000 HD 
HETATM    5  O   UNL     5     -11.050   6.414  66.822  1.00  0.00    -0.614 OA 
HETATM    6  H   UNL     5     -11.639   6.354  66.079  1.00  0.00     0.000 HD 
HETATM    7  C   UNL     5     -10.874   7.765  67.249  1.00  0.00    -0.155 C  
ENDROOT
BRANCH   3   8
HETATM    8  C   UNL     4      -6.679  15.882  67.435  1.00  0.00    -0.194 C  
HETATM    9  O   UNL     4      -6.983  15.491  68.787  1.00  0.00    -0.110 OA 
HETATM   10  H   UNL     4      -7.846  15.094  68.818  1.00  0.00     0.000 HD 
BRANCH   8  11
HETATM   11  C   UNL     4      -7.901  16.702  66.927  1.00  0.00    -0.226 C  
HETATM   12  O   UNL     4      -7.723  17.224  65.614  1.00  0.00    -0.393 OA 
HETATM   13  H   UNL     4      -8.469  17.724  65.305  1.00  0.00     0.000 HD 
BRANCH  11  14
HETATM   14  C   UNL     4      -9.316  16.087  67.105  1.00  0.00    -0.211 C  
HETATM   15  H   UNL     4     -10.554  15.135  65.932  1.00  0.00     0.000 HD 
HETATM   16  O   UNL     4      -9.689  15.511  65.823  1.00  0.00    -0.329 OA 
BRANCH  14  17
HETATM   17  C   UNL     4     -10.477  16.953  67.674  1.00  0.00    -0.332 C  
HETATM   18  C   UNL     4     -10.720  18.274  66.834  1.00  0.00    -0.242 C  
HETATM   19  H   UNL     4     -11.064  17.686  69.438  1.00  0.00     0.000 HD 
HETATM   20  O   UNL     4     -10.355  17.158  69.090  1.00  0.00    -0.312 OA 
HETATM   21  O   UNL     4     -10.574  18.113  65.550  1.00  0.00    -0.638 OA 
HETATM   22  O   UNL     4     -10.936  19.356  67.446  1.00  0.00    -0.490 OA 
ENDBRANCH  14  17
ENDBRANCH  11  14
ENDBRANCH   8  11
ENDBRANCH   3   8
BRANCH   7  23
HETATM   23  C   UNL     5      -9.918   7.863  68.455  1.00  0.00    -0.180 C  
HETATM   24  O   UNL     5     -10.347   8.947  69.280  1.00  0.00    -0.205 OA 
HETATM   25  H   UNL     5      -9.758   9.008  70.023  1.00  0.00     0.000 HD 
BRANCH  23  26
HETATM   26  C   UNL     5      -9.868   6.542  69.253  1.00  0.00    -0.148 C  
HETATM   27  O   UNL     5      -8.677   6.522  70.073  1.00  0.00    -0.138 OA 
HETATM   28  H   UNL     5      -8.647   5.709  70.564  1.00  0.00     0.000 HD 
BRANCH  26  29
HETATM   29  C   UNL     5     -11.112   6.158  70.102  1.00  0.00    -0.378 C  
HETATM   30  O   UNL     5     -12.280   6.896  69.742  1.00  0.00    -0.542 OA 
HETATM   31  H   UNL     5     -13.040   6.661  70.261  1.00  0.00     0.000 HD 
BRANCH  29  32
HETATM   32  C   UNL     5     -10.946   6.082  71.628  1.00  0.00    -0.272 C  
HETATM   33  C   UNL     5     -10.772   7.430  72.358  1.00  0.00    -0.253 C  
HETATM   34  O   UNL     5      -9.846   5.169  71.981  1.00  0.00    -0.160 OA 
HETATM   35  O   UNL     5     -11.397   8.427  71.886  1.00  0.00    -0.273 OA 
HETATM   36  O   UNL     5      -9.940   7.380  73.333  1.00  0.00    -0.253 OA 
HETATM   37  H   UNL     5      -9.743   5.122  72.924  1.00  0.00     0.000 HD 
ENDBRANCH  29  32
ENDBRANCH  26  29
ENDBRANCH  23  26
ENDBRANCH   7  23
TORSDOF 8
ENDMDL
MODEL      343
REMARK 921   NORMALIZED FREE ENERGY PREDICTED BY IDOCK:   -4.23 KCAL/MOL
REMARK 922        TOTAL FREE ENERGY PREDICTED BY IDOCK:   -8.45 KCAL/MOL
REMARK 923 INTER-LIGAND FREE ENERGY PREDICTED BY IDOCK:   -6.05 KCAL/MOL
REMARK 924 INTRA-LIGAND FREE ENERGY PREDICTED BY IDOCK:   -2.40 KCAL/MOL
REMARK 927      BINDING AFFINITY PREDICTED BY RF-SCORE:    0.00 PKD
ROOT
HETATM    1 MG   UNL     3      -7.809   9.545  69.511  1.00  0.00    -0.067 Mg 
HETATM    2  O   UNL     4     -11.998  14.053  68.705  1.00  0.00    -0.338 OA 
HETATM    3  C   UNL     4     -11.570  12.926  69.447  1.00  0.00    -0.302 C  
HETATM    4  H   UNL     4     -11.834  14.875  69.153  1.00  0.00     0.000 HD 
HETATM    5  O   UNL     5      -7.822   1.970  68.153  1.00  0.00    -0.057 OA 
HETATM    6  H   UNL     5      -7.526   1.772  67.273  1.00  0.00     0.000 HD 
HETATM    7  C   UNL     5      -8.823   2.988  68.158  1.00  0.00    -0.125 C  
ENDROOT
BRANCH   3   8
HETATM    8  C   UNL     4     -11.835  11.598  68.723  1.00  0.00    -0.325 C  
HETATM    9  O   UNL     4     -11.697  11.785  67.302  1.00  0.00    -0.546 OA 
HETATM   10  H   UNL     4     -11.861  10.963  66.854  1.00  0.00     0.000 HD 
BRANCH   8  11
HETATM   11  C   UNL     4     -10.970  10.358  69.091  1.00  0.00    -0.241 C  
HETATM   12  O   UNL     4      -9.625  10.454  68.632  1.00  0.00    -0.152 OA 
HETATM   13  H   UNL     4      -9.097   9.696  68.857  1.00  0.00     0.000 HD 
BRANCH  11  14
HETATM   14  C   UNL     4     -11.034   9.831  70.550  1.00  0.00    -0.321 C  
HETATM   15  H   UNL     4      -9.776   8.923  71.737  1.00  0.00     0.000 HD 
HETATM   16  O   UNL     4      -9.736   9.245  70.844  1.00  0.00    -0.256 OA 
BRANCH  14  17
HETATM   17  C   UNL     4     -12.178   8.870  70.983  1.00  0.00    -0.203 C  
HETATM   18  C   UNL     4     -13.093   9.485  72.121  1.00  0.00    -0.436 C  
HETATM   19  H   UNL     4     -12.397   6.956  71.516  1.00  0.00     0.000 HD 
HETATM   20  O   UNL     4     -11.699   7.543  71.252  1.00  0.00    -0.273 OA 
HETATM   21  O   UNL     4     -13.308  10.762  71.988  1.00  0.00    -0.447 OA 
HETATM   22  O   UNL     4     -13.454   8.747  73.080  1.00  0.00    -0.270 OA 
ENDBRANCH  14  17
ENDBRANCH  11  14
ENDBRANCH   8  11
ENDBRANCH   3   8
BRANCH   7  23
HETATM   23  C   UNL     5      -9.304   3.311  69.587  1.00  0.00    -0.166 C  
HETATM   24  O   UNL     5      -8.849   2.273  70.458  1.00  0.00    -0.061 OA 
HETATM   25  H   UNL     5      -9.145   2.471  71.338  1.00  0.00     0.000 HD 
BRANCH  23  26
HETATM   26  C   UNL     5      -8.803   4.693  70.060  1.00  0.00    -0.086 C  
HETATM   27  O   UNL     5      -7.541   4.535  70.748  1.00  0.00    -0.051 OA 
HETATM   28  H   UNL     5      -7.232   5.386  71.039  1.00  0.00     0.000 HD 
BRANCH  26  29
HETATM   29  C   UNL     5      -8.703   5.830  69.006  1.00  0.00    -0.112 C  
HETATM   30  O   UNL     5      -8.218   7.055  69.555  1.00  0.00    -0.128 OA 
HETATM   31  H   UNL     5      -8.157   7.751  68.910  1.00  0.00     0.000 HD 
BRANCH  29  32
HETATM   32  C   UNL     5      -9.912   6.068  68.088  1.00  0.00    -0.147 C  
HETATM   33  C   UNL     5      -9.789   7.245  67.097  1.00  0.00    -0.185 C  
HETATM   34  O   UNL     5     -11.144   6.201  68.884  1.00  0.00    -0.349 OA 
HETATM   35  O   UNL     5      -8.639   7.482  66.622  1.00  0.00    -0.120 OA 
HETATM   36  O   UNL     5     -10.885   7.890  66.933  1.00  0.00    -0.288 OA 
HETATM   37  H   UNL     5     -11.891   6.348  68.317  1.00  0.00     0.000 HD 
ENDBRANCH  29  32
ENDBRANCH  26  29
ENDBRANCH  23  26
ENDBRANCH   7  23
TORSDOF 8
ENDMDL
MODEL      344
REMARK 921   NORMALIZED FREE ENERGY PREDICTED BY IDOCK:   -4.23 KCAL/MOL
REMARK 922        TOTAL FREE ENERGY PREDICTED BY IDOCK:   -8.45 KCAL/MOL
REMARK 923 INTER-LIGAND FREE ENERGY PREDICTED BY IDOCK:   -7.24 KCAL/MOL
REMARK 924 INTRA-LIGAND FREE ENERGY PREDICTED BY IDOCK:   -1.21 KCAL/MOL
REMARK 927      BINDING AFFINITY PREDICTED BY RF-SCORE:    0.00 PKD
ROOT
HETATM    1 MG   UNL     3     -10.508  10.373  69.722  1.00  0.00    -0.182 Mg 
HETATM    2  O   UNL     4     -12.249  16.194  70.988  1.00  0.00    -0.543 OA 
HETATM    3  C   UNL     4     -12.359  15.061  70.148  1.00  0.00    -0.333 C  
HETATM    4  H   UNL     4     -12.997  16.302  71.564  1.00  0.00     0.000 HD 
HETATM    5  O   UNL     5      -5.918   7.234  64.404  1.00  0.00    -0.036 OA 
HETATM    6  H   UNL     5      -5.016   7.194  64.699  1.00  0.00     0.000 HD 
HETATM    7  C   UNL     5      -6.482   8.530  64.600  1.00  0.00    -0.066 C  
ENDROOT
BRANCH   3   8
HETATM    8  C   UNL     4     -11.150  14.887  69.217  1.00  0.00    -0.271 C  
HETATM    9  O   UNL     4      -9.938  14.873  69.994  1.00  0.00    -0.465 OA 
HETATM   10  H   UNL     4      -9.190  14.766  69.418  1.00  0.00     0.000 HD 
BRANCH   8  11
HETATM   11  C   UNL     4     -11.092  13.640  68.287  1.00  0.00    -0.256 C  
HETATM   12  O   UNL     4     -11.736  12.497  68.839  1.00  0.00    -0.287 OA 
HETATM   13  H   UNL     4     -11.701  11.736  68.272  1.00  0.00     0.000 HD 
BRANCH  11  14
HETATM   14  C   UNL     4     -11.458  13.829  66.790  1.00  0.00    -0.348 C  
HETATM   15  H   UNL     4     -12.993  14.573  65.838  1.00  0.00     0.000 HD 
HETATM   16  O   UNL     4     -12.769  14.457  66.754  1.00  0.00    -0.070 OA 
BRANCH  14  17
HETATM   17  C   UNL     4     -11.405  12.618  65.815  1.00  0.00    -0.333 C  
HETATM   18  C   UNL     4     -12.208  12.879  64.475  1.00  0.00    -0.426 C  
HETATM   19  H   UNL     4     -11.687  10.641  65.876  1.00  0.00     0.000 HD 
HETATM   20  O   UNL     4     -11.720  11.380  66.471  1.00  0.00    -0.388 OA 
HETATM   21  O   UNL     4     -12.106  14.099  64.031  1.00  0.00    -0.456 OA 
HETATM   22  O   UNL     4     -12.930  11.955  64.006  1.00  0.00    -0.532 OA 
ENDBRANCH  14  17
ENDBRANCH  11  14
ENDBRANCH   8  11
ENDBRANCH   3   8
BRANCH   7  23
HETATM   23  C   UNL     5      -7.946   8.594  64.121  1.00  0.00    -0.149 C  
HETATM   24  O   UNL     5      -8.573   7.347  64.428  1.00  0.00    -0.362 OA 
HETATM   25  H   UNL     5      -9.475   7.387  64.133  1.00  0.00     0.000 HD 
BRANCH  23  26
HETATM   26  C   UNL     5      -8.707   9.773  64.765  1.00  0.00    -0.192 C  
HETATM   27  O   UNL     5     -10.068   9.788  64.279  1.00  0.00    -0.407 OA 
HETATM   28  H   UNL     5     -10.536  10.514  64.676  1.00  0.00     0.000 HD 
BRANCH  26  29
HETATM   29  C   UNL     5      -8.688   9.892  66.315  1.00  0.00    -0.139 C  
HETATM   30  O   UNL     5      -7.408  10.262  66.828  1.00  0.00    -0.100 OA 
HETATM   31  H   UNL     5      -7.396  10.334  67.775  1.00  0.00     0.000 HD 
BRANCH  29  32
HETATM   32  C   UNL     5      -9.308   8.746  67.131  1.00  0.00    -0.150 C  
HETATM   33  C   UNL     5      -8.334   7.647  67.603  1.00  0.00    -0.118 C  
HETATM   34  O   UNL     5     -10.435   8.145  66.399  1.00  0.00    -0.432 OA 
HETATM   35  O   UNL     5      -7.157   8.008  67.903  1.00  0.00    -0.082 OA 
HETATM   36  O   UNL     5      -8.837   6.468  67.564  1.00  0.00    -0.114 OA 
HETATM   37  H   UNL     5     -10.819   7.438  66.903  1.00  0.00     0.000 HD 
ENDBRANCH  29  32
ENDBRANCH  26  29
ENDBRANCH  23  26
ENDBRANCH   7  23
TORSDOF 8
ENDMDL
MODEL      345
REMARK 921   NORMALIZED FREE ENERGY PREDICTED BY IDOCK:   -4.22 KCAL/MOL
REMARK 922        TOTAL FREE ENERGY PREDICTED BY IDOCK:   -8.44 KCAL/MOL
REMARK 923 INTER-LIGAND FREE ENERGY PREDICTED BY IDOCK:   -7.40 KCAL/MOL
REMARK 924 INTRA-LIGAND FREE ENERGY PREDICTED BY IDOCK:   -1.04 KCAL/MOL
REMARK 927      BINDING AFFINITY PREDICTED BY RF-SCORE:    0.00 PKD
ROOT
HETATM    1 MG   UNL     3      -7.674  10.136  70.932  1.00  0.00    -0.151 Mg 
HETATM    2  O   UNL     4      -8.931   4.114  70.113  1.00  0.00    -0.077 OA 
HETATM    3  C   UNL     4      -8.792   5.402  69.545  1.00  0.00    -0.105 C  
HETATM    4  H   UNL     4      -8.194   3.544  69.924  1.00  0.00     0.000 HD 
HETATM    5  O   UNL     5     -11.998  16.500  71.067  1.00  0.00    -0.511 OA 
HETATM    6  H   UNL     5     -12.321  16.686  71.940  1.00  0.00     0.000 HD 
HETATM    7  C   UNL     5     -12.228  15.141  70.695  1.00  0.00    -0.351 C  
ENDROOT
BRANCH   3   8
HETATM    8  C   UNL     4      -9.983   6.322  69.850  1.00  0.00    -0.169 C  
HETATM    9  O   UNL     4     -10.833   5.704  70.835  1.00  0.00    -0.265 OA 
HETATM   10  H   UNL     4     -11.570   6.273  71.023  1.00  0.00     0.000 HD 
BRANCH   8  11
HETATM   11  C   UNL     4      -9.704   7.768  70.355  1.00  0.00    -0.179 C  
HETATM   12  O   UNL     4      -8.363   8.192  70.133  1.00  0.00    -0.120 OA 
HETATM   13  H   UNL     4      -8.193   9.075  70.441  1.00  0.00     0.000 HD 
BRANCH  11  14
HETATM   14  C   UNL     4     -10.720   8.880  69.979  1.00  0.00    -0.228 C  
HETATM   15  H   UNL     4     -10.574  10.777  69.534  1.00  0.00     0.000 HD 
HETATM   16  O   UNL     4      -9.953  10.097  69.764  1.00  0.00    -0.231 OA 
BRANCH  14  17
HETATM   17  C   UNL     4     -11.944   9.161  70.897  1.00  0.00    -0.242 C  
HETATM   18  C   UNL     4     -12.573  10.595  70.652  1.00  0.00    -0.365 C  
HETATM   19  H   UNL     4     -12.418   9.026  72.834  1.00  0.00     0.000 HD 
HETATM   20  O   UNL     4     -11.671   8.855  72.273  1.00  0.00    -0.354 OA 
HETATM   21  O   UNL     4     -12.579  10.959  69.402  1.00  0.00    -0.335 OA 
HETATM   22  O   UNL     4     -12.922  11.287  71.649  1.00  0.00    -0.448 OA 
ENDBRANCH  14  17
ENDBRANCH  11  14
ENDBRANCH   8  11
ENDBRANCH   3   8
BRANCH   7  23
HETATM   23  C   UNL     5     -11.703  14.840  69.276  1.00  0.00    -0.316 C  
HETATM   24  O   UNL     5     -12.454  15.622  68.346  1.00  0.00    -0.327 OA 
HETATM   25  H   UNL     5     -12.131  15.437  67.472  1.00  0.00     0.000 HD 
BRANCH  23  26
HETATM   26  C   UNL     5     -10.191  15.128  69.153  1.00  0.00    -0.249 C  
HETATM   27  O   UNL     5      -9.474  13.878  69.028  1.00  0.00    -0.404 OA 
HETATM   28  H   UNL     5      -8.544  14.056  68.952  1.00  0.00     0.000 HD 
BRANCH  26  29
HETATM   29  C   UNL     5      -9.728  16.127  68.057  1.00  0.00    -0.229 C  
HETATM   30  O   UNL     5      -8.854  15.533  67.097  1.00  0.00    -0.189 OA 
HETATM   31  H   UNL     5      -8.571  16.144  66.426  1.00  0.00     0.000 HD 
BRANCH  29  32
HETATM   32  C   UNL     5      -9.210  17.502  68.510  1.00  0.00    -0.278 C  
HETATM   33  C   UNL     5      -9.702  18.713  67.690  1.00  0.00    -0.303 C  
HETATM   34  O   UNL     5      -7.739  17.500  68.580  1.00  0.00    -0.252 OA 
HETATM   35  O   UNL     5     -10.878  18.656  67.224  1.00  0.00    -0.426 OA 
HETATM   36  O   UNL     5      -8.806  19.616  67.525  1.00  0.00    -0.295 OA 
HETATM   37  H   UNL     5      -7.419  18.349  68.859  1.00  0.00     0.000 HD 
ENDBRANCH  29  32
ENDBRANCH  26  29
ENDBRANCH  23  26
ENDBRANCH   7  23
TORSDOF 8
ENDMDL
MODEL      346
REMARK 921   NORMALIZED FREE ENERGY PREDICTED BY IDOCK:   -4.22 KCAL/MOL
REMARK 922        TOTAL FREE ENERGY PREDICTED BY IDOCK:   -8.43 KCAL/MOL
REMARK 923 INTER-LIGAND FREE ENERGY PREDICTED BY IDOCK:   -6.82 KCAL/MOL
REMARK 924 INTRA-LIGAND FREE ENERGY PREDICTED BY IDOCK:   -1.61 KCAL/MOL
REMARK 927      BINDING AFFINITY PREDICTED BY RF-SCORE:    0.00 PKD
ROOT
HETATM    1 MG   UNL     3     -10.402  11.865  69.379  1.00  0.00    -0.264 Mg 
HETATM    2  O   UNL     4      -9.224  12.116  63.290  1.00  0.00    -0.653 OA 
HETATM    3  C   UNL     4     -10.108  11.745  64.330  1.00  0.00    -0.282 C  
HETATM    4  H   UNL     4      -9.500  12.902  62.833  1.00  0.00     0.000 HD 
HETATM    5  O   UNL     5     -10.423   6.176  74.560  1.00  0.00    -0.325 OA 
HETATM    6  H   UNL     5      -9.567   6.059  74.955  1.00  0.00     0.000 HD 
HETATM    7  C   UNL     5     -10.345   6.233  73.136  1.00  0.00    -0.222 C  
ENDROOT
BRANCH   3   8
HETATM    8  C   UNL     4      -9.662  10.475  65.070  1.00  0.00    -0.292 C  
HETATM    9  O   UNL     4      -9.576   9.379  64.140  1.00  0.00    -0.344 OA 
HETATM   10  H   UNL     4      -9.300   8.593  64.598  1.00  0.00     0.000 HD 
BRANCH   8  11
HETATM   11  C   UNL     4      -8.317  10.496  65.853  1.00  0.00    -0.161 C  
HETATM   12  O   UNL     4      -7.262  11.134  65.142  1.00  0.00    -0.264 OA 
HETATM   13  H   UNL     4      -6.441  11.147  65.620  1.00  0.00     0.000 HD 
BRANCH  11  14
HETATM   14  C   UNL     4      -8.348  10.940  67.340  1.00  0.00    -0.117 C  
HETATM   15  H   UNL     4      -9.698  10.914  68.752  1.00  0.00     0.000 HD 
HETATM   16  O   UNL     4      -9.679  10.642  67.842  1.00  0.00    -0.158 OA 
BRANCH  14  17
HETATM   17  C   UNL     4      -7.928  12.386  67.731  1.00  0.00    -0.156 C  
HETATM   18  C   UNL     4      -8.979  13.475  67.261  1.00  0.00    -0.222 C  
HETATM   19  H   UNL     4      -6.311  13.555  67.607  1.00  0.00     0.000 HD 
HETATM   20  O   UNL     4      -6.568  12.672  67.368  1.00  0.00    -0.146 OA 
HETATM   21  O   UNL     4     -10.218  13.087  67.367  1.00  0.00    -0.228 OA 
HETATM   22  O   UNL     4      -8.558  14.552  66.755  1.00  0.00    -0.210 OA 
ENDBRANCH  14  17
ENDBRANCH  11  14
ENDBRANCH   8  11
ENDBRANCH   3   8
BRANCH   7  23
HETATM   23  C   UNL     5     -11.734   6.423  72.494  1.00  0.00    -0.184 C  
HETATM   24  O   UNL     5     -12.276   7.661  72.958  1.00  0.00    -0.499 OA 
HETATM   25  H   UNL     5     -13.132   7.778  72.563  1.00  0.00     0.000 HD 
BRANCH  23  26
HETATM   26  C   UNL     5     -11.661   6.390  70.952  1.00  0.00    -0.331 C  
HETATM   27  O   UNL     5     -12.763   7.149  70.404  1.00  0.00    -0.591 OA 
HETATM   28  H   UNL     5     -12.717   7.129  69.455  1.00  0.00     0.000 HD 
BRANCH  26  29
HETATM   29  C   UNL     5     -10.326   6.816  70.278  1.00  0.00    -0.198 C  
HETATM   30  O   UNL     5     -10.212   8.229  70.114  1.00  0.00    -0.193 OA 
HETATM   31  H   UNL     5      -9.396   8.489  69.703  1.00  0.00     0.000 HD 
BRANCH  29  32
HETATM   32  C   UNL     5      -9.892   6.068  69.007  1.00  0.00    -0.148 C  
HETATM   33  C   UNL     5      -8.547   6.506  68.390  1.00  0.00    -0.119 C  
HETATM   34  O   UNL     5     -10.957   6.120  67.991  1.00  0.00    -0.312 OA 
HETATM   35  O   UNL     5      -7.638   6.874  69.191  1.00  0.00    -0.093 OA 
HETATM   36  O   UNL     5      -8.549   6.504  67.108  1.00  0.00    -0.112 OA 
HETATM   37  H   UNL     5     -10.689   5.658  67.206  1.00  0.00     0.000 HD 
ENDBRANCH  29  32
ENDBRANCH  26  29
ENDBRANCH  23  26
ENDBRANCH   7  23
TORSDOF 8
ENDMDL
MODEL      347
REMARK 921   NORMALIZED FREE ENERGY PREDICTED BY IDOCK:   -4.21 KCAL/MOL
REMARK 922        TOTAL FREE ENERGY PREDICTED BY IDOCK:   -8.42 KCAL/MOL
REMARK 923 INTER-LIGAND FREE ENERGY PREDICTED BY IDOCK:   -6.44 KCAL/MOL
REMARK 924 INTRA-LIGAND FREE ENERGY PREDICTED BY IDOCK:   -1.99 KCAL/MOL
REMARK 927      BINDING AFFINITY PREDICTED BY RF-SCORE:    0.00 PKD
ROOT
HETATM    1 MG   UNL     3     -11.831  10.150  70.183  1.00  0.00    -0.224 Mg 
HETATM    2  O   UNL     4     -13.469  15.838  72.050  1.00  0.00    -0.466 OA 
HETATM    3  C   UNL     4     -13.366  14.901  70.995  1.00  0.00    -0.393 C  
HETATM    4  H   UNL     4     -14.359  15.946  72.365  1.00  0.00     0.000 HD 
HETATM    5  O   UNL     5      -5.937   7.395  66.075  1.00  0.00    -0.036 OA 
HETATM    6  H   UNL     5      -5.196   7.176  66.628  1.00  0.00     0.000 HD 
HETATM    7  C   UNL     5      -6.438   8.702  66.355  1.00  0.00    -0.062 C  
ENDROOT
BRANCH   3   8
HETATM    8  C   UNL     4     -11.927  14.727  70.488  1.00  0.00    -0.312 C  
HETATM    9  O   UNL     4     -11.001  15.172  71.496  1.00  0.00    -0.547 OA 
HETATM   10  H   UNL     4     -10.111  15.065  71.182  1.00  0.00     0.000 HD 
BRANCH   8  11
HETATM   11  C   UNL     4     -11.453  13.311  70.047  1.00  0.00    -0.035 C  
HETATM   12  O   UNL     4     -12.103  12.257  70.749  1.00  0.00    -0.447 OA 
HETATM   13  H   UNL     4     -11.813  11.393  70.480  1.00  0.00     0.000 HD 
BRANCH  11  14
HETATM   14  C   UNL     4     -11.370  13.011  68.526  1.00  0.00    -0.288 C  
HETATM   15  H   UNL     4     -11.757  11.454  67.412  1.00  0.00     0.000 HD 
HETATM   16  O   UNL     4     -11.808  11.637  68.343  1.00  0.00    -0.398 OA 
BRANCH  14  17
HETATM   17  C   UNL     4     -10.046  13.270  67.752  1.00  0.00    -0.229 C  
HETATM   18  C   UNL     4     -10.249  14.213  66.494  1.00  0.00    -0.278 C  
HETATM   19  H   UNL     4      -8.522  12.213  67.006  1.00  0.00     0.000 HD 
HETATM   20  O   UNL     4      -9.331  12.055  67.479  1.00  0.00    -0.172 OA 
HETATM   21  O   UNL     4     -11.106  15.174  66.692  1.00  0.00    -0.328 OA 
HETATM   22  O   UNL     4      -9.664  13.924  65.414  1.00  0.00    -0.200 OA 
ENDBRANCH  14  17
ENDBRANCH  11  14
ENDBRANCH   8  11
ENDBRANCH   3   8
BRANCH   7  23
HETATM   23  C   UNL     5      -7.639   9.058  65.457  1.00  0.00    -0.090 C  
HETATM   24  O   UNL     5      -7.157   9.281  64.130  1.00  0.00    -0.094 OA 
HETATM   25  H   UNL     5      -7.897   9.501  63.577  1.00  0.00     0.000 HD 
BRANCH  23  26
HETATM   26  C   UNL     5      -8.716   7.951  65.478  1.00  0.00    -0.081 C  
HETATM   27  O   UNL     5      -8.390   6.946  64.491  1.00  0.00    -0.308 OA 
HETATM   28  H   UNL     5      -9.052   6.265  64.504  1.00  0.00     0.000 HD 
BRANCH  26  29
HETATM   29  C   UNL     5      -9.043   7.280  66.841  1.00  0.00    -0.141 C  
HETATM   30  O   UNL     5      -9.614   5.980  66.698  1.00  0.00    -0.147 OA 
HETATM   31  H   UNL     5      -9.814   5.570  67.532  1.00  0.00     0.000 HD 
BRANCH  29  32
HETATM   32  C   UNL     5      -9.799   8.112  67.889  1.00  0.00    -0.169 C  
HETATM   33  C   UNL     5      -9.947   7.471  69.285  1.00  0.00    -0.179 C  
HETATM   34  O   UNL     5     -11.119   8.513  67.373  1.00  0.00    -0.435 OA 
HETATM   35  O   UNL     5      -8.990   6.748  69.692  1.00  0.00    -0.142 OA 
HETATM   36  O   UNL     5     -11.081   7.704  69.837  1.00  0.00    -0.237 OA 
HETATM   37  H   UNL     5     -11.586   9.027  68.020  1.00  0.00     0.000 HD 
ENDBRANCH  29  32
ENDBRANCH  26  29
ENDBRANCH  23  26
ENDBRANCH   7  23
TORSDOF 8
ENDMDL
MODEL      348
REMARK 921   NORMALIZED FREE ENERGY PREDICTED BY IDOCK:   -4.20 KCAL/MOL
REMARK 922        TOTAL FREE ENERGY PREDICTED BY IDOCK:   -8.41 KCAL/MOL
REMARK 923 INTER-LIGAND FREE ENERGY PREDICTED BY IDOCK:   -7.59 KCAL/MOL
REMARK 924 INTRA-LIGAND FREE ENERGY PREDICTED BY IDOCK:   -0.82 KCAL/MOL
REMARK 927      BINDING AFFINITY PREDICTED BY RF-SCORE:    0.00 PKD
ROOT
HETATM    1 MG   UNL     3     -10.655   9.915  66.659  1.00  0.00    -0.204 Mg 
HETATM    2  O   UNL     4     -10.046   4.898  70.262  1.00  0.00    -0.235 OA 
HETATM    3  C   UNL     4     -10.833   6.003  69.862  1.00  0.00    -0.363 C  
HETATM    4  H   UNL     4     -10.356   4.074  69.905  1.00  0.00     0.000 HD 
HETATM    5  O   UNL     5     -10.243  17.485  67.973  1.00  0.00    -0.316 OA 
HETATM    6  H   UNL     5      -9.355  17.810  67.878  1.00  0.00     0.000 HD 
HETATM    7  C   UNL     5     -10.297  16.327  68.804  1.00  0.00    -0.261 C  
ENDROOT
BRANCH   3   8
HETATM    8  C   UNL     4     -10.331   7.335  70.439  1.00  0.00    -0.208 C  
HETATM    9  O   UNL     4     -11.000   8.429  69.784  1.00  0.00    -0.349 OA 
HETATM   10  H   UNL     4     -10.689   9.253  70.141  1.00  0.00     0.000 HD 
BRANCH   8  11
HETATM   11  C   UNL     4     -10.466   7.588  71.969  1.00  0.00    -0.208 C  
HETATM   12  O   UNL     4     -11.558   6.891  72.560  1.00  0.00    -0.363 OA 
HETATM   13  H   UNL     4     -11.640   7.046  73.494  1.00  0.00     0.000 HD 
BRANCH  11  14
HETATM   14  C   UNL     4      -9.186   7.481  72.842  1.00  0.00    -0.168 C  
HETATM   15  H   UNL     4      -8.829   6.985  74.697  1.00  0.00     0.000 HD 
HETATM   16  O   UNL     4      -9.613   7.051  74.164  1.00  0.00    -0.242 OA 
BRANCH  14  17
HETATM   17  C   UNL     4      -8.211   8.688  72.947  1.00  0.00     0.081 C  
HETATM   18  C   UNL     4      -7.166   8.734  71.757  1.00  0.00    -0.048 C  
HETATM   19  H   UNL     4      -7.036   9.540  74.321  1.00  0.00     0.000 HD 
HETATM   20  O   UNL     4      -7.631   8.802  74.256  1.00  0.00    -0.418 OA 
HETATM   21  O   UNL     4      -7.665   8.377  70.608  1.00  0.00    -0.073 OA 
HETATM   22  O   UNL     4      -5.962   9.010  72.011  1.00  0.00    -0.077 OA 
ENDBRANCH  14  17
ENDBRANCH  11  14
ENDBRANCH   8  11
ENDBRANCH   3   8
BRANCH   7  23
HETATM   23  C   UNL     5     -11.739  15.800  68.958  1.00  0.00    -0.396 C  
HETATM   24  O   UNL     5     -11.943  14.766  67.994  1.00  0.00    -0.492 OA 
HETATM   25  H   UNL     5     -12.831  14.442  68.089  1.00  0.00     0.000 HD 
BRANCH  23  26
HETATM   26  C   UNL     5     -12.010  15.289  70.390  1.00  0.00    -0.335 C  
HETATM   27  O   UNL     5     -12.285  16.413  71.256  1.00  0.00    -0.550 OA 
HETATM   28  H   UNL     5     -12.452  16.099  72.137  1.00  0.00     0.000 HD 
BRANCH  26  29
HETATM   29  C   UNL     5     -13.091  14.188  70.576  1.00  0.00    -0.074 C  
HETATM   30  O   UNL     5     -14.320  14.698  71.093  1.00  0.00    -0.518 OA 
HETATM   31  H   UNL     5     -14.981  14.025  71.207  1.00  0.00     0.000 HD 
BRANCH  29  32
HETATM   32  C   UNL     5     -12.680  12.890  71.289  1.00  0.00    -0.278 C  
HETATM   33  C   UNL     5     -12.424  11.670  70.379  1.00  0.00    -0.221 C  
HETATM   34  O   UNL     5     -13.656  12.546  72.335  1.00  0.00    -0.600 OA 
HETATM   35  O   UNL     5     -11.921  11.896  69.238  1.00  0.00    -0.305 OA 
HETATM   36  O   UNL     5     -12.829  10.563  70.883  1.00  0.00    -0.363 OA 
HETATM   37  H   UNL     5     -13.403  11.744  72.776  1.00  0.00     0.000 HD 
ENDBRANCH  29  32
ENDBRANCH  26  29
ENDBRANCH  23  26
ENDBRANCH   7  23
TORSDOF 8
ENDMDL
MODEL      349
REMARK 921   NORMALIZED FREE ENERGY PREDICTED BY IDOCK:   -4.19 KCAL/MOL
REMARK 922        TOTAL FREE ENERGY PREDICTED BY IDOCK:   -8.39 KCAL/MOL
REMARK 923 INTER-LIGAND FREE ENERGY PREDICTED BY IDOCK:   -6.49 KCAL/MOL
REMARK 924 INTRA-LIGAND FREE ENERGY PREDICTED BY IDOCK:   -1.90 KCAL/MOL
REMARK 927      BINDING AFFINITY PREDICTED BY RF-SCORE:    0.00 PKD
ROOT
HETATM    1 MG   UNL     3      -5.716   8.204  67.438  1.00  0.00    -0.030 Mg 
HETATM    2  O   UNL     4      -5.874   5.557  73.049  1.00  0.00    -0.023 OA 
HETATM    3  C   UNL     4      -6.423   5.653  71.749  1.00  0.00    -0.049 C  
HETATM    4  H   UNL     4      -5.344   4.777  73.170  1.00  0.00     0.000 HD 
HETATM    5  O   UNL     5     -10.115  13.433  63.900  1.00  0.00    -0.734 OA 
HETATM    6  H   UNL     5      -9.815  14.317  64.072  1.00  0.00     0.000 HD 
HETATM    7  C   UNL     5     -10.235  12.672  65.102  1.00  0.00    -0.280 C  
ENDROOT
BRANCH   3   8
HETATM    8  C   UNL     4      -7.280   6.912  71.553  1.00  0.00    -0.079 C  
HETATM    9  O   UNL     4      -6.614   7.816  70.651  1.00  0.00    -0.038 OA 
HETATM   10  H   UNL     4      -7.145   8.595  70.530  1.00  0.00     0.000 HD 
BRANCH   8  11
HETATM   11  C   UNL     4      -8.736   6.754  71.025  1.00  0.00    -0.137 C  
HETATM   12  O   UNL     4      -8.924   5.584  70.236  1.00  0.00    -0.133 OA 
HETATM   13  H   UNL     4      -9.813   5.488  69.914  1.00  0.00     0.000 HD 
BRANCH  11  14
HETATM   14  C   UNL     4      -9.901   6.953  72.032  1.00  0.00    -0.162 C  
HETATM   15  H   UNL     4     -10.115   6.679  73.954  1.00  0.00     0.000 HD 
HETATM   16  O   UNL     4      -9.401   6.557  73.338  1.00  0.00    -0.131 OA 
BRANCH  14  17
HETATM   17  C   UNL     4     -11.288   6.303  71.757  1.00  0.00    -0.294 C  
HETATM   18  C   UNL     4     -12.411   7.375  71.436  1.00  0.00    -0.361 C  
HETATM   19  H   UNL     4     -12.493   4.948  72.598  1.00  0.00     0.000 HD 
HETATM   20  O   UNL     4     -11.646   5.345  72.765  1.00  0.00    -0.307 OA 
HETATM   21  O   UNL     4     -11.989   8.377  70.720  1.00  0.00    -0.236 OA 
HETATM   22  O   UNL     4     -13.554   7.234  71.951  1.00  0.00    -0.305 OA 
ENDBRANCH  14  17
ENDBRANCH  11  14
ENDBRANCH   8  11
ENDBRANCH   3   8
BRANCH   7  23
HETATM   23  C   UNL     5     -10.723  11.236  64.824  1.00  0.00    -0.285 C  
HETATM   24  O   UNL     5     -11.397  11.228  63.564  1.00  0.00    -0.647 OA 
HETATM   25  H   UNL     5     -11.698  10.344  63.392  1.00  0.00     0.000 HD 
BRANCH  23  26
HETATM   26  C   UNL     5      -9.557  10.224  64.837  1.00  0.00    -0.304 C  
HETATM   27  O   UNL     5      -8.320  10.914  64.546  1.00  0.00    -0.367 OA 
HETATM   28  H   UNL     5      -7.603  10.291  64.554  1.00  0.00     0.000 HD 
BRANCH  26  29
HETATM   29  C   UNL     5      -9.389   9.324  66.093  1.00  0.00    -0.212 C  
HETATM   30  O   UNL     5     -10.042   8.062  65.964  1.00  0.00    -0.440 OA 
HETATM   31  H   UNL     5      -9.939   7.512  66.732  1.00  0.00     0.000 HD 
BRANCH  29  32
HETATM   32  C   UNL     5      -9.655   9.955  67.469  1.00  0.00    -0.157 C  
HETATM   33  C   UNL     5      -8.457   9.987  68.442  1.00  0.00    -0.112 C  
HETATM   34  O   UNL     5     -10.814   9.314  68.113  1.00  0.00    -0.412 OA 
HETATM   35  O   UNL     5      -7.307  10.150  67.937  1.00  0.00    -0.086 OA 
HETATM   36  O   UNL     5      -8.785   9.769  69.663  1.00  0.00    -0.167 OA 
HETATM   37  H   UNL     5     -10.978   9.703  68.963  1.00  0.00     0.000 HD 
ENDBRANCH  29  32
ENDBRANCH  26  29
ENDBRANCH  23  26
ENDBRANCH   7  23
TORSDOF 8
ENDMDL
MODEL      350
REMARK 921   NORMALIZED FREE ENERGY PREDICTED BY IDOCK:   -4.18 KCAL/MOL
REMARK 922        TOTAL FREE ENERGY PREDICTED BY IDOCK:   -8.38 KCAL/MOL
REMARK 923 INTER-LIGAND FREE ENERGY PREDICTED BY IDOCK:   -6.81 KCAL/MOL
REMARK 924 INTRA-LIGAND FREE ENERGY PREDICTED BY IDOCK:   -1.57 KCAL/MOL
REMARK 927      BINDING AFFINITY PREDICTED BY RF-SCORE:    0.00 PKD
ROOT
HETATM    1 MG   UNL     3      -7.387  12.266  70.398  1.00  0.00    -0.275 Mg 
HETATM    2  O   UNL     4      -7.255   7.170  73.938  1.00  0.00    -0.086 OA 
HETATM    3  C   UNL     4      -7.063   7.756  72.664  1.00  0.00    -0.080 C  
HETATM    4  H   UNL     4      -6.439   6.980  74.385  1.00  0.00     0.000 HD 
HETATM    5  O   UNL     5     -12.177  14.833  64.950  1.00  0.00    -0.375 OA 
HETATM    6  H   UNL     5     -12.882  15.352  65.320  1.00  0.00     0.000 HD 
HETATM    7  C   UNL     5     -12.016  13.593  65.638  1.00  0.00    -0.395 C  
ENDROOT
BRANCH   3   8
HETATM    8  C   UNL     4      -8.383   8.063  71.942  1.00  0.00    -0.131 C  
HETATM    9  O   UNL     4      -9.311   8.666  72.863  1.00  0.00    -0.241 OA 
HETATM   10  H   UNL     4     -10.128   8.855  72.416  1.00  0.00     0.000 HD 
BRANCH   8  11
HETATM   11  C   UNL     4      -8.354   8.978  70.683  1.00  0.00    -0.186 C  
HETATM   12  O   UNL     4      -7.176   9.772  70.591  1.00  0.00    -0.211 OA 
HETATM   13  H   UNL     4      -7.158  10.330  69.823  1.00  0.00     0.000 HD 
BRANCH  11  14
HETATM   14  C   UNL     4      -8.718   8.344  69.313  1.00  0.00    -0.138 C  
HETATM   15  H   UNL     4      -8.262   8.740  67.455  1.00  0.00     0.000 HD 
HETATM   16  O   UNL     4      -8.039   9.127  68.293  1.00  0.00    -0.103 OA 
BRANCH  14  17
HETATM   17  C   UNL     4     -10.209   8.120  68.928  1.00  0.00    -0.210 C  
HETATM   18  C   UNL     4     -10.537   6.602  68.616  1.00  0.00    -0.234 C  
HETATM   19  H   UNL     4     -11.565   8.911  67.691  1.00  0.00     0.000 HD 
HETATM   20  O   UNL     4     -10.654   9.047  67.926  1.00  0.00    -0.234 OA 
HETATM   21  O   UNL     4      -9.913   5.761  69.391  1.00  0.00    -0.161 OA 
HETATM   22  O   UNL     4     -11.270   6.326  67.627  1.00  0.00    -0.327 OA 
ENDBRANCH  14  17
ENDBRANCH  11  14
ENDBRANCH   8  11
ENDBRANCH   3   8
BRANCH   7  23
HETATM   23  C   UNL     5     -10.871  12.752  65.038  1.00  0.00    -0.292 C  
HETATM   24  O   UNL     5      -9.935  13.640  64.426  1.00  0.00    -0.687 OA 
HETATM   25  H   UNL     5      -9.230  13.122  64.057  1.00  0.00     0.000 HD 
BRANCH  23  26
HETATM   26  C   UNL     5     -10.187  11.873  66.108  1.00  0.00    -0.226 C  
HETATM   27  O   UNL     5      -8.867  11.501  65.650  1.00  0.00    -0.360 OA 
HETATM   28  H   UNL     5      -8.446  10.960  66.309  1.00  0.00     0.000 HD 
BRANCH  26  29
HETATM   29  C   UNL     5     -10.119  12.417  67.562  1.00  0.00    -0.202 C  
HETATM   30  O   UNL     5      -9.189  11.707  68.378  1.00  0.00    -0.182 OA 
HETATM   31  H   UNL     5      -9.147  12.040  69.268  1.00  0.00     0.000 HD 
BRANCH  29  32
HETATM   32  C   UNL     5     -11.445  12.657  68.303  1.00  0.00    -0.313 C  
HETATM   33  C   UNL     5     -11.482  13.878  69.246  1.00  0.00    -0.297 C  
HETATM   34  O   UNL     5     -11.856  11.444  69.027  1.00  0.00    -0.306 OA 
HETATM   35  O   UNL     5     -10.813  14.896  68.899  1.00  0.00    -0.233 OA 
HETATM   36  O   UNL     5     -12.148  13.672  70.322  1.00  0.00    -0.327 OA 
HETATM   37  H   UNL     5     -12.675  11.591  69.485  1.00  0.00     0.000 HD 
ENDBRANCH  29  32
ENDBRANCH  26  29
ENDBRANCH  23  26
ENDBRANCH   7  23
TORSDOF 8
ENDMDL
MODEL      351
REMARK 921   NORMALIZED FREE ENERGY PREDICTED BY IDOCK:   -4.17 KCAL/MOL
REMARK 922        TOTAL FREE ENERGY PREDICTED BY IDOCK:   -8.36 KCAL/MOL
REMARK 923 INTER-LIGAND FREE ENERGY PREDICTED BY IDOCK:   -6.72 KCAL/MOL
REMARK 924 INTRA-LIGAND FREE ENERGY PREDICTED BY IDOCK:   -1.64 KCAL/MOL
REMARK 927      BINDING AFFINITY PREDICTED BY RF-SCORE:    0.00 PKD
ROOT
HETATM    1 MG   UNL     3     -10.859  13.904  69.670  1.00  0.00    -0.228 Mg 
HETATM    2  O   UNL     4     -12.640  14.796  63.792  1.00  0.00    -0.998 OA 
HETATM    3  C   UNL     4     -12.751  14.036  64.980  1.00  0.00    -0.328 C  
HETATM    4  H   UNL     4     -13.381  15.374  63.652  1.00  0.00     0.000 HD 
HETATM    5  O   UNL     5      -6.311   8.746  73.123  1.00  0.00    -0.217 OA 
HETATM    6  H   UNL     5      -5.405   9.030  73.134  1.00  0.00     0.000 HD 
HETATM    7  C   UNL     5      -6.886   8.861  71.821  1.00  0.00    -0.025 C  
ENDROOT
BRANCH   3   8
HETATM    8  C   UNL     4     -11.553  13.102  65.206  1.00  0.00    -0.321 C  
HETATM    9  O   UNL     4     -11.503  12.117  64.157  1.00  0.00    -0.339 OA 
HETATM   10  H   UNL     4     -10.762  11.538  64.297  1.00  0.00     0.000 HD 
BRANCH   8  11
HETATM   11  C   UNL     4     -10.127  13.719  65.301  1.00  0.00    -0.288 C  
HETATM   12  O   UNL     4      -9.986  14.926  64.558  1.00  0.00    -0.426 OA 
HETATM   13  H   UNL     4      -9.116  15.302  64.616  1.00  0.00     0.000 HD 
BRANCH  11  14
HETATM   14  C   UNL     4      -9.476  13.839  66.705  1.00  0.00    -0.275 C  
HETATM   15  H   UNL     4      -9.883  13.109  68.471  1.00  0.00     0.000 HD 
HETATM   16  O   UNL     4     -10.281  13.036  67.612  1.00  0.00    -0.212 OA 
BRANCH  14  17
HETATM   17  C   UNL     4      -9.197  15.241  67.318  1.00  0.00    -0.199 C  
HETATM   18  C   UNL     4      -7.914  15.254  68.249  1.00  0.00    -0.132 C  
HETATM   19  H   UNL     4     -10.201  16.673  68.285  1.00  0.00     0.000 HD 
HETATM   20  O   UNL     4     -10.371  15.817  67.911  1.00  0.00    -0.250 OA 
HETATM   21  O   UNL     4      -6.939  14.511  67.808  1.00  0.00    -0.147 OA 
HETATM   22  O   UNL     4      -7.960  15.880  69.344  1.00  0.00    -0.232 OA 
ENDBRANCH  14  17
ENDBRANCH  11  14
ENDBRANCH   8  11
ENDBRANCH   3   8
BRANCH   7  23
HETATM   23  C   UNL     5      -8.358   8.400  71.803  1.00  0.00    -0.160 C  
HETATM   24  O   UNL     5      -9.166   9.499  71.378  1.00  0.00    -0.311 OA 
HETATM   25  H   UNL     5     -10.072   9.215  71.367  1.00  0.00     0.000 HD 
BRANCH  23  26
HETATM   26  C   UNL     5      -8.560   7.173  70.888  1.00  0.00    -0.138 C  
HETATM   27  O   UNL     5      -9.680   6.395  71.370  1.00  0.00    -0.172 OA 
HETATM   28  H   UNL     5      -9.804   5.640  70.807  1.00  0.00     0.000 HD 
BRANCH  26  29
HETATM   29  C   UNL     5      -8.695   7.419  69.360  1.00  0.00    -0.137 C  
HETATM   30  O   UNL     5      -8.024   8.602  68.926  1.00  0.00    -0.109 OA 
HETATM   31  H   UNL     5      -8.106   8.753  67.992  1.00  0.00     0.000 HD 
BRANCH  29  32
HETATM   32  C   UNL     5     -10.094   7.308  68.734  1.00  0.00    -0.176 C  
HETATM   33  C   UNL     5     -10.381   6.015  67.941  1.00  0.00    -0.206 C  
HETATM   34  O   UNL     5     -10.380   8.488  67.900  1.00  0.00    -0.211 OA 
HETATM   35  O   UNL     5      -9.842   4.949  68.362  1.00  0.00    -0.149 OA 
HETATM   36  O   UNL     5     -11.091   6.207  66.891  1.00  0.00    -0.334 OA 
HETATM   37  H   UNL     5     -11.245   8.419  67.514  1.00  0.00     0.000 HD 
ENDBRANCH  29  32
ENDBRANCH  26  29
ENDBRANCH  23  26
ENDBRANCH   7  23
TORSDOF 8
ENDMDL
MODEL      352
REMARK 921   NORMALIZED FREE ENERGY PREDICTED BY IDOCK:   -4.16 KCAL/MOL
REMARK 922        TOTAL FREE ENERGY PREDICTED BY IDOCK:   -8.35 KCAL/MOL
REMARK 923 INTER-LIGAND FREE ENERGY PREDICTED BY IDOCK:   -6.57 KCAL/MOL
REMARK 924 INTRA-LIGAND FREE ENERGY PREDICTED BY IDOCK:   -1.79 KCAL/MOL
REMARK 927      BINDING AFFINITY PREDICTED BY RF-SCORE:    0.00 PKD
ROOT
HETATM    1 MG   UNL     3     -12.713   9.715  72.626  1.00  0.00    -0.345 Mg 
HETATM    2  O   UNL     4     -13.994  15.731  71.794  1.00  0.00    -0.421 OA 
HETATM    3  C   UNL     4     -14.034  14.411  71.286  1.00  0.00    -0.238 C  
HETATM    4  H   UNL     4     -14.840  16.035  72.102  1.00  0.00     0.000 HD 
HETATM    5  O   UNL     5      -7.391   4.964  69.743  1.00  0.00    -0.054 OA 
HETATM    6  H   UNL     5      -6.598   4.968  70.266  1.00  0.00     0.000 HD 
HETATM    7  C   UNL     5      -7.826   6.288  69.431  1.00  0.00    -0.104 C  
ENDROOT
BRANCH   3   8
HETATM    8  C   UNL     4     -12.667  13.919  70.789  1.00  0.00    -0.313 C  
HETATM    9  O   UNL     4     -12.563  12.497  70.988  1.00  0.00    -0.361 OA 
HETATM   10  H   UNL     4     -11.717  12.193  70.680  1.00  0.00     0.000 HD 
BRANCH   8  11
HETATM   11  C   UNL     4     -12.266  14.189  69.309  1.00  0.00    -0.269 C  
HETATM   12  O   UNL     4     -12.204  15.574  68.987  1.00  0.00    -0.584 OA 
HETATM   13  H   UNL     4     -11.959  15.738  68.084  1.00  0.00     0.000 HD 
BRANCH  11  14
HETATM   14  C   UNL     4     -11.047  13.418  68.733  1.00  0.00    -0.262 C  
HETATM   15  H   UNL     4      -9.225  13.911  68.231  1.00  0.00     0.000 HD 
HETATM   16  O   UNL     4      -9.970  14.383  68.584  1.00  0.00    -0.234 OA 
BRANCH  14  17
HETATM   17  C   UNL     4     -11.203  12.568  67.439  1.00  0.00    -0.293 C  
HETATM   18  C   UNL     4     -11.340  11.018  67.740  1.00  0.00    -0.292 C  
HETATM   19  H   UNL     4     -10.311  12.383  65.660  1.00  0.00     0.000 HD 
HETATM   20  O   UNL     4     -10.215  12.901  66.451  1.00  0.00    -0.256 OA 
HETATM   21  O   UNL     4     -12.043  10.751  68.803  1.00  0.00    -0.451 OA 
HETATM   22  O   UNL     4     -10.711  10.198  67.016  1.00  0.00    -0.244 OA 
ENDBRANCH  14  17
ENDBRANCH  11  14
ENDBRANCH   8  11
ENDBRANCH   3   8
BRANCH   7  23
HETATM   23  C   UNL     5      -9.114   6.281  68.583  1.00  0.00    -0.126 C  
HETATM   24  O   UNL     5      -9.332   7.604  68.090  1.00  0.00    -0.144 OA 
HETATM   25  H   UNL     5     -10.125   7.600  67.567  1.00  0.00     0.000 HD 
BRANCH  23  26
HETATM   26  C   UNL     5      -9.029   5.263  67.425  1.00  0.00    -0.108 C  
HETATM   27  O   UNL     5      -9.719   4.050  67.803  1.00  0.00    -0.166 OA 
HETATM   28  H   UNL     5      -9.668   3.423  67.091  1.00  0.00     0.000 HD 
BRANCH  26  29
HETATM   29  C   UNL     5      -9.488   5.725  66.014  1.00  0.00    -0.086 C  
HETATM   30  O   UNL     5     -10.612   4.992  65.527  1.00  0.00    -0.470 OA 
HETATM   31  H   UNL     5     -10.892   5.275  64.664  1.00  0.00     0.000 HD 
BRANCH  29  32
HETATM   32  C   UNL     5      -8.414   5.891  64.927  1.00  0.00    -0.085 C  
HETATM   33  C   UNL     5      -8.024   7.343  64.577  1.00  0.00    -0.122 C  
HETATM   34  O   UNL     5      -8.799   5.161  63.708  1.00  0.00    -0.297 OA 
HETATM   35  O   UNL     5      -8.036   8.188  65.521  1.00  0.00    -0.114 OA 
HETATM   36  O   UNL     5      -7.798   7.524  63.328  1.00  0.00    -0.130 OA 
HETATM   37  H   UNL     5      -8.135   5.264  63.037  1.00  0.00     0.000 HD 
ENDBRANCH  29  32
ENDBRANCH  26  29
ENDBRANCH  23  26
ENDBRANCH   7  23
TORSDOF 8
ENDMDL
MODEL      353
REMARK 921   NORMALIZED FREE ENERGY PREDICTED BY IDOCK:   -4.16 KCAL/MOL
REMARK 922        TOTAL FREE ENERGY PREDICTED BY IDOCK:   -8.35 KCAL/MOL
REMARK 923 INTER-LIGAND FREE ENERGY PREDICTED BY IDOCK:   -6.97 KCAL/MOL
REMARK 924 INTRA-LIGAND FREE ENERGY PREDICTED BY IDOCK:   -1.38 KCAL/MOL
REMARK 927      BINDING AFFINITY PREDICTED BY RF-SCORE:    0.00 PKD
ROOT
HETATM    1 MG   UNL     3      -9.835  10.494  65.216  1.00  0.00    -0.183 Mg 
HETATM    2  O   UNL     4     -11.668  16.229  63.711  1.00  0.00    -1.511 OA 
HETATM    3  C   UNL     4     -10.873  15.397  64.534  1.00  0.00    -0.116 C  
HETATM    4  H   UNL     4     -11.165  16.677  63.041  1.00  0.00     0.000 HD 
HETATM    5  O   UNL     5     -11.392   5.788  71.102  1.00  0.00    -0.215 OA 
HETATM    6  H   UNL     5     -12.155   5.249  70.928  1.00  0.00     0.000 HD 
HETATM    7  C   UNL     5     -11.643   7.166  70.829  1.00  0.00    -0.318 C  
ENDROOT
BRANCH   3   8
HETATM    8  C   UNL     4     -11.687  14.672  65.616  1.00  0.00    -0.304 C  
HETATM    9  O   UNL     4     -12.888  14.130  65.036  1.00  0.00    -0.687 OA 
HETATM   10  H   UNL     4     -13.391  13.681  65.706  1.00  0.00     0.000 HD 
BRANCH   8  11
HETATM   11  C   UNL     4     -11.016  13.512  66.408  1.00  0.00    -0.293 C  
HETATM   12  O   UNL     4     -10.117  12.739  65.619  1.00  0.00    -0.274 OA 
HETATM   13  H   UNL     4      -9.708  12.031  66.103  1.00  0.00     0.000 HD 
BRANCH  11  14
HETATM   14  C   UNL     4     -10.413  13.834  67.802  1.00  0.00    -0.240 C  
HETATM   15  H   UNL     4      -8.598  13.987  68.509  1.00  0.00     0.000 HD 
HETATM   16  O   UNL     4      -8.967  13.790  67.656  1.00  0.00    -0.175 OA 
BRANCH  14  17
HETATM   17  C   UNL     4     -10.861  13.024  69.052  1.00  0.00    -0.155 C  
HETATM   18  C   UNL     4     -11.454  11.603  68.677  1.00  0.00    -0.290 C  
HETATM   19  H   UNL     4     -11.959  13.307  70.698  1.00  0.00     0.000 HD 
HETATM   20  O   UNL     4     -11.685  13.802  69.934  1.00  0.00    -0.284 OA 
HETATM   21  O   UNL     4     -10.835  11.020  67.690  1.00  0.00    -0.219 OA 
HETATM   22  O   UNL     4     -12.491  11.197  69.271  1.00  0.00    -0.377 OA 
ENDBRANCH  14  17
ENDBRANCH  11  14
ENDBRANCH   8  11
ENDBRANCH   3   8
BRANCH   7  23
HETATM   23  C   UNL     5     -10.405   8.040  71.112  1.00  0.00    -0.197 C  
HETATM   24  O   UNL     5      -9.473   7.265  71.870  1.00  0.00    -0.149 OA 
HETATM   25  H   UNL     5      -8.711   7.804  72.044  1.00  0.00     0.000 HD 
BRANCH  23  26
HETATM   26  C   UNL     5      -9.763   8.561  69.807  1.00  0.00    -0.179 C  
HETATM   27  O   UNL     5      -8.875   9.660  70.116  1.00  0.00    -0.213 OA 
HETATM   28  H   UNL     5      -8.481   9.980  69.313  1.00  0.00     0.000 HD 
BRANCH  26  29
HETATM   29  C   UNL     5      -9.048   7.533  68.887  1.00  0.00    -0.140 C  
HETATM   30  O   UNL     5      -9.593   6.218  68.994  1.00  0.00    -0.127 OA 
HETATM   31  H   UNL     5      -9.156   5.589  68.431  1.00  0.00     0.000 HD 
BRANCH  29  32
HETATM   32  C   UNL     5      -7.511   7.505  68.899  1.00  0.00    -0.096 C  
HETATM   33  C   UNL     5      -6.856   6.837  70.126  1.00  0.00    -0.061 C  
HETATM   34  O   UNL     5      -6.971   8.861  68.710  1.00  0.00    -0.061 OA 
HETATM   35  O   UNL     5      -7.463   5.851  70.640  1.00  0.00    -0.082 OA 
HETATM   36  O   UNL     5      -5.787   7.428  70.519  1.00  0.00    -0.027 OA 
HETATM   37  H   UNL     5      -6.021   8.844  68.717  1.00  0.00     0.000 HD 
ENDBRANCH  29  32
ENDBRANCH  26  29
ENDBRANCH  23  26
ENDBRANCH   7  23
TORSDOF 8
ENDMDL
MODEL      354
REMARK 921   NORMALIZED FREE ENERGY PREDICTED BY IDOCK:   -4.16 KCAL/MOL
REMARK 922        TOTAL FREE ENERGY PREDICTED BY IDOCK:   -8.35 KCAL/MOL
REMARK 923 INTER-LIGAND FREE ENERGY PREDICTED BY IDOCK:   -6.08 KCAL/MOL
REMARK 924 INTRA-LIGAND FREE ENERGY PREDICTED BY IDOCK:   -2.27 KCAL/MOL
REMARK 927      BINDING AFFINITY PREDICTED BY RF-SCORE:    0.00 PKD
ROOT
HETATM    1 MG   UNL     3      -9.718  11.590  66.959  1.00  0.00    -0.172 Mg 
HETATM    2  O   UNL     4      -7.895  17.494  66.385  1.00  0.00    -0.251 OA 
HETATM    3  C   UNL     4      -7.549  16.149  66.651  1.00  0.00    -0.203 C  
HETATM    4  H   UNL     4      -7.633  17.779  65.517  1.00  0.00     0.000 HD 
HETATM    5  O   UNL     5     -10.788   6.917  72.979  1.00  0.00    -0.265 OA 
HETATM    6  H   UNL     5     -11.673   6.982  73.319  1.00  0.00     0.000 HD 
HETATM    7  C   UNL     5     -10.194   8.203  72.803  1.00  0.00    -0.302 C  
ENDROOT
BRANCH   3   8
HETATM    8  C   UNL     4      -7.972  15.688  68.054  1.00  0.00    -0.132 C  
HETATM    9  O   UNL     4      -8.490  16.809  68.795  1.00  0.00    -0.245 OA 
HETATM   10  H   UNL     4      -8.752  16.524  69.663  1.00  0.00     0.000 HD 
BRANCH   8  11
HETATM   11  C   UNL     4      -9.025  14.549  68.183  1.00  0.00    -0.182 C  
HETATM   12  O   UNL     4      -8.623  13.509  69.069  1.00  0.00    -0.354 OA 
HETATM   13  H   UNL     4      -9.266  12.814  69.148  1.00  0.00     0.000 HD 
BRANCH  11  14
HETATM   14  C   UNL     4     -10.507  14.950  68.416  1.00  0.00    -0.243 C  
HETATM   15  H   UNL     4     -11.960  14.249  69.518  1.00  0.00     0.000 HD 
HETATM   16  O   UNL     4     -11.053  14.004  69.375  1.00  0.00    -0.250 OA 
BRANCH  14  17
HETATM   17  C   UNL     4     -11.469  15.118  67.205  1.00  0.00    -0.279 C  
HETATM   18  C   UNL     4     -11.647  13.779  66.377  1.00  0.00    -0.360 C  
HETATM   19  H   UNL     4     -11.734  16.376  65.675  1.00  0.00     0.000 HD 
HETATM   20  O   UNL     4     -11.146  16.273  66.414  1.00  0.00    -0.076 OA 
HETATM   21  O   UNL     4     -11.684  12.707  67.116  1.00  0.00    -0.347 OA 
HETATM   22  O   UNL     4     -11.646  13.836  65.116  1.00  0.00    -0.315 OA 
ENDBRANCH  14  17
ENDBRANCH  11  14
ENDBRANCH   8  11
ENDBRANCH   3   8
BRANCH   7  23
HETATM   23  C   UNL     5      -8.758   8.098  72.250  1.00  0.00    -0.182 C  
HETATM   24  O   UNL     5      -8.088   7.043  72.941  1.00  0.00    -0.105 OA 
HETATM   25  H   UNL     5      -7.203   6.978  72.601  1.00  0.00     0.000 HD 
BRANCH  23  26
HETATM   26  C   UNL     5      -8.750   7.858  70.724  1.00  0.00    -0.134 C  
HETATM   27  O   UNL     5      -9.831   6.964  70.374  1.00  0.00    -0.179 OA 
HETATM   28  H   UNL     5      -9.826   6.817  69.436  1.00  0.00     0.000 HD 
BRANCH  26  29
HETATM   29  C   UNL     5      -8.756   9.101  69.792  1.00  0.00    -0.151 C  
HETATM   30  O   UNL     5      -8.042  10.210  70.339  1.00  0.00    -0.403 OA 
HETATM   31  H   UNL     5      -8.045  10.970  69.769  1.00  0.00     0.000 HD 
BRANCH  29  32
HETATM   32  C   UNL     5     -10.100   9.543  69.191  1.00  0.00    -0.195 C  
HETATM   33  C   UNL     5     -10.466   8.923  67.826  1.00  0.00    -0.239 C  
HETATM   34  O   UNL     5     -10.173  11.011  69.117  1.00  0.00    -0.255 OA 
HETATM   35  O   UNL     5     -10.095   7.731  67.614  1.00  0.00    -0.169 OA 
HETATM   36  O   UNL     5     -11.057   9.743  67.035  1.00  0.00    -0.093 OA 
HETATM   37  H   UNL     5     -11.003  11.284  68.746  1.00  0.00     0.000 HD 
ENDBRANCH  29  32
ENDBRANCH  26  29
ENDBRANCH  23  26
ENDBRANCH   7  23
TORSDOF 8
ENDMDL
MODEL      355
REMARK 921   NORMALIZED FREE ENERGY PREDICTED BY IDOCK:   -4.16 KCAL/MOL
REMARK 922        TOTAL FREE ENERGY PREDICTED BY IDOCK:   -8.34 KCAL/MOL
REMARK 923 INTER-LIGAND FREE ENERGY PREDICTED BY IDOCK:   -6.69 KCAL/MOL
REMARK 924 INTRA-LIGAND FREE ENERGY PREDICTED BY IDOCK:   -1.65 KCAL/MOL
REMARK 927      BINDING AFFINITY PREDICTED BY RF-SCORE:    0.00 PKD
ROOT
HETATM    1 MG   UNL     3     -12.860   9.313  71.437  1.00  0.00    -0.284 Mg 
HETATM    2  O   UNL     4     -13.249  15.505  71.291  1.00  0.00    -0.480 OA 
HETATM    3  C   UNL     4     -13.407  14.274  70.613  1.00  0.00    -0.017 C  
HETATM    4  H   UNL     4     -14.076  15.889  71.559  1.00  0.00     0.000 HD 
HETATM    5  O   UNL     5      -7.926   4.223  68.444  1.00  0.00    -0.077 OA 
HETATM    6  H   UNL     5      -7.200   4.052  69.031  1.00  0.00     0.000 HD 
HETATM    7  C   UNL     5      -8.149   5.623  68.271  1.00  0.00    -0.103 C  
ENDROOT
BRANCH   3   8
HETATM    8  C   UNL     4     -12.070  13.654  70.180  1.00  0.00    -0.361 C  
HETATM    9  O   UNL     4     -12.269  12.271  69.831  1.00  0.00    -0.250 OA 
HETATM   10  H   UNL     4     -11.441  11.887  69.564  1.00  0.00     0.000 HD 
BRANCH   8  11
HETATM   11  C   UNL     4     -11.292  14.300  68.997  1.00  0.00    -0.272 C  
HETATM   12  O   UNL     4     -12.143  14.856  68.000  1.00  0.00    -0.547 OA 
HETATM   13  H   UNL     4     -11.667  15.250  67.279  1.00  0.00     0.000 HD 
BRANCH  11  14
HETATM   14  C   UNL     4     -10.115  15.255  69.335  1.00  0.00    -0.264 C  
HETATM   15  H   UNL     4      -9.983  17.068  70.052  1.00  0.00     0.000 HD 
HETATM   16  O   UNL     4     -10.703  16.483  69.846  1.00  0.00    -0.329 OA 
BRANCH  14  17
HETATM   17  C   UNL     4      -9.035  15.572  68.261  1.00  0.00    -0.185 C  
HETATM   18  C   UNL     4      -7.807  14.571  68.318  1.00  0.00    -0.131 C  
HETATM   19  H   UNL     4      -8.014  17.155  67.594  1.00  0.00     0.000 HD 
HETATM   20  O   UNL     4      -8.674  16.962  68.250  1.00  0.00    -0.218 OA 
HETATM   21  O   UNL     4      -8.145  13.342  68.583  1.00  0.00    -0.121 OA 
HETATM   22  O   UNL     4      -6.638  15.032  68.199  1.00  0.00    -0.104 OA 
ENDBRANCH  14  17
ENDBRANCH  11  14
ENDBRANCH   8  11
ENDBRANCH   3   8
BRANCH   7  23
HETATM   23  C   UNL     5      -9.328   5.900  67.317  1.00  0.00    -0.113 C  
HETATM   24  O   UNL     5     -10.247   4.810  67.411  1.00  0.00    -0.154 OA 
HETATM   25  H   UNL     5     -10.973   4.981  66.823  1.00  0.00     0.000 HD 
BRANCH  23  26
HETATM   26  C   UNL     5     -10.021   7.241  67.641  1.00  0.00    -0.162 C  
HETATM   27  O   UNL     5     -11.157   7.418  66.763  1.00  0.00    -0.507 OA 
HETATM   28  H   UNL     5     -11.583   8.244  66.963  1.00  0.00     0.000 HD 
BRANCH  26  29
HETATM   29  C   UNL     5     -10.433   7.510  69.115  1.00  0.00    -0.215 C  
HETATM   30  O   UNL     5     -11.609   6.799  69.502  1.00  0.00    -0.580 OA 
HETATM   31  H   UNL     5     -11.861   6.963  70.403  1.00  0.00     0.000 HD 
BRANCH  29  32
HETATM   32  C   UNL     5     -10.479   8.970  69.594  1.00  0.00    -0.222 C  
HETATM   33  C   UNL     5     -10.337   9.188  71.115  1.00  0.00    -0.317 C  
HETATM   34  O   UNL     5     -11.694   9.637  69.097  1.00  0.00    -0.412 OA 
HETATM   35  O   UNL     5      -9.582   8.389  71.745  1.00  0.00    -0.186 OA 
HETATM   36  O   UNL     5     -11.077  10.133  71.567  1.00  0.00    -0.075 OA 
HETATM   37  H   UNL     5     -11.722  10.539  69.393  1.00  0.00     0.000 HD 
ENDBRANCH  29  32
ENDBRANCH  26  29
ENDBRANCH  23  26
ENDBRANCH   7  23
TORSDOF 8
ENDMDL
MODEL      356
REMARK 921   NORMALIZED FREE ENERGY PREDICTED BY IDOCK:   -4.14 KCAL/MOL
REMARK 922        TOTAL FREE ENERGY PREDICTED BY IDOCK:   -8.32 KCAL/MOL
REMARK 923 INTER-LIGAND FREE ENERGY PREDICTED BY IDOCK:   -6.71 KCAL/MOL
REMARK 924 INTRA-LIGAND FREE ENERGY PREDICTED BY IDOCK:   -1.61 KCAL/MOL
REMARK 927      BINDING AFFINITY PREDICTED BY RF-SCORE:    0.00 PKD
ROOT
HETATM    1 MG   UNL     3      -9.989  13.444  66.174  1.00  0.00    -0.240 Mg 
HETATM    2  O   UNL     4      -6.053   8.888  64.668  1.00  0.00    -0.064 OA 
HETATM    3  C   UNL     4      -7.321   9.266  65.167  1.00  0.00    -0.098 C  
HETATM    4  H   UNL     4      -6.086   8.572  63.772  1.00  0.00     0.000 HD 
HETATM    5  O   UNL     5     -12.411  16.383  72.861  1.00  0.00    -0.473 OA 
HETATM    6  H   UNL     5     -11.846  17.086  73.160  1.00  0.00     0.000 HD 
HETATM    7  C   UNL     5     -11.664  15.226  72.488  1.00  0.00    -0.434 C  
ENDROOT
BRANCH   3   8
HETATM    8  C   UNL     4      -7.267   9.777  66.614  1.00  0.00    -0.090 C  
HETATM    9  O   UNL     4      -8.570  10.243  67.012  1.00  0.00    -0.129 OA 
HETATM   10  H   UNL     4      -8.536  10.560  67.908  1.00  0.00     0.000 HD 
BRANCH   8  11
HETATM   11  C   UNL     4      -6.783   8.810  67.734  1.00  0.00    -0.066 C  
HETATM   12  O   UNL     4      -6.374   9.483  68.920  1.00  0.00    -0.043 OA 
HETATM   13  H   UNL     4      -6.079   8.892  69.603  1.00  0.00     0.000 HD 
BRANCH  11  14
HETATM   14  C   UNL     4      -7.664   7.573  68.059  1.00  0.00    -0.116 C  
HETATM   15  H   UNL     4      -9.267   6.786  67.268  1.00  0.00     0.000 HD 
HETATM   16  O   UNL     4      -8.728   7.542  67.069  1.00  0.00    -0.122 OA 
BRANCH  14  17
HETATM   17  C   UNL     4      -8.242   7.382  69.490  1.00  0.00    -0.131 C  
HETATM   18  C   UNL     4      -9.377   8.433  69.835  1.00  0.00    -0.155 C  
HETATM   19  H   UNL     4      -7.562   7.154  71.356  1.00  0.00     0.000 HD 
HETATM   20  O   UNL     4      -7.209   7.272  70.481  1.00  0.00    -0.064 OA 
HETATM   21  O   UNL     4     -10.159   8.708  68.830  1.00  0.00    -0.185 OA 
HETATM   22  O   UNL     4      -9.386   8.971  70.976  1.00  0.00    -0.229 OA 
ENDBRANCH  14  17
ENDBRANCH  11  14
ENDBRANCH   8  11
ENDBRANCH   3   8
BRANCH   7  23
HETATM   23  C   UNL     5     -12.581  14.085  72.003  1.00  0.00    -0.225 C  
HETATM   24  O   UNL     5     -13.641  13.930  72.948  1.00  0.00    -0.680 OA 
HETATM   25  H   UNL     5     -14.206  13.228  72.649  1.00  0.00     0.000 HD 
BRANCH  23  26
HETATM   26  C   UNL     5     -13.133  14.359  70.587  1.00  0.00    -0.223 C  
HETATM   27  O   UNL     5     -13.928  15.566  70.608  1.00  0.00    -0.868 OA 
HETATM   28  H   UNL     5     -14.268  15.735  69.737  1.00  0.00     0.000 HD 
BRANCH  26  29
HETATM   29  C   UNL     5     -12.122  14.401  69.408  1.00  0.00    -0.297 C  
HETATM   30  O   UNL     5     -11.937  15.714  68.881  1.00  0.00    -0.501 OA 
HETATM   31  H   UNL     5     -11.318  15.740  68.160  1.00  0.00     0.000 HD 
BRANCH  29  32
HETATM   32  C   UNL     5     -12.285  13.365  68.284  1.00  0.00    -0.085 C  
HETATM   33  C   UNL     5     -11.409  12.100  68.397  1.00  0.00    -0.286 C  
HETATM   34  O   UNL     5     -12.093  13.998  66.969  1.00  0.00    -0.427 OA 
HETATM   35  O   UNL     5     -11.170  11.665  69.563  1.00  0.00    -0.248 OA 
HETATM   36  O   UNL     5     -10.967  11.681  67.268  1.00  0.00    -0.236 OA 
HETATM   37  H   UNL     5     -12.194  13.359  66.274  1.00  0.00     0.000 HD 
ENDBRANCH  29  32
ENDBRANCH  26  29
ENDBRANCH  23  26
ENDBRANCH   7  23
TORSDOF 8
ENDMDL
MODEL      357
REMARK 921   NORMALIZED FREE ENERGY PREDICTED BY IDOCK:   -4.11 KCAL/MOL
REMARK 922        TOTAL FREE ENERGY PREDICTED BY IDOCK:   -8.28 KCAL/MOL
REMARK 923 INTER-LIGAND FREE ENERGY PREDICTED BY IDOCK:   -7.20 KCAL/MOL
REMARK 924 INTRA-LIGAND FREE ENERGY PREDICTED BY IDOCK:   -1.08 KCAL/MOL
REMARK 927      BINDING AFFINITY PREDICTED BY RF-SCORE:    0.00 PKD
ROOT
HETATM    1 MG   UNL     3     -10.770  14.944  69.745  1.00  0.00    -0.209 Mg 
HETATM    2  O   UNL     4     -11.487  16.698  63.836  1.00  0.00    -1.604 OA 
HETATM    3  C   UNL     4     -11.848  15.816  64.881  1.00  0.00     0.115 C  
HETATM    4  H   UNL     4     -12.149  17.358  63.662  1.00  0.00     0.000 HD 
HETATM    5  O   UNL     5      -7.257   8.996  73.137  1.00  0.00    -0.331 OA 
HETATM    6  H   UNL     5      -6.346   9.188  73.325  1.00  0.00     0.000 HD 
HETATM    7  C   UNL     5      -7.599   9.321  71.790  1.00  0.00     0.432 C  
ENDROOT
BRANCH   3   8
HETATM    8  C   UNL     4     -10.779  14.751  65.162  1.00  0.00    -0.415 C  
HETATM    9  O   UNL     4     -10.483  14.031  63.950  1.00  0.00    -0.372 OA 
HETATM   10  H   UNL     4      -9.822  13.371  64.124  1.00  0.00     0.000 HD 
BRANCH   8  11
HETATM   11  C   UNL     4      -9.411  15.199  65.753  1.00  0.00    -0.172 C  
HETATM   12  O   UNL     4      -9.107  16.566  65.497  1.00  0.00    -0.404 OA 
HETATM   13  H   UNL     4      -8.272  16.839  65.859  1.00  0.00     0.000 HD 
BRANCH  11  14
HETATM   14  C   UNL     4      -9.091  14.814  67.223  1.00  0.00    -0.204 C  
HETATM   15  H   UNL     4     -10.069  13.894  68.643  1.00  0.00     0.000 HD 
HETATM   16  O   UNL     4     -10.264  14.130  67.744  1.00  0.00    -0.237 OA 
BRANCH  14  17
HETATM   17  C   UNL     4      -8.601  15.898  68.225  1.00  0.00    -0.176 C  
HETATM   18  C   UNL     4      -9.497  17.205  68.195  1.00  0.00    -0.269 C  
HETATM   19  H   UNL     4      -6.890  16.800  68.728  1.00  0.00     0.000 HD 
HETATM   20  O   UNL     4      -7.189  16.138  68.116  1.00  0.00    -0.128 OA 
HETATM   21  O   UNL     4     -10.768  16.966  68.038  1.00  0.00    -0.352 OA 
HETATM   22  O   UNL     4      -8.932  18.333  68.231  1.00  0.00    -0.289 OA 
ENDBRANCH  14  17
ENDBRANCH  11  14
ENDBRANCH   8  11
ENDBRANCH   3   8
BRANCH   7  23
HETATM   23  C   UNL     5      -9.078   9.009  71.484  1.00  0.00    -0.161 C  
HETATM   24  O   UNL     5      -9.680  10.183  70.936  1.00  0.00    -0.167 OA 
HETATM   25  H   UNL     5     -10.591   9.991  70.748  1.00  0.00     0.000 HD 
BRANCH  23  26
HETATM   26  C   UNL     5      -9.222   7.809  70.524  1.00  0.00    -0.162 C  
HETATM   27  O   UNL     5      -8.119   6.897  70.727  1.00  0.00    -0.111 OA 
HETATM   28  H   UNL     5      -8.208   6.158  70.136  1.00  0.00     0.000 HD 
BRANCH  26  29
HETATM   29  C   UNL     5     -10.569   7.034  70.525  1.00  0.00    -0.224 C  
HETATM   30  O   UNL     5     -11.498   7.532  69.563  1.00  0.00    -0.452 OA 
HETATM   31  H   UNL     5     -12.322   7.058  69.563  1.00  0.00     0.000 HD 
BRANCH  29  32
HETATM   32  C   UNL     5     -11.250   6.777  71.879  1.00  0.00    -0.260 C  
HETATM   33  C   UNL     5     -10.745   5.550  72.668  1.00  0.00    -0.243 C  
HETATM   34  O   UNL     5     -12.711   6.709  71.716  1.00  0.00    -0.350 OA 
HETATM   35  O   UNL     5      -9.515   5.266  72.568  1.00  0.00    -0.144 OA 
HETATM   36  O   UNL     5     -11.677   4.921  73.284  1.00  0.00    -0.312 OA 
HETATM   37  H   UNL     5     -13.132   6.550  72.552  1.00  0.00     0.000 HD 
ENDBRANCH  29  32
ENDBRANCH  26  29
ENDBRANCH  23  26
ENDBRANCH   7  23
TORSDOF 8
ENDMDL
MODEL      358
REMARK 921   NORMALIZED FREE ENERGY PREDICTED BY IDOCK:   -4.10 KCAL/MOL
REMARK 922        TOTAL FREE ENERGY PREDICTED BY IDOCK:   -8.26 KCAL/MOL
REMARK 923 INTER-LIGAND FREE ENERGY PREDICTED BY IDOCK:   -6.33 KCAL/MOL
REMARK 924 INTRA-LIGAND FREE ENERGY PREDICTED BY IDOCK:   -1.94 KCAL/MOL
REMARK 927      BINDING AFFINITY PREDICTED BY RF-SCORE:    0.00 PKD
ROOT
HETATM    1 MG   UNL     3     -11.486   8.468  67.568  1.00  0.00    -0.501 Mg 
HETATM    2  O   UNL     4     -12.401  14.565  68.286  1.00  0.00    -0.597 OA 
HETATM    3  C   UNL     4     -11.502  13.473  68.304  1.00  0.00    -0.310 C  
HETATM    4  H   UNL     4     -12.312  15.106  67.510  1.00  0.00     0.000 HD 
HETATM    5  O   UNL     5     -10.269   2.661  72.468  1.00  0.00    -0.156 OA 
HETATM    6  H   UNL     5     -11.085   2.271  72.758  1.00  0.00     0.000 HD 
HETATM    7  C   UNL     5     -10.291   4.084  72.587  1.00  0.00    -0.158 C  
ENDROOT
BRANCH   3   8
HETATM    8  C   UNL     4     -11.646  12.599  69.558  1.00  0.00    -0.281 C  
HETATM    9  O   UNL     4     -12.365  13.324  70.574  1.00  0.00    -0.342 OA 
HETATM   10  H   UNL     4     -12.453  12.784  71.350  1.00  0.00     0.000 HD 
BRANCH   8  11
HETATM   11  C   UNL     4     -12.342  11.212  69.431  1.00  0.00    -0.155 C  
HETATM   12  O   UNL     4     -12.080  10.563  68.191  1.00  0.00    -0.756 OA 
HETATM   13  H   UNL     4     -12.504   9.717  68.114  1.00  0.00     0.000 HD 
BRANCH  11  14
HETATM   14  C   UNL     4     -12.223  10.225  70.623  1.00  0.00    -0.329 C  
HETATM   15  H   UNL     4     -12.282  10.410  72.567  1.00  0.00     0.000 HD 
HETATM   16  O   UNL     4     -12.355  11.014  71.838  1.00  0.00    -0.104 OA 
BRANCH  14  17
HETATM   17  C   UNL     4     -11.001   9.267  70.724  1.00  0.00    -0.284 C  
HETATM   18  C   UNL     4     -10.962   8.471  72.094  1.00  0.00    -0.357 C  
HETATM   19  H   UNL     4      -9.024   9.336  70.438  1.00  0.00     0.000 HD 
HETATM   20  O   UNL     4      -9.770   9.921  70.377  1.00  0.00    -0.234 OA 
HETATM   21  O   UNL     4     -12.136   8.103  72.520  1.00  0.00    -0.365 OA 
HETATM   22  O   UNL     4      -9.858   8.338  72.691  1.00  0.00    -0.271 OA 
ENDBRANCH  14  17
ENDBRANCH  11  14
ENDBRANCH   8  11
ENDBRANCH   3   8
BRANCH   7  23
HETATM   23  C   UNL     5      -8.967   4.718  72.117  1.00  0.00    -0.127 C  
HETATM   24  O   UNL     5      -7.947   4.374  73.056  1.00  0.00    -0.092 OA 
HETATM   25  H   UNL     5      -7.131   4.764  72.767  1.00  0.00     0.000 HD 
BRANCH  23  26
HETATM   26  C   UNL     5      -8.588   4.259  70.692  1.00  0.00    -0.078 C  
HETATM   27  O   UNL     5      -9.775   4.231  69.866  1.00  0.00    -0.198 OA 
HETATM   28  H   UNL     5      -9.542   3.949  68.990  1.00  0.00     0.000 HD 
BRANCH  26  29
HETATM   29  C   UNL     5      -7.444   5.017  69.963  1.00  0.00    -0.060 C  
HETATM   30  O   UNL     5      -7.035   6.199  70.651  1.00  0.00    -0.060 OA 
HETATM   31  H   UNL     5      -6.335   6.663  70.206  1.00  0.00     0.000 HD 
BRANCH  29  32
HETATM   32  C   UNL     5      -7.596   5.271  68.455  1.00  0.00    -0.080 C  
HETATM   33  C   UNL     5      -8.754   6.203  68.039  1.00  0.00    -0.113 C  
HETATM   34  O   UNL     5      -7.684   3.996  67.725  1.00  0.00    -0.068 OA 
HETATM   35  O   UNL     5      -9.039   7.155  68.824  1.00  0.00    -0.135 OA 
HETATM   36  O   UNL     5      -9.337   5.840  66.956  1.00  0.00    -0.116 OA 
HETATM   37  H   UNL     5      -7.778   4.152  66.793  1.00  0.00     0.000 HD 
ENDBRANCH  29  32
ENDBRANCH  26  29
ENDBRANCH  23  26
ENDBRANCH   7  23
TORSDOF 8
ENDMDL
MODEL      359
REMARK 921   NORMALIZED FREE ENERGY PREDICTED BY IDOCK:   -4.10 KCAL/MOL
REMARK 922        TOTAL FREE ENERGY PREDICTED BY IDOCK:   -8.26 KCAL/MOL
REMARK 923 INTER-LIGAND FREE ENERGY PREDICTED BY IDOCK:   -6.16 KCAL/MOL
REMARK 924 INTRA-LIGAND FREE ENERGY PREDICTED BY IDOCK:   -2.10 KCAL/MOL
REMARK 927      BINDING AFFINITY PREDICTED BY RF-SCORE:    0.00 PKD
ROOT
HETATM    1 MG   UNL     3     -11.900  15.739  67.181  1.00  0.00    -0.245 Mg 
HETATM    2  O   UNL     4     -13.205  11.506  62.833  1.00  0.00    -0.656 OA 
HETATM    3  C   UNL     4     -12.635  11.799  64.094  1.00  0.00    -0.102 C  
HETATM    4  H   UNL     4     -14.046  11.069  62.900  1.00  0.00     0.000 HD 
HETATM    5  O   UNL     5      -5.428  19.261  69.399  1.00  0.00    -0.195 OA 
HETATM    6  H   UNL     5      -5.276  20.058  68.905  1.00  0.00     0.000 HD 
HETATM    7  C   UNL     5      -5.725  18.158  68.544  1.00  0.00    -0.179 C  
ENDROOT
BRANCH   3   8
HETATM    8  C   UNL     4     -11.275  12.505  63.987  1.00  0.00    -0.403 C  
HETATM    9  O   UNL     4     -11.461  13.838  63.473  1.00  0.00    -0.547 OA 
HETATM   10  H   UNL     4     -10.620  14.275  63.406  1.00  0.00     0.000 HD 
BRANCH   8  11
HETATM   11  C   UNL     4     -10.398  12.644  65.266  1.00  0.00    -0.289 C  
HETATM   12  O   UNL     4      -9.676  13.869  65.323  1.00  0.00    -0.556 OA 
HETATM   13  H   UNL     4      -9.141  13.953  66.104  1.00  0.00     0.000 HD 
BRANCH  11  14
HETATM   14  C   UNL     4     -11.048  12.304  66.635  1.00  0.00    -0.297 C  
HETATM   15  H   UNL     4     -11.550  13.345  68.210  1.00  0.00     0.000 HD 
HETATM   16  O   UNL     4     -11.153  13.553  67.372  1.00  0.00    -0.270 OA 
BRANCH  14  17
HETATM   17  C   UNL     4     -10.439  11.189  67.532  1.00  0.00    -0.204 C  
HETATM   18  C   UNL     4      -8.869  11.326  67.694  1.00  0.00    -0.138 C  
HETATM   19  H   UNL     4     -10.517   9.198  67.696  1.00  0.00     0.000 HD 
HETATM   20  O   UNL     4     -10.889   9.880  67.148  1.00  0.00    -0.241 OA 
HETATM   21  O   UNL     4      -8.458  12.558  67.789  1.00  0.00    -0.149 OA 
HETATM   22  O   UNL     4      -8.155  10.287  67.630  1.00  0.00    -0.106 OA 
ENDBRANCH  14  17
ENDBRANCH  11  14
ENDBRANCH   8  11
ENDBRANCH   3   8
BRANCH   7  23
HETATM   23  C   UNL     5      -5.971  16.863  69.345  1.00  0.00    -0.206 C  
HETATM   24  O   UNL     5      -6.405  17.225  70.658  1.00  0.00     0.547 OA 
HETATM   25  H   UNL     5      -6.556  16.428  71.151  1.00  0.00     0.000 HD 
BRANCH  23  26
HETATM   26  C   UNL     5      -7.003  15.949  68.650  1.00  0.00    -0.127 C  
HETATM   27  O   UNL     5      -6.967  14.637  69.257  1.00  0.00    -0.128 OA 
HETATM   28  H   UNL     5      -7.602  14.075  68.829  1.00  0.00     0.000 HD 
BRANCH  26  29
HETATM   29  C   UNL     5      -8.469  16.454  68.546  1.00  0.00    -0.211 C  
HETATM   30  O   UNL     5      -9.410  15.396  68.366  1.00  0.00    -0.185 OA 
HETATM   31  H   UNL     5     -10.307  15.705  68.303  1.00  0.00     0.000 HD 
BRANCH  29  32
HETATM   32  C   UNL     5      -8.760  17.629  67.599  1.00  0.00    -0.232 C  
HETATM   33  C   UNL     5      -9.126  18.968  68.274  1.00  0.00    -0.327 C  
HETATM   34  O   UNL     5      -9.792  17.256  66.618  1.00  0.00    -0.269 OA 
HETATM   35  O   UNL     5      -8.563  19.232  69.378  1.00  0.00    -0.100 OA 
HETATM   36  O   UNL     5     -10.031  19.626  67.646  1.00  0.00    -0.341 OA 
HETATM   37  H   UNL     5      -9.972  17.982  66.033  1.00  0.00     0.000 HD 
ENDBRANCH  29  32
ENDBRANCH  26  29
ENDBRANCH  23  26
ENDBRANCH   7  23
TORSDOF 8
ENDMDL
MODEL      360
REMARK 921   NORMALIZED FREE ENERGY PREDICTED BY IDOCK:   -4.09 KCAL/MOL
REMARK 922        TOTAL FREE ENERGY PREDICTED BY IDOCK:   -8.25 KCAL/MOL
REMARK 923 INTER-LIGAND FREE ENERGY PREDICTED BY IDOCK:   -6.27 KCAL/MOL
REMARK 924 INTRA-LIGAND FREE ENERGY PREDICTED BY IDOCK:   -1.98 KCAL/MOL
REMARK 927      BINDING AFFINITY PREDICTED BY RF-SCORE:    0.00 PKD
ROOT
HETATM    1 MG   UNL     3      -9.466   8.519  63.244  1.00  0.00    -0.399 Mg 
HETATM    2  O   UNL     4     -12.573  13.890  63.137  1.00  0.00    -1.057 OA 
HETATM    3  C   UNL     4     -11.457  13.155  63.601  1.00  0.00    -0.323 C  
HETATM    4  H   UNL     4     -12.353  14.499  62.441  1.00  0.00     0.000 HD 
HETATM    5  O   UNL     5      -8.561   3.005  68.535  1.00  0.00    -0.076 OA 
HETATM    6  H   UNL     5      -9.241   2.345  68.472  1.00  0.00     0.000 HD 
HETATM    7  C   UNL     5      -9.104   4.325  68.547  1.00  0.00    -0.128 C  
ENDROOT
BRANCH   3   8
HETATM    8  C   UNL     4     -11.815  12.171  64.725  1.00  0.00    -0.318 C  
HETATM    9  O   UNL     4     -10.948  11.023  64.656  1.00  0.00    -0.243 OA 
HETATM   10  H   UNL     4     -11.170  10.414  65.352  1.00  0.00     0.000 HD 
BRANCH   8  11
HETATM   11  C   UNL     4     -11.772  12.669  66.199  1.00  0.00    -0.406 C  
HETATM   12  O   UNL     4     -12.160  11.674  67.140  1.00  0.00    -0.575 OA 
HETATM   13  H   UNL     4     -12.133  11.978  68.040  1.00  0.00     0.000 HD 
BRANCH  11  14
HETATM   14  C   UNL     4     -10.507  13.435  66.673  1.00  0.00    -0.280 C  
HETATM   15  H   UNL     4      -8.855  12.924  67.583  1.00  0.00     0.000 HD 
HETATM   16  O   UNL     4      -9.629  12.455  67.293  1.00  0.00    -0.193 OA 
BRANCH  14  17
HETATM   17  C   UNL     4     -10.650  14.692  67.579  1.00  0.00    -0.257 C  
HETATM   18  C   UNL     4      -9.251  15.256  68.064  1.00  0.00    -0.188 C  
HETATM   19  H   UNL     4     -11.701  15.265  69.179  1.00  0.00     0.000 HD 
HETATM   20  O   UNL     4     -11.613  14.497  68.627  1.00  0.00    -0.283 OA 
HETATM   21  O   UNL     4      -8.316  15.187  67.160  1.00  0.00    -0.188 OA 
HETATM   22  O   UNL     4      -9.125  15.628  69.264  1.00  0.00    -0.240 OA 
ENDBRANCH  14  17
ENDBRANCH  11  14
ENDBRANCH   8  11
ENDBRANCH   3   8
BRANCH   7  23
HETATM   23  C   UNL     5      -8.000   5.397  68.648  1.00  0.00    -0.087 C  
HETATM   24  O   UNL     5      -6.733   4.736  68.650  1.00  0.00    -0.047 OA 
HETATM   25  H   UNL     5      -6.053   5.396  68.713  1.00  0.00     0.000 HD 
BRANCH  23  26
HETATM   26  C   UNL     5      -8.092   6.421  67.496  1.00  0.00    -0.117 C  
HETATM   27  O   UNL     5      -9.441   6.439  66.977  1.00  0.00    -0.130 OA 
HETATM   28  H   UNL     5      -9.497   7.069  66.268  1.00  0.00     0.000 HD 
BRANCH  26  29
HETATM   29  C   UNL     5      -7.602   7.870  67.771  1.00  0.00    -0.109 C  
HETATM   30  O   UNL     5      -8.573   8.666  68.450  1.00  0.00    -0.133 OA 
HETATM   31  H   UNL     5      -8.273   9.552  68.618  1.00  0.00     0.000 HD 
BRANCH  29  32
HETATM   32  C   UNL     5      -6.958   8.644  66.609  1.00  0.00    -0.079 C  
HETATM   33  C   UNL     5      -7.897   9.024  65.446  1.00  0.00    -0.101 C  
HETATM   34  O   UNL     5      -5.784   7.918  66.096  1.00  0.00    -0.035 OA 
HETATM   35  O   UNL     5      -9.097   9.304  65.741  1.00  0.00    -0.178 OA 
HETATM   36  O   UNL     5      -7.343   8.938  64.292  1.00  0.00    -0.096 OA 
HETATM   37  H   UNL     5      -5.386   8.396  65.378  1.00  0.00     0.000 HD 
ENDBRANCH  29  32
ENDBRANCH  26  29
ENDBRANCH  23  26
ENDBRANCH   7  23
TORSDOF 8
ENDMDL
MODEL      361
REMARK 921   NORMALIZED FREE ENERGY PREDICTED BY IDOCK:   -4.09 KCAL/MOL
REMARK 922        TOTAL FREE ENERGY PREDICTED BY IDOCK:   -8.25 KCAL/MOL
REMARK 923 INTER-LIGAND FREE ENERGY PREDICTED BY IDOCK:   -6.82 KCAL/MOL
REMARK 924 INTRA-LIGAND FREE ENERGY PREDICTED BY IDOCK:   -1.43 KCAL/MOL
REMARK 927      BINDING AFFINITY PREDICTED BY RF-SCORE:    0.00 PKD
ROOT
HETATM    1 MG   UNL     3      -7.872  12.001  69.935  1.00  0.00    -0.330 Mg 
HETATM    2  O   UNL     4      -7.311   7.091  73.689  1.00  0.00    -0.080 OA 
HETATM    3  C   UNL     4      -7.146   7.642  72.397  1.00  0.00    -0.076 C  
HETATM    4  H   UNL     4      -6.491   7.004  74.162  1.00  0.00     0.000 HD 
HETATM    5  O   UNL     5     -12.756  13.839  64.280  1.00  0.00    -0.659 OA 
HETATM    6  H   UNL     5     -13.520  14.296  64.612  1.00  0.00     0.000 HD 
HETATM    7  C   UNL     5     -12.486  12.650  65.023  1.00  0.00    -0.487 C  
ENDROOT
BRANCH   3   8
HETATM    8  C   UNL     4      -8.472   7.781  71.633  1.00  0.00    -0.111 C  
HETATM    9  O   UNL     4      -8.429   6.977  70.439  1.00  0.00    -0.137 OA 
HETATM   10  H   UNL     4      -9.249   7.063  69.967  1.00  0.00     0.000 HD 
BRANCH   8  11
HETATM   11  C   UNL     4      -9.799   7.419  72.361  1.00  0.00    -0.167 C  
HETATM   12  O   UNL     4      -9.770   7.701  73.757  1.00  0.00    -0.293 OA 
HETATM   13  H   UNL     4     -10.580   7.481  74.201  1.00  0.00     0.000 HD 
BRANCH  11  14
HETATM   14  C   UNL     4     -11.133   7.883  71.717  1.00  0.00    -0.253 C  
HETATM   15  H   UNL     4     -11.744   8.170  69.884  1.00  0.00     0.000 HD 
HETATM   16  O   UNL     4     -10.927   7.886  70.278  1.00  0.00    -0.252 OA 
BRANCH  14  17
HETATM   17  C   UNL     4     -11.801   9.211  72.176  1.00  0.00    -0.263 C  
HETATM   18  C   UNL     4     -13.365   9.067  72.387  1.00  0.00    -0.460 C  
HETATM   19  H   UNL     4     -11.815  11.137  71.640  1.00  0.00     0.000 HD 
HETATM   20  O   UNL     4     -11.408  10.325  71.359  1.00  0.00    -0.218 OA 
HETATM   21  O   UNL     4     -13.720   7.926  72.906  1.00  0.00     0.426 OA 
HETATM   22  O   UNL     4     -14.125   9.985  71.972  1.00  0.00    -0.033 OA 
ENDBRANCH  14  17
ENDBRANCH  11  14
ENDBRANCH   8  11
ENDBRANCH   3   8
BRANCH   7  23
HETATM   23  C   UNL     5     -11.246  11.908  64.485  1.00  0.00    -0.319 C  
HETATM   24  O   UNL     5     -10.703  12.670  63.404  1.00  0.00    -0.483 OA 
HETATM   25  H   UNL     5      -9.939  12.213  63.073  1.00  0.00     0.000 HD 
BRANCH  23  26
HETATM   26  C   UNL     5     -10.193  11.680  65.590  1.00  0.00    -0.243 C  
HETATM   27  O   UNL     5      -8.880  11.588  64.990  1.00  0.00    -0.399 OA 
HETATM   28  H   UNL     5      -8.232  11.448  65.670  1.00  0.00     0.000 HD 
BRANCH  26  29
HETATM   29  C   UNL     5     -10.168  12.670  66.788  1.00  0.00    -0.237 C  
HETATM   30  O   UNL     5      -8.858  13.152  67.084  1.00  0.00    -0.207 OA 
HETATM   31  H   UNL     5      -8.843  13.758  67.816  1.00  0.00     0.000 HD 
BRANCH  29  32
HETATM   32  C   UNL     5     -10.920  12.270  68.067  1.00  0.00    -0.225 C  
HETATM   33  C   UNL     5     -11.709  13.395  68.769  1.00  0.00    -0.340 C  
HETATM   34  O   UNL     5     -10.004  11.622  69.020  1.00  0.00    -0.389 OA 
HETATM   35  O   UNL     5     -12.241  14.275  68.030  1.00  0.00    -0.293 OA 
HETATM   36  O   UNL     5     -11.664  13.329  70.049  1.00  0.00    -0.287 OA 
HETATM   37  H   UNL     5     -10.468  11.374  69.811  1.00  0.00     0.000 HD 
ENDBRANCH  29  32
ENDBRANCH  26  29
ENDBRANCH  23  26
ENDBRANCH   7  23
TORSDOF 8
ENDMDL
MODEL      362
REMARK 921   NORMALIZED FREE ENERGY PREDICTED BY IDOCK:   -4.08 KCAL/MOL
REMARK 922        TOTAL FREE ENERGY PREDICTED BY IDOCK:   -8.24 KCAL/MOL
REMARK 923 INTER-LIGAND FREE ENERGY PREDICTED BY IDOCK:   -7.03 KCAL/MOL
REMARK 924 INTRA-LIGAND FREE ENERGY PREDICTED BY IDOCK:   -1.21 KCAL/MOL
REMARK 927      BINDING AFFINITY PREDICTED BY RF-SCORE:    0.00 PKD
ROOT
HETATM    1 MG   UNL     3      -9.975  11.738  66.263  1.00  0.00    -0.195 Mg 
HETATM    2  O   UNL     4      -7.086  17.225  66.521  1.00  0.00    -0.209 OA 
HETATM    3  C   UNL     4      -7.117  15.862  66.902  1.00  0.00    -0.096 C  
HETATM    4  H   UNL     4      -6.447  17.405  65.841  1.00  0.00     0.000 HD 
HETATM    5  O   UNL     5     -14.201   7.714  71.279  1.00  0.00    -0.592 OA 
HETATM    6  H   UNL     5     -15.122   7.941  71.223  1.00  0.00     0.000 HD 
HETATM    7  C   UNL     5     -13.374   8.873  71.370  1.00  0.00    -0.261 C  
ENDROOT
BRANCH   3   8
HETATM    8  C   UNL     4      -8.149  15.571  68.001  1.00  0.00    -0.136 C  
HETATM    9  O   UNL     4      -8.573  16.807  68.606  1.00  0.00    -0.243 OA 
HETATM   10  H   UNL     4      -9.212  16.627  69.286  1.00  0.00     0.000 HD 
BRANCH   8  11
HETATM   11  C   UNL     4      -9.446  14.796  67.626  1.00  0.00    -0.204 C  
HETATM   12  O   UNL     4      -9.839  13.847  68.612  1.00  0.00    -0.257 OA 
HETATM   13  H   UNL     4     -10.630  13.374  68.383  1.00  0.00     0.000 HD 
BRANCH  11  14
HETATM   14  C   UNL     4     -10.660  15.613  67.110  1.00  0.00    -0.308 C  
HETATM   15  H   UNL     4     -12.428  16.042  67.824  1.00  0.00     0.000 HD 
HETATM   16  O   UNL     4     -11.685  15.542  68.139  1.00  0.00    -0.342 OA 
BRANCH  14  17
HETATM   17  C   UNL     4     -11.269  15.308  65.711  1.00  0.00    -0.247 C  
HETATM   18  C   UNL     4     -11.357  13.754  65.411  1.00  0.00    -0.308 C  
HETATM   19  H   UNL     4     -11.025  15.898  63.817  1.00  0.00     0.000 HD 
HETATM   20  O   UNL     4     -10.653  16.084  64.672  1.00  0.00    -0.564 OA 
HETATM   21  O   UNL     4     -11.677  13.037  66.450  1.00  0.00    -0.351 OA 
HETATM   22  O   UNL     4     -11.036  13.335  64.265  1.00  0.00    -0.378 OA 
ENDBRANCH  14  17
ENDBRANCH  11  14
ENDBRANCH   8  11
ENDBRANCH   3   8
BRANCH   7  23
HETATM   23  C   UNL     5     -11.880   8.504  71.461  1.00  0.00    -0.299 C  
HETATM   24  O   UNL     5     -11.472   8.622  72.825  1.00  0.00    -0.214 OA 
HETATM   25  H   UNL     5     -10.551   8.395  72.881  1.00  0.00     0.000 HD 
BRANCH  23  26
HETATM   26  C   UNL     5     -11.609   7.084  70.919  1.00  0.00    -0.328 C  
HETATM   27  O   UNL     5     -11.579   7.120  69.474  1.00  0.00    -0.512 OA 
HETATM   28  H   UNL     5     -11.412   6.246  69.141  1.00  0.00     0.000 HD 
BRANCH  26  29
HETATM   29  C   UNL     5     -10.368   6.322  71.464  1.00  0.00    -0.204 C  
HETATM   30  O   UNL     5      -9.221   7.160  71.608  1.00  0.00    -0.145 OA 
HETATM   31  H   UNL     5      -8.462   6.694  71.941  1.00  0.00     0.000 HD 
BRANCH  29  32
HETATM   32  C   UNL     5     -10.003   4.981  70.809  1.00  0.00    -0.221 C  
HETATM   33  C   UNL     5      -8.934   4.140  71.537  1.00  0.00    -0.119 C  
HETATM   34  O   UNL     5      -9.618   5.183  69.402  1.00  0.00    -0.135 OA 
HETATM   35  O   UNL     5      -8.919   4.196  72.803  1.00  0.00    -0.105 OA 
HETATM   36  O   UNL     5      -8.133   3.532  70.741  1.00  0.00    -0.056 OA 
HETATM   37  H   UNL     5      -9.392   4.355  68.997  1.00  0.00     0.000 HD 
ENDBRANCH  29  32
ENDBRANCH  26  29
ENDBRANCH  23  26
ENDBRANCH   7  23
TORSDOF 8
ENDMDL
MODEL      363
REMARK 921   NORMALIZED FREE ENERGY PREDICTED BY IDOCK:   -4.07 KCAL/MOL
REMARK 922        TOTAL FREE ENERGY PREDICTED BY IDOCK:   -8.22 KCAL/MOL
REMARK 923 INTER-LIGAND FREE ENERGY PREDICTED BY IDOCK:   -6.66 KCAL/MOL
REMARK 924 INTRA-LIGAND FREE ENERGY PREDICTED BY IDOCK:   -1.57 KCAL/MOL
REMARK 927      BINDING AFFINITY PREDICTED BY RF-SCORE:    0.00 PKD
ROOT
HETATM    1 MG   UNL     3     -10.450  14.405  64.974  1.00  0.00    -0.277 Mg 
HETATM    2  O   UNL     4     -11.157   8.686  67.280  1.00  0.00    -0.387 OA 
HETATM    3  C   UNL     4     -11.257  10.084  67.477  1.00  0.00     0.025 C  
HETATM    4  H   UNL     4     -12.001   8.270  67.144  1.00  0.00     0.000 HD 
HETATM    5  O   UNL     5      -5.284  19.994  66.108  1.00  0.00    -0.164 OA 
HETATM    6  H   UNL     5      -4.546  19.913  65.516  1.00  0.00     0.000 HD 
HETATM    7  C   UNL     5      -5.580  18.757  66.756  1.00  0.00    -0.150 C  
ENDROOT
BRANCH   3   8
HETATM    8  C   UNL     4      -9.893  10.755  67.698  1.00  0.00    -0.171 C  
HETATM    9  O   UNL     4      -9.967  11.639  68.832  1.00  0.00    -0.346 OA 
HETATM   10  H   UNL     4      -9.124  12.055  68.969  1.00  0.00     0.000 HD 
BRANCH   8  11
HETATM   11  C   UNL     4      -8.641   9.857  67.920  1.00  0.00    -0.125 C  
HETATM   12  O   UNL     4      -8.854   8.820  68.872  1.00  0.00    -0.135 OA 
HETATM   13  H   UNL     4      -8.090   8.272  69.007  1.00  0.00     0.000 HD 
BRANCH  11  14
HETATM   14  C   UNL     4      -7.892   9.330  66.666  1.00  0.00    -0.104 C  
HETATM   15  H   UNL     4      -6.275   8.270  66.380  1.00  0.00     0.000 HD 
HETATM   16  O   UNL     4      -6.734   8.593  67.147  1.00  0.00    -0.061 OA 
BRANCH  14  17
HETATM   17  C   UNL     4      -7.482  10.313  65.532  1.00  0.00    -0.149 C  
HETATM   18  C   UNL     4      -8.271  10.050  64.183  1.00  0.00    -0.159 C  
HETATM   19  H   UNL     4      -5.805  11.003  64.691  1.00  0.00     0.000 HD 
HETATM   20  O   UNL     4      -6.056  10.403  65.383  1.00  0.00    -0.113 OA 
HETATM   21  O   UNL     4      -9.518   9.719  64.362  1.00  0.00    -0.274 OA 
HETATM   22  O   UNL     4      -7.641  10.089  63.090  1.00  0.00    -0.135 OA 
ENDBRANCH  14  17
ENDBRANCH  11  14
ENDBRANCH   8  11
ENDBRANCH   3   8
BRANCH   7  23
HETATM   23  C   UNL     5      -6.779  18.888  67.717  1.00  0.00    -0.210 C  
HETATM   24  O   UNL     5      -6.455  19.864  68.709  1.00  0.00    -0.278 OA 
HETATM   25  H   UNL     5      -7.193  19.944  69.300  1.00  0.00     0.000 HD 
BRANCH  23  26
HETATM   26  C   UNL     5      -8.074  19.267  66.966  1.00  0.00    -0.263 C  
HETATM   27  O   UNL     5      -8.001  18.776  65.608  1.00  0.00    -0.441 OA 
HETATM   28  H   UNL     5      -8.798  19.010  65.146  1.00  0.00     0.000 HD 
BRANCH  26  29
HETATM   29  C   UNL     5      -9.432  18.869  67.610  1.00  0.00    -0.301 C  
HETATM   30  O   UNL     5      -9.312  17.791  68.536  1.00  0.00    -0.283 OA 
HETATM   31  H   UNL     5     -10.142  17.547  68.930  1.00  0.00     0.000 HD 
BRANCH  29  32
HETATM   32  C   UNL     5     -10.640  18.677  66.679  1.00  0.00    -0.359 C  
HETATM   33  C   UNL     5     -10.599  17.433  65.767  1.00  0.00    -0.182 C  
HETATM   34  O   UNL     5     -10.867  19.889  65.874  1.00  0.00    -0.410 OA 
HETATM   35  O   UNL     5     -10.049  16.392  66.234  1.00  0.00    -0.296 OA 
HETATM   36  O   UNL     5     -11.081  17.642  64.596  1.00  0.00    -0.906 OA 
HETATM   37  H   UNL     5     -11.614  19.770  65.299  1.00  0.00     0.000 HD 
ENDBRANCH  29  32
ENDBRANCH  26  29
ENDBRANCH  23  26
ENDBRANCH   7  23
TORSDOF 8
ENDMDL
MODEL      364
REMARK 921   NORMALIZED FREE ENERGY PREDICTED BY IDOCK:   -4.07 KCAL/MOL
REMARK 922        TOTAL FREE ENERGY PREDICTED BY IDOCK:   -8.21 KCAL/MOL
REMARK 923 INTER-LIGAND FREE ENERGY PREDICTED BY IDOCK:   -6.68 KCAL/MOL
REMARK 924 INTRA-LIGAND FREE ENERGY PREDICTED BY IDOCK:   -1.54 KCAL/MOL
REMARK 927      BINDING AFFINITY PREDICTED BY RF-SCORE:    0.00 PKD
ROOT
HETATM    1 MG   UNL     3     -11.481  14.799  64.924  1.00  0.00    -0.315 Mg 
HETATM    2  O   UNL     4     -11.490   9.781  68.577  1.00  0.00    -0.508 OA 
HETATM    3  C   UNL     4     -11.727  11.169  68.439  1.00  0.00    -0.279 C  
HETATM    4  H   UNL     4     -12.290   9.269  68.599  1.00  0.00     0.000 HD 
HETATM    5  O   UNL     5      -6.889  20.946  64.346  1.00  0.00    -0.490 OA 
HETATM    6  H   UNL     5      -6.171  20.792  63.744  1.00  0.00     0.000 HD 
HETATM    7  C   UNL     5      -7.027  19.885  65.290  1.00  0.00    -0.241 C  
ENDROOT
BRANCH   3   8
HETATM    8  C   UNL     4     -10.434  11.997  68.403  1.00  0.00    -0.219 C  
HETATM    9  O   UNL     4      -9.330  11.153  68.026  1.00  0.00    -0.156 OA 
HETATM   10  H   UNL     4      -8.529  11.665  68.004  1.00  0.00     0.000 HD 
BRANCH   8  11
HETATM   11  C   UNL     4     -10.369  13.247  67.478  1.00  0.00    -0.229 C  
HETATM   12  O   UNL     4     -11.640  13.635  66.966  1.00  0.00    -0.323 OA 
HETATM   13  H   UNL     4     -11.600  14.398  66.402  1.00  0.00     0.000 HD 
BRANCH  11  14
HETATM   14  C   UNL     4      -9.558  14.476  67.971  1.00  0.00    -0.217 C  
HETATM   15  H   UNL     4      -8.198  14.760  69.344  1.00  0.00     0.000 HD 
HETATM   16  O   UNL     4      -8.695  14.009  69.043  1.00  0.00    -0.005 OA 
BRANCH  14  17
HETATM   17  C   UNL     4     -10.295  15.780  68.391  1.00  0.00    -0.233 C  
HETATM   18  C   UNL     4     -11.301  15.551  69.594  1.00  0.00    -0.315 C  
HETATM   19  H   UNL     4     -11.307  17.268  67.521  1.00  0.00     0.000 HD 
HETATM   20  O   UNL     4     -10.857  16.471  67.265  1.00  0.00    -0.280 OA 
HETATM   21  O   UNL     4     -10.864  14.712  70.490  1.00  0.00    -0.035 OA 
HETATM   22  O   UNL     4     -12.436  16.100  69.554  1.00  0.00    -0.051 OA 
ENDBRANCH  14  17
ENDBRANCH  11  14
ENDBRANCH   8  11
ENDBRANCH   3   8
BRANCH   7  23
HETATM   23  C   UNL     5      -8.193  20.136  66.267  1.00  0.00    -0.225 C  
HETATM   24  O   UNL     5      -9.325  20.571  65.511  1.00  0.00    -0.471 OA 
HETATM   25  H   UNL     5     -10.043  20.726  66.113  1.00  0.00     0.000 HD 
BRANCH  23  26
HETATM   26  C   UNL     5      -8.528  18.876  67.094  1.00  0.00    -0.276 C  
HETATM   27  O   UNL     5      -7.964  17.713  66.444  1.00  0.00    -0.247 OA 
HETATM   28  H   UNL     5      -8.170  16.938  66.953  1.00  0.00     0.000 HD 
BRANCH  26  29
HETATM   29  C   UNL     5      -8.162  18.878  68.604  1.00  0.00    -0.345 C  
HETATM   30  O   UNL     5      -9.110  19.583  69.405  1.00  0.00    -0.165 OA 
HETATM   31  H   UNL     5      -8.887  19.584  70.328  1.00  0.00     0.000 HD 
BRANCH  29  32
HETATM   32  C   UNL     5      -6.720  19.241  68.994  1.00  0.00    -0.316 C  
HETATM   33  C   UNL     5      -5.922  18.146  69.732  1.00  0.00    -0.231 C  
HETATM   34  O   UNL     5      -6.697  20.494  69.768  1.00  0.00    -0.098 OA 
HETATM   35  O   UNL     5      -6.154  16.944  69.406  1.00  0.00    -0.191 OA 
HETATM   36  O   UNL     5      -5.155  18.604  70.652  1.00  0.00    -0.214 OA 
HETATM   37  H   UNL     5      -5.806  20.718  70.009  1.00  0.00     0.000 HD 
ENDBRANCH  29  32
ENDBRANCH  26  29
ENDBRANCH  23  26
ENDBRANCH   7  23
TORSDOF 8
ENDMDL
MODEL      365
REMARK 921   NORMALIZED FREE ENERGY PREDICTED BY IDOCK:   -4.06 KCAL/MOL
REMARK 922        TOTAL FREE ENERGY PREDICTED BY IDOCK:   -8.20 KCAL/MOL
REMARK 923 INTER-LIGAND FREE ENERGY PREDICTED BY IDOCK:   -7.13 KCAL/MOL
REMARK 924 INTRA-LIGAND FREE ENERGY PREDICTED BY IDOCK:   -1.07 KCAL/MOL
REMARK 927      BINDING AFFINITY PREDICTED BY RF-SCORE:    0.00 PKD
ROOT
HETATM    1 MG   UNL     3     -11.493  16.067  64.903  1.00  0.00    -0.334 Mg 
HETATM    2  O   UNL     4     -11.776  10.651  67.921  1.00  0.00    -0.690 OA 
HETATM    3  C   UNL     4     -11.649  12.058  67.984  1.00  0.00    -0.342 C  
HETATM    4  H   UNL     4     -12.640  10.345  68.172  1.00  0.00     0.000 HD 
HETATM    5  O   UNL     5      -5.782  20.968  63.299  1.00  0.00    -0.229 OA 
HETATM    6  H   UNL     5      -5.355  20.752  62.478  1.00  0.00     0.000 HD 
HETATM    7  C   UNL     5      -5.913  19.825  64.144  1.00  0.00    -0.241 C  
ENDROOT
BRANCH   3   8
HETATM    8  C   UNL     4     -10.253  12.552  67.578  1.00  0.00    -0.217 C  
HETATM    9  O   UNL     4      -9.317  11.460  67.638  1.00  0.00    -0.155 OA 
HETATM   10  H   UNL     4      -8.452  11.766  67.387  1.00  0.00     0.000 HD 
BRANCH   8  11
HETATM   11  C   UNL     4     -10.068  13.215  66.182  1.00  0.00    -0.291 C  
HETATM   12  O   UNL     4      -8.890  14.009  66.087  1.00  0.00    -0.453 OA 
HETATM   13  H   UNL     4      -8.778  14.413  65.235  1.00  0.00     0.000 HD 
BRANCH  11  14
HETATM   14  C   UNL     4     -10.256  12.326  64.923  1.00  0.00    -0.281 C  
HETATM   15  H   UNL     4     -11.798  11.535  64.021  1.00  0.00     0.000 HD 
HETATM   16  O   UNL     4     -11.683  12.079  64.791  1.00  0.00    -0.333 OA 
BRANCH  14  17
HETATM   17  C   UNL     4      -9.456  11.000  64.778  1.00  0.00    -0.230 C  
HETATM   18  C   UNL     4      -8.953  10.751  63.296  1.00  0.00    -0.220 C  
HETATM   19  H   UNL     4      -9.652   9.077  65.285  1.00  0.00     0.000 HD 
HETATM   20  O   UNL     4     -10.141   9.887  65.373  1.00  0.00    -0.313 OA 
HETATM   21  O   UNL     4      -8.567  11.834  62.684  1.00  0.00    -0.105 OA 
HETATM   22  O   UNL     4      -9.044   9.591  62.807  1.00  0.00    -0.259 OA 
ENDBRANCH  14  17
ENDBRANCH  11  14
ENDBRANCH   8  11
ENDBRANCH   3   8
BRANCH   7  23
HETATM   23  C   UNL     5      -6.606  20.176  65.476  1.00  0.00    -0.267 C  
HETATM   24  O   UNL     5      -7.992  20.400  65.215  1.00  0.00    -0.400 OA 
HETATM   25  H   UNL     5      -8.419  20.616  66.035  1.00  0.00     0.000 HD 
BRANCH  23  26
HETATM   26  C   UNL     5      -6.411  19.065  66.531  1.00  0.00    -0.187 C  
HETATM   27  O   UNL     5      -6.035  19.663  67.793  1.00  0.00    -0.193 OA 
HETATM   28  H   UNL     5      -5.915  18.979  68.442  1.00  0.00     0.000 HD 
BRANCH  26  29
HETATM   29  C   UNL     5      -7.568  18.049  66.741  1.00  0.00    -0.220 C  
HETATM   30  O   UNL     5      -7.939  17.374  65.539  1.00  0.00    -0.320 OA 
HETATM   31  H   UNL     5      -8.647  16.753  65.667  1.00  0.00     0.000 HD 
BRANCH  29  32
HETATM   32  C   UNL     5      -8.805  18.520  67.523  1.00  0.00    -0.265 C  
HETATM   33  C   UNL     5      -9.027  17.859  68.900  1.00  0.00    -0.115 C  
HETATM   34  O   UNL     5     -10.016  18.391  66.697  1.00  0.00    -0.327 OA 
HETATM   35  O   UNL     5      -7.994  17.553  69.567  1.00  0.00     0.197 OA 
HETATM   36  O   UNL     5     -10.261  17.636  69.166  1.00  0.00    -0.342 OA 
HETATM   37  H   UNL     5     -10.780  18.681  67.180  1.00  0.00     0.000 HD 
ENDBRANCH  29  32
ENDBRANCH  26  29
ENDBRANCH  23  26
ENDBRANCH   7  23
TORSDOF 8
ENDMDL
MODEL      366
REMARK 921   NORMALIZED FREE ENERGY PREDICTED BY IDOCK:   -4.06 KCAL/MOL
REMARK 922        TOTAL FREE ENERGY PREDICTED BY IDOCK:   -8.20 KCAL/MOL
REMARK 923 INTER-LIGAND FREE ENERGY PREDICTED BY IDOCK:   -7.05 KCAL/MOL
REMARK 924 INTRA-LIGAND FREE ENERGY PREDICTED BY IDOCK:   -1.14 KCAL/MOL
REMARK 927      BINDING AFFINITY PREDICTED BY RF-SCORE:    0.00 PKD
ROOT
HETATM    1 MG   UNL     3     -12.559  10.013  68.926  1.00  0.00    -0.503 Mg 
HETATM    2  O   UNL     4      -9.647   4.570  69.568  1.00  0.00    -0.161 OA 
HETATM    3  C   UNL     4      -9.655   5.965  69.802  1.00  0.00    -0.153 C  
HETATM    4  H   UNL     4      -9.854   4.062  70.344  1.00  0.00     0.000 HD 
HETATM    5  O   UNL     5     -11.407  16.163  64.447  1.00  0.00    -0.781 OA 
HETATM    6  H   UNL     5     -11.864  16.083  63.618  1.00  0.00     0.000 HD 
HETATM    7  C   UNL     5     -10.652  14.990  64.750  1.00  0.00    -0.291 C  
ENDROOT
BRANCH   3   8
HETATM    8  C   UNL     4      -9.321   6.784  68.547  1.00  0.00    -0.126 C  
HETATM    9  O   UNL     4      -9.484   5.963  67.375  1.00  0.00    -0.111 OA 
HETATM   10  H   UNL     4      -9.277   6.470  66.599  1.00  0.00     0.000 HD 
BRANCH   8  11
HETATM   11  C   UNL     4     -10.110   8.099  68.278  1.00  0.00    -0.197 C  
HETATM   12  O   UNL     4     -11.229   8.271  69.142  1.00  0.00    -0.423 OA 
HETATM   13  H   UNL     4     -11.710   9.073  68.977  1.00  0.00     0.000 HD 
BRANCH  11  14
HETATM   14  C   UNL     4      -9.302   9.416  68.128  1.00  0.00    -0.133 C  
HETATM   15  H   UNL     4      -9.482  11.017  67.024  1.00  0.00     0.000 HD 
HETATM   16  O   UNL     4      -9.977  10.212  67.115  1.00  0.00    -0.179 OA 
BRANCH  14  17
HETATM   17  C   UNL     4      -7.772   9.365  67.854  1.00  0.00    -0.088 C  
HETATM   18  C   UNL     4      -7.011  10.641  68.405  1.00  0.00    -0.066 C  
HETATM   19  H   UNL     4      -6.543   9.006  66.319  1.00  0.00     0.000 HD 
HETATM   20  O   UNL     4      -7.477   9.038  66.487  1.00  0.00    -0.087 OA 
HETATM   21  O   UNL     4      -7.471  11.075  69.544  1.00  0.00    -0.114 OA 
HETATM   22  O   UNL     4      -6.118  11.175  67.692  1.00  0.00    -0.047 OA 
ENDBRANCH  14  17
ENDBRANCH  11  14
ENDBRANCH   8  11
ENDBRANCH   3   8
BRANCH   7  23
HETATM   23  C   UNL     5      -9.911  15.120  66.096  1.00  0.00    -0.300 C  
HETATM   24  O   UNL     5      -8.602  15.632  65.839  1.00  0.00    -0.332 OA 
HETATM   25  H   UNL     5      -8.145  15.712  66.668  1.00  0.00     0.000 HD 
BRANCH  23  26
HETATM   26  C   UNL     5     -10.678  16.024  67.086  1.00  0.00    -0.283 C  
HETATM   27  O   UNL     5     -11.258  15.208  68.129  1.00  0.00    -0.292 OA 
HETATM   28  H   UNL     5     -11.730  15.765  68.738  1.00  0.00     0.000 HD 
BRANCH  26  29
HETATM   29  C   UNL     5      -9.919  17.231  67.706  1.00  0.00    -0.301 C  
HETATM   30  O   UNL     5     -10.633  17.843  68.780  1.00  0.00    -0.351 OA 
HETATM   31  H   UNL     5     -10.169  18.580  69.159  1.00  0.00     0.000 HD 
BRANCH  29  32
HETATM   32  C   UNL     5      -9.338  18.283  66.748  1.00  0.00    -0.295 C  
HETATM   33  C   UNL     5      -8.823  19.582  67.403  1.00  0.00    -0.308 C  
HETATM   34  O   UNL     5     -10.305  18.601  65.684  1.00  0.00    -0.572 OA 
HETATM   35  O   UNL     5      -8.295  19.481  68.550  1.00  0.00    -0.343 OA 
HETATM   36  O   UNL     5      -9.064  20.634  66.710  1.00  0.00    -0.218 OA 
HETATM   37  H   UNL     5      -9.946  19.251  65.093  1.00  0.00     0.000 HD 
ENDBRANCH  29  32
ENDBRANCH  26  29
ENDBRANCH  23  26
ENDBRANCH   7  23
TORSDOF 8
ENDMDL
MODEL      367
REMARK 921   NORMALIZED FREE ENERGY PREDICTED BY IDOCK:   -4.04 KCAL/MOL
REMARK 922        TOTAL FREE ENERGY PREDICTED BY IDOCK:   -8.17 KCAL/MOL
REMARK 923 INTER-LIGAND FREE ENERGY PREDICTED BY IDOCK:   -6.25 KCAL/MOL
REMARK 924 INTRA-LIGAND FREE ENERGY PREDICTED BY IDOCK:   -1.93 KCAL/MOL
REMARK 927      BINDING AFFINITY PREDICTED BY RF-SCORE:    0.00 PKD
ROOT
HETATM    1 MG   UNL     3      -6.414  12.073  69.144  1.00  0.00    -0.058 Mg 
HETATM    2  O   UNL     4     -10.373  16.565  67.512  1.00  0.00    -0.281 OA 
HETATM    3  C   UNL     4     -10.056  15.502  68.389  1.00  0.00    -0.214 C  
HETATM    4  H   UNL     4     -10.234  17.421  67.901  1.00  0.00     0.000 HD 
HETATM    5  O   UNL     5      -6.494   4.409  68.458  1.00  0.00    -0.035 OA 
HETATM    6  H   UNL     5      -6.113   4.127  67.635  1.00  0.00     0.000 HD 
HETATM    7  C   UNL     5      -7.461   5.441  68.269  1.00  0.00    -0.073 C  
ENDROOT
BRANCH   3   8
HETATM    8  C   UNL     4     -10.280  14.119  67.760  1.00  0.00    -0.242 C  
HETATM    9  O   UNL     4      -9.690  13.106  68.596  1.00  0.00    -0.368 OA 
HETATM   10  H   UNL     4      -9.829  12.250  68.206  1.00  0.00     0.000 HD 
BRANCH   8  11
HETATM   11  C   UNL     4     -11.737  13.656  67.468  1.00  0.00    -0.371 C  
HETATM   12  O   UNL     4     -12.648  14.737  67.296  1.00  0.00    -0.379 OA 
HETATM   13  H   UNL     4     -13.537  14.454  67.117  1.00  0.00     0.000 HD 
BRANCH  11  14
HETATM   14  C   UNL     4     -11.951  12.559  66.390  1.00  0.00    -0.318 C  
HETATM   15  H   UNL     4     -11.819  10.610  66.372  1.00  0.00     0.000 HD 
HETATM   16  O   UNL     4     -11.689  11.281  67.032  1.00  0.00    -0.503 OA 
BRANCH  14  17
HETATM   17  C   UNL     4     -11.206  12.649  65.027  1.00  0.00    -0.296 C  
HETATM   18  C   UNL     4     -12.088  12.139  63.814  1.00  0.00    -0.525 C  
HETATM   19  H   UNL     4      -9.434  12.134  64.259  1.00  0.00     0.000 HD 
HETATM   20  O   UNL     4      -9.889  12.078  65.091  1.00  0.00    -0.248 OA 
HETATM   21  O   UNL     4     -13.347  12.461  63.910  1.00  0.00    -0.565 OA 
HETATM   22  O   UNL     4     -11.552  11.413  62.932  1.00  0.00     0.135 OA 
ENDBRANCH  14  17
ENDBRANCH  11  14
ENDBRANCH   8  11
ENDBRANCH   3   8
BRANCH   7  23
HETATM   23  C   UNL     5      -8.078   5.899  69.606  1.00  0.00    -0.106 C  
HETATM   24  O   UNL     5      -7.181   5.542  70.659  1.00  0.00    -0.068 OA 
HETATM   25  H   UNL     5      -7.561   5.824  71.482  1.00  0.00     0.000 HD 
BRANCH  23  26
HETATM   26  C   UNL     5      -8.368   7.416  69.612  1.00  0.00    -0.132 C  
HETATM   27  O   UNL     5      -7.118   8.142  69.610  1.00  0.00    -0.055 OA 
HETATM   28  H   UNL     5      -7.297   9.076  69.614  1.00  0.00     0.000 HD 
BRANCH  26  29
HETATM   29  C   UNL     5      -9.319   7.978  68.519  1.00  0.00    -0.142 C  
HETATM   30  O   UNL     5      -8.718   9.009  67.736  1.00  0.00    -0.124 OA 
HETATM   31  H   UNL     5      -9.299   9.353  67.068  1.00  0.00     0.000 HD 
BRANCH  29  32
HETATM   32  C   UNL     5     -10.750   8.355  68.936  1.00  0.00    -0.068 C  
HETATM   33  C   UNL     5     -10.876   9.494  69.970  1.00  0.00    -0.252 C  
HETATM   34  O   UNL     5     -11.480   7.164  69.402  1.00  0.00    -0.495 OA 
HETATM   35  O   UNL     5     -10.020  10.426  69.909  1.00  0.00    -0.186 OA 
HETATM   36  O   UNL     5     -11.816   9.308  70.822  1.00  0.00    -0.281 OA 
HETATM   37  H   UNL     5     -12.364   7.396  69.659  1.00  0.00     0.000 HD 
ENDBRANCH  29  32
ENDBRANCH  26  29
ENDBRANCH  23  26
ENDBRANCH   7  23
TORSDOF 8
ENDMDL
MODEL      368
REMARK 921   NORMALIZED FREE ENERGY PREDICTED BY IDOCK:   -4.04 KCAL/MOL
REMARK 922        TOTAL FREE ENERGY PREDICTED BY IDOCK:   -8.17 KCAL/MOL
REMARK 923 INTER-LIGAND FREE ENERGY PREDICTED BY IDOCK:   -5.19 KCAL/MOL
REMARK 924 INTRA-LIGAND FREE ENERGY PREDICTED BY IDOCK:   -2.99 KCAL/MOL
REMARK 927      BINDING AFFINITY PREDICTED BY RF-SCORE:    0.00 PKD
ROOT
HETATM    1 MG   UNL     3      -7.147   9.862  68.279  1.00  0.00    -0.067 Mg 
HETATM    2  O   UNL     4      -8.491   4.085  70.107  1.00  0.00    -0.063 OA 
HETATM    3  C   UNL     4      -8.796   5.183  69.268  1.00  0.00    -0.095 C  
HETATM    4  H   UNL     4      -8.054   3.377  69.647  1.00  0.00     0.000 HD 
HETATM    5  O   UNL     5     -10.430  16.717  69.479  1.00  0.00    -0.310 OA 
HETATM    6  H   UNL     5     -10.093  17.134  70.263  1.00  0.00     0.000 HD 
HETATM    7  C   UNL     5     -10.817  15.365  69.723  1.00  0.00    -0.288 C  
ENDROOT
BRANCH   3   8
HETATM    8  C   UNL     4      -9.502   6.326  70.012  1.00  0.00    -0.155 C  
HETATM    9  O   UNL     4     -10.021   5.841  71.264  1.00  0.00    -0.180 OA 
HETATM   10  H   UNL     4     -10.459   6.548  71.724  1.00  0.00     0.000 HD 
BRANCH   8  11
HETATM   11  C   UNL     4      -8.697   7.618  70.339  1.00  0.00    -0.143 C  
HETATM   12  O   UNL     4      -7.370   7.600  69.824  1.00  0.00    -0.077 OA 
HETATM   13  H   UNL     4      -6.880   8.389  70.024  1.00  0.00     0.000 HD 
BRANCH  11  14
HETATM   14  C   UNL     4      -9.385   8.987  70.087  1.00  0.00    -0.192 C  
HETATM   15  H   UNL     4     -10.247  10.319  71.227  1.00  0.00     0.000 HD 
HETATM   16  O   UNL     4      -9.826   9.481  71.381  1.00  0.00    -0.200 OA 
BRANCH  14  17
HETATM   17  C   UNL     4     -10.527   9.106  69.038  1.00  0.00    -0.221 C  
HETATM   18  C   UNL     4      -9.990   9.095  67.547  1.00  0.00    -0.205 C  
HETATM   19  H   UNL     4     -12.129  10.252  68.700  1.00  0.00     0.000 HD 
HETATM   20  O   UNL     4     -11.431  10.180  69.341  1.00  0.00    -0.218 OA 
HETATM   21  O   UNL     4      -8.989   8.284  67.356  1.00  0.00    -0.132 OA 
HETATM   22  O   UNL     4     -10.485   9.903  66.714  1.00  0.00    -0.230 OA 
ENDBRANCH  14  17
ENDBRANCH  11  14
ENDBRANCH   8  11
ENDBRANCH   3   8
BRANCH   7  23
HETATM   23  C   UNL     5     -11.363  14.688  68.449  1.00  0.00    -0.292 C  
HETATM   24  O   UNL     5     -11.403  15.663  67.406  1.00  0.00    -0.281 OA 
HETATM   25  H   UNL     5     -11.739  15.247  66.621  1.00  0.00     0.000 HD 
BRANCH  23  26
HETATM   26  C   UNL     5     -10.509  13.469  68.039  1.00  0.00    -0.242 C  
HETATM   27  O   UNL     5     -11.380  12.370  67.687  1.00  0.00    -0.271 OA 
HETATM   28  H   UNL     5     -10.854  11.620  67.435  1.00  0.00     0.000 HD 
BRANCH  26  29
HETATM   29  C   UNL     5      -9.429  13.673  66.940  1.00  0.00    -0.262 C  
HETATM   30  O   UNL     5      -9.246  12.520  66.120  1.00  0.00    -0.375 OA 
HETATM   31  H   UNL     5      -8.586  12.645  65.448  1.00  0.00     0.000 HD 
BRANCH  29  32
HETATM   32  C   UNL     5      -8.081  14.281  67.361  1.00  0.00    -0.196 C  
HETATM   33  C   UNL     5      -7.380  13.607  68.559  1.00  0.00    -0.114 C  
HETATM   34  O   UNL     5      -8.221  15.726  67.603  1.00  0.00    -0.143 OA 
HETATM   35  O   UNL     5      -7.520  12.353  68.680  1.00  0.00    -0.111 OA 
HETATM   36  O   UNL     5      -6.787  14.437  69.337  1.00  0.00    -0.123 OA 
HETATM   37  H   UNL     5      -7.389  16.102  67.863  1.00  0.00     0.000 HD 
ENDBRANCH  29  32
ENDBRANCH  26  29
ENDBRANCH  23  26
ENDBRANCH   7  23
TORSDOF 8
ENDMDL
MODEL      369
REMARK 921   NORMALIZED FREE ENERGY PREDICTED BY IDOCK:   -4.02 KCAL/MOL
REMARK 922        TOTAL FREE ENERGY PREDICTED BY IDOCK:   -8.14 KCAL/MOL
REMARK 923 INTER-LIGAND FREE ENERGY PREDICTED BY IDOCK:   -6.59 KCAL/MOL
REMARK 924 INTRA-LIGAND FREE ENERGY PREDICTED BY IDOCK:   -1.55 KCAL/MOL
REMARK 927      BINDING AFFINITY PREDICTED BY RF-SCORE:    0.00 PKD
ROOT
HETATM    1 MG   UNL     3      -5.595  10.424  70.743  1.00  0.00    -0.042 Mg 
HETATM    2  O   UNL     4      -5.465  16.071  68.173  1.00  0.00    -0.097 OA 
HETATM    3  C   UNL     4      -6.113  15.157  69.038  1.00  0.00    -0.098 C  
HETATM    4  H   UNL     4      -4.982  16.743  68.640  1.00  0.00     0.000 HD 
HETATM    5  O   UNL     5      -9.903   4.154  69.587  1.00  0.00    -0.217 OA 
HETATM    6  H   UNL     5      -9.529   3.589  68.921  1.00  0.00     0.000 HD 
HETATM    7  C   UNL     5      -9.974   5.511  69.152  1.00  0.00    -0.190 C  
ENDROOT
BRANCH   3   8
HETATM    8  C   UNL     4      -6.894  14.072  68.284  1.00  0.00    -0.108 C  
HETATM    9  O   UNL     4      -7.284  13.031  69.200  1.00  0.00    -0.265 OA 
HETATM   10  H   UNL     4      -7.767  12.359  68.733  1.00  0.00     0.000 HD 
BRANCH   8  11
HETATM   11  C   UNL     4      -8.179  14.477  67.504  1.00  0.00    -0.187 C  
HETATM   12  O   UNL     4      -7.944  15.466  66.507  1.00  0.00    -0.317 OA 
HETATM   13  H   UNL     4      -8.728  15.713  66.031  1.00  0.00     0.000 HD 
BRANCH  11  14
HETATM   14  C   UNL     4      -9.096  13.343  66.972  1.00  0.00    -0.243 C  
HETATM   15  H   UNL     4     -10.266  13.140  65.420  1.00  0.00     0.000 HD 
HETATM   16  O   UNL     4      -9.704  13.833  65.745  1.00  0.00    -0.244 OA 
BRANCH  14  17
HETATM   17  C   UNL     4     -10.172  12.709  67.900  1.00  0.00    -0.220 C  
HETATM   18  C   UNL     4     -10.723  11.331  67.344  1.00  0.00    -0.242 C  
HETATM   19  H   UNL     4     -11.846  13.266  68.840  1.00  0.00     0.000 HD 
HETATM   20  O   UNL     4     -11.189  13.653  68.272  1.00  0.00    -0.248 OA 
HETATM   21  O   UNL     4      -9.811  10.593  66.777  1.00  0.00    -0.186 OA 
HETATM   22  O   UNL     4     -11.961  11.099  67.404  1.00  0.00    -0.532 OA 
ENDBRANCH  14  17
ENDBRANCH  11  14
ENDBRANCH   8  11
ENDBRANCH   3   8
BRANCH   7  23
HETATM   23  C   UNL     5     -10.582   6.427  70.233  1.00  0.00    -0.237 C  
HETATM   24  O   UNL     5     -10.469   5.767  71.495  1.00  0.00    -0.218 OA 
HETATM   25  H   UNL     5     -10.843   6.331  72.161  1.00  0.00     0.000 HD 
BRANCH  23  26
HETATM   26  C   UNL     5      -9.893   7.809  70.264  1.00  0.00    -0.184 C  
HETATM   27  O   UNL     5      -9.829   8.343  68.922  1.00  0.00    -0.171 OA 
HETATM   28  H   UNL     5      -9.405   9.193  68.942  1.00  0.00     0.000 HD 
BRANCH  26  29
HETATM   29  C   UNL     5     -10.452   8.878  71.244  1.00  0.00    -0.287 C  
HETATM   30  O   UNL     5      -9.908   8.766  72.558  1.00  0.00    -0.249 OA 
HETATM   31  H   UNL     5     -10.249   9.420  73.157  1.00  0.00     0.000 HD 
BRANCH  29  32
HETATM   32  C   UNL     5     -11.974   9.091  71.283  1.00  0.00    -0.312 C  
HETATM   33  C   UNL     5     -12.449  10.555  71.401  1.00  0.00    -0.411 C  
HETATM   34  O   UNL     5     -12.580   8.274  72.347  1.00  0.00    -0.469 OA 
HETATM   35  O   UNL     5     -11.750  11.438  70.821  1.00  0.00    -0.241 OA 
HETATM   36  O   UNL     5     -13.481  10.698  72.149  1.00  0.00    -0.373 OA 
HETATM   37  H   UNL     5     -13.520   8.405  72.372  1.00  0.00     0.000 HD 
ENDBRANCH  29  32
ENDBRANCH  26  29
ENDBRANCH  23  26
ENDBRANCH   7  23
TORSDOF 8
ENDMDL
MODEL      370
REMARK 921   NORMALIZED FREE ENERGY PREDICTED BY IDOCK:   -4.00 KCAL/MOL
REMARK 922        TOTAL FREE ENERGY PREDICTED BY IDOCK:   -8.12 KCAL/MOL
REMARK 923 INTER-LIGAND FREE ENERGY PREDICTED BY IDOCK:   -6.37 KCAL/MOL
REMARK 924 INTRA-LIGAND FREE ENERGY PREDICTED BY IDOCK:   -1.75 KCAL/MOL
REMARK 927      BINDING AFFINITY PREDICTED BY RF-SCORE:    0.00 PKD
ROOT
HETATM    1 MG   UNL     3      -6.890   8.684  67.190  1.00  0.00    -0.057 Mg 
HETATM    2  O   UNL     4      -5.144   4.904  71.793  1.00  0.00    -0.004 OA 
HETATM    3  C   UNL     4      -6.192   5.575  71.119  1.00  0.00    -0.034 C  
HETATM    4  H   UNL     4      -5.112   3.975  71.596  1.00  0.00     0.000 HD 
HETATM    5  O   UNL     5      -9.195  16.020  66.920  1.00  0.00    -0.206 OA 
HETATM    6  H   UNL     5      -8.461  16.615  66.819  1.00  0.00     0.000 HD 
HETATM    7  C   UNL     5      -8.974  15.078  67.969  1.00  0.00    -0.173 C  
ENDROOT
BRANCH   3   8
HETATM    8  C   UNL     4      -6.243   7.077  71.438  1.00  0.00    -0.037 C  
HETATM    9  O   UNL     4      -5.619   7.819  70.374  1.00  0.00    -0.023 OA 
HETATM   10  H   UNL     4      -5.651   8.748  70.572  1.00  0.00     0.000 HD 
BRANCH   8  11
HETATM   11  C   UNL     4      -7.627   7.743  71.689  1.00  0.00    -0.086 C  
HETATM   12  O   UNL     4      -7.541   9.141  71.943  1.00  0.00    -0.340 OA 
HETATM   13  H   UNL     4      -8.386   9.548  72.095  1.00  0.00     0.000 HD 
BRANCH  11  14
HETATM   14  C   UNL     4      -8.782   7.417  70.704  1.00  0.00    -0.142 C  
HETATM   15  H   UNL     4      -9.167   7.871  68.843  1.00  0.00     0.000 HD 
HETATM   16  O   UNL     4      -8.460   8.071  69.446  1.00  0.00    -0.129 OA 
BRANCH  14  17
HETATM   17  C   UNL     4     -10.257   7.704  71.108  1.00  0.00    -0.195 C  
HETATM   18  C   UNL     4     -11.297   6.865  70.256  1.00  0.00    -0.324 C  
HETATM   19  H   UNL     4     -11.436   9.287  71.423  1.00  0.00     0.000 HD 
HETATM   20  O   UNL     4     -10.535   9.111  71.175  1.00  0.00    -0.261 OA 
HETATM   21  O   UNL     4     -10.901   5.653  69.991  1.00  0.00    -0.325 OA 
HETATM   22  O   UNL     4     -12.342   7.434  69.837  1.00  0.00     0.442 OA 
ENDBRANCH  14  17
ENDBRANCH  11  14
ENDBRANCH   8  11
ENDBRANCH   3   8
BRANCH   7  23
HETATM   23  C   UNL     5     -10.165  14.114  68.132  1.00  0.00    -0.241 C  
HETATM   24  O   UNL     5      -9.805  13.114  69.088  1.00  0.00    -0.391 OA 
HETATM   25  H   UNL     5     -10.539  12.520  69.188  1.00  0.00     0.000 HD 
BRANCH  23  26
HETATM   26  C   UNL     5     -11.448  14.858  68.562  1.00  0.00    -0.315 C  
HETATM   27  O   UNL     5     -12.560  14.401  67.758  1.00  0.00    -0.516 OA 
HETATM   28  H   UNL     5     -13.349  14.859  68.023  1.00  0.00     0.000 HD 
BRANCH  26  29
HETATM   29  C   UNL     5     -11.830  14.840  70.068  1.00  0.00    -0.311 C  
HETATM   30  O   UNL     5     -10.696  14.937  70.930  1.00  0.00    -0.535 OA 
HETATM   31  H   UNL     5     -10.930  14.926  71.851  1.00  0.00     0.000 HD 
BRANCH  29  32
HETATM   32  C   UNL     5     -12.807  13.755  70.549  1.00  0.00    -0.142 C  
HETATM   33  C   UNL     5     -13.720  14.142  71.731  1.00  0.00    -0.408 C  
HETATM   34  O   UNL     5     -12.084  12.509  70.854  1.00  0.00    -0.447 OA 
HETATM   35  O   UNL     5     -14.108  15.347  71.791  1.00  0.00    -0.493 OA 
HETATM   36  O   UNL     5     -13.916  13.184  72.561  1.00  0.00    -0.676 OA 
HETATM   37  H   UNL     5     -12.687  11.839  71.151  1.00  0.00     0.000 HD 
ENDBRANCH  29  32
ENDBRANCH  26  29
ENDBRANCH  23  26
ENDBRANCH   7  23
TORSDOF 8
ENDMDL
MODEL      371
REMARK 921   NORMALIZED FREE ENERGY PREDICTED BY IDOCK:   -3.97 KCAL/MOL
REMARK 922        TOTAL FREE ENERGY PREDICTED BY IDOCK:   -8.07 KCAL/MOL
REMARK 923 INTER-LIGAND FREE ENERGY PREDICTED BY IDOCK:   -6.06 KCAL/MOL
REMARK 924 INTRA-LIGAND FREE ENERGY PREDICTED BY IDOCK:   -2.01 KCAL/MOL
REMARK 927      BINDING AFFINITY PREDICTED BY RF-SCORE:    0.00 PKD
ROOT
HETATM    1 MG   UNL     3      -6.334  11.907  68.521  1.00  0.00    -0.050 Mg 
HETATM    2  O   UNL     4     -10.365  14.924  64.893  1.00  0.00    -0.407 OA 
HETATM    3  C   UNL     4     -10.096  14.305  66.136  1.00  0.00    -0.313 C  
HETATM    4  H   UNL     4     -10.360  15.873  64.944  1.00  0.00     0.000 HD 
HETATM    5  O   UNL     5      -5.656   4.580  70.770  1.00  0.00    -0.013 OA 
HETATM    6  H   UNL     5      -5.133   4.073  70.160  1.00  0.00     0.000 HD 
HETATM    7  C   UNL     5      -6.668   5.332  70.101  1.00  0.00    -0.044 C  
ENDROOT
BRANCH   3   8
HETATM    8  C   UNL     4     -10.104  12.771  66.054  1.00  0.00    -0.268 C  
HETATM    9  O   UNL     4      -9.696  12.355  64.737  1.00  0.00    -0.455 OA 
HETATM   10  H   UNL     4      -9.701  11.406  64.686  1.00  0.00     0.000 HD 
BRANCH   8  11
HETATM   11  C   UNL     4      -9.236  11.961  67.061  1.00  0.00    -0.191 C  
HETATM   12  O   UNL     4      -8.484  12.785  67.945  1.00  0.00    -0.152 OA 
HETATM   13  H   UNL     4      -7.955  12.290  68.560  1.00  0.00     0.000 HD 
BRANCH  11  14
HETATM   14  C   UNL     4      -9.907  10.783  67.818  1.00  0.00    -0.166 C  
HETATM   15  H   UNL     4     -10.873   9.175  67.271  1.00  0.00     0.000 HD 
HETATM   16  O   UNL     4     -10.462   9.896  66.808  1.00  0.00    -0.230 OA 
BRANCH  14  17
HETATM   17  C   UNL     4     -10.955  11.067  68.931  1.00  0.00    -0.227 C  
HETATM   18  C   UNL     4     -10.850  10.049  70.142  1.00  0.00    -0.311 C  
HETATM   19  H   UNL     4     -12.920  11.403  69.080  1.00  0.00     0.000 HD 
HETATM   20  O   UNL     4     -12.280  11.229  68.400  1.00  0.00    -0.604 OA 
HETATM   21  O   UNL     4      -9.626   9.720  70.444  1.00  0.00    -0.252 OA 
HETATM   22  O   UNL     4     -11.910   9.583  70.642  1.00  0.00    -0.270 OA 
ENDBRANCH  14  17
ENDBRANCH  11  14
ENDBRANCH   8  11
ENDBRANCH   3   8
BRANCH   7  23
HETATM   23  C   UNL     5      -7.518   6.154  71.090  1.00  0.00    -0.085 C  
HETATM   24  O   UNL     5      -6.663   7.098  71.738  1.00  0.00    -0.051 OA 
HETATM   25  H   UNL     5      -7.186   7.604  72.348  1.00  0.00     0.000 HD 
BRANCH  23  26
HETATM   26  C   UNL     5      -8.693   6.863  70.382  1.00  0.00    -0.147 C  
HETATM   27  O   UNL     5      -8.311   7.186  69.026  1.00  0.00    -0.124 OA 
HETATM   28  H   UNL     5      -9.034   7.622  68.590  1.00  0.00     0.000 HD 
BRANCH  26  29
HETATM   29  C   UNL     5     -10.080   6.162  70.398  1.00  0.00    -0.189 C  
HETATM   30  O   UNL     5     -10.051   4.885  71.035  1.00  0.00    -0.209 OA 
HETATM   31  H   UNL     5     -10.899   4.457  71.045  1.00  0.00     0.000 HD 
BRANCH  29  32
HETATM   32  C   UNL     5     -10.877   6.115  69.084  1.00  0.00    -0.351 C  
HETATM   33  C   UNL     5     -10.253   5.281  67.945  1.00  0.00    -0.145 C  
HETATM   34  O   UNL     5     -11.172   7.477  68.612  1.00  0.00    -0.423 OA 
HETATM   35  O   UNL     5      -9.608   4.242  68.276  1.00  0.00    -0.154 OA 
HETATM   36  O   UNL     5     -10.416   5.800  66.784  1.00  0.00    -0.234 OA 
HETATM   37  H   UNL     5     -11.664   7.448  67.800  1.00  0.00     0.000 HD 
ENDBRANCH  29  32
ENDBRANCH  26  29
ENDBRANCH  23  26
ENDBRANCH   7  23
TORSDOF 8
ENDMDL
MODEL      372
REMARK 921   NORMALIZED FREE ENERGY PREDICTED BY IDOCK:   -3.97 KCAL/MOL
REMARK 922        TOTAL FREE ENERGY PREDICTED BY IDOCK:   -8.07 KCAL/MOL
REMARK 923 INTER-LIGAND FREE ENERGY PREDICTED BY IDOCK:   -7.31 KCAL/MOL
REMARK 924 INTRA-LIGAND FREE ENERGY PREDICTED BY IDOCK:   -0.76 KCAL/MOL
REMARK 927      BINDING AFFINITY PREDICTED BY RF-SCORE:    0.00 PKD
ROOT
HETATM    1 MG   UNL     3     -10.412  14.535  69.891  1.00  0.00    -0.219 Mg 
HETATM    2  O   UNL     4     -11.041  16.287  63.970  1.00  0.00    -1.204 OA 
HETATM    3  C   UNL     4     -11.461  15.445  65.027  1.00  0.00    -0.263 C  
HETATM    4  H   UNL     4     -11.651  16.994  63.795  1.00  0.00     0.000 HD 
HETATM    5  O   UNL     5      -7.340   8.364  73.312  1.00  0.00    -0.223 OA 
HETATM    6  H   UNL     5      -6.416   8.487  73.491  1.00  0.00     0.000 HD 
HETATM    7  C   UNL     5      -7.668   8.703  71.964  1.00  0.00    -0.045 C  
ENDROOT
BRANCH   3   8
HETATM    8  C   UNL     4     -10.474  14.302  65.309  1.00  0.00    -0.389 C  
HETATM    9  O   UNL     4     -10.054  13.708  64.067  1.00  0.00    -0.710 OA 
HETATM   10  H   UNL     4      -9.444  13.000  64.242  1.00  0.00     0.000 HD 
BRANCH   8  11
HETATM   11  C   UNL     4      -9.177  14.613  66.111  1.00  0.00    -0.175 C  
HETATM   12  O   UNL     4      -8.639  15.901  65.834  1.00  0.00    -0.289 OA 
HETATM   13  H   UNL     4      -7.847  16.090  66.324  1.00  0.00     0.000 HD 
BRANCH  11  14
HETATM   14  C   UNL     4      -9.173  14.313  67.635  1.00  0.00    -0.194 C  
HETATM   15  H   UNL     4      -8.465  15.225  69.210  1.00  0.00     0.000 HD 
HETATM   16  O   UNL     4      -8.467  15.409  68.278  1.00  0.00    -0.153 OA 
BRANCH  14  17
HETATM   17  C   UNL     4      -8.650  12.944  68.159  1.00  0.00    -0.188 C  
HETATM   18  C   UNL     4      -7.121  12.705  67.820  1.00  0.00    -0.126 C  
HETATM   19  H   UNL     4      -9.201  11.023  68.119  1.00  0.00     0.000 HD 
HETATM   20  O   UNL     4      -9.520  11.859  67.799  1.00  0.00    -0.174 OA 
HETATM   21  O   UNL     4      -6.390  13.779  67.913  1.00  0.00    -0.128 OA 
HETATM   22  O   UNL     4      -6.756  11.567  67.415  1.00  0.00    -0.082 OA 
ENDBRANCH  14  17
ENDBRANCH  11  14
ENDBRANCH   8  11
ENDBRANCH   3   8
BRANCH   7  23
HETATM   23  C   UNL     5      -9.169   8.503  71.674  1.00  0.00    -0.236 C  
HETATM   24  O   UNL     5      -9.658   9.675  71.017  1.00  0.00    -0.276 OA 
HETATM   25  H   UNL     5     -10.582   9.552  70.838  1.00  0.00     0.000 HD 
BRANCH  23  26
HETATM   26  C   UNL     5      -9.423   7.241  70.821  1.00  0.00    -0.164 C  
HETATM   27  O   UNL     5      -8.432   6.238  71.142  1.00  0.00    -0.123 OA 
HETATM   28  H   UNL     5      -8.588   5.462  70.618  1.00  0.00     0.000 HD 
BRANCH  26  29
HETATM   29  C   UNL     5     -10.847   6.618  70.849  1.00  0.00    -0.252 C  
HETATM   30  O   UNL     5     -11.758   7.275  69.969  1.00  0.00    -0.509 OA 
HETATM   31  H   UNL     5     -12.628   6.895  69.986  1.00  0.00     0.000 HD 
BRANCH  29  32
HETATM   32  C   UNL     5     -11.487   6.351  72.221  1.00  0.00    -0.298 C  
HETATM   33  C   UNL     5     -11.174   4.981  72.858  1.00  0.00    -0.271 C  
HETATM   34  O   UNL     5     -12.943   6.560  72.158  1.00  0.00    -0.539 OA 
HETATM   35  O   UNL     5     -10.024   4.494  72.645  1.00  0.00    -0.153 OA 
HETATM   36  O   UNL     5     -12.171   4.468  73.481  1.00  0.00     0.072 OA 
HETATM   37  H   UNL     5     -13.339   6.395  73.005  1.00  0.00     0.000 HD 
ENDBRANCH  29  32
ENDBRANCH  26  29
ENDBRANCH  23  26
ENDBRANCH   7  23
TORSDOF 8
ENDMDL
MODEL      373
REMARK 921   NORMALIZED FREE ENERGY PREDICTED BY IDOCK:   -3.95 KCAL/MOL
REMARK 922        TOTAL FREE ENERGY PREDICTED BY IDOCK:   -8.04 KCAL/MOL
REMARK 923 INTER-LIGAND FREE ENERGY PREDICTED BY IDOCK:   -6.55 KCAL/MOL
REMARK 924 INTRA-LIGAND FREE ENERGY PREDICTED BY IDOCK:   -1.49 KCAL/MOL
REMARK 927      BINDING AFFINITY PREDICTED BY RF-SCORE:    0.00 PKD
ROOT
HETATM    1 MG   UNL     3     -10.886  13.888  69.653  1.00  0.00    -0.228 Mg 
HETATM    2  O   UNL     4     -12.749  14.621  63.779  1.00  0.00    -0.877 OA 
HETATM    3  C   UNL     4     -12.907  13.955  65.017  1.00  0.00    -0.268 C  
HETATM    4  H   UNL     4     -13.422  15.273  63.621  1.00  0.00     0.000 HD 
HETATM    5  O   UNL     5      -6.854   8.452  73.313  1.00  0.00    -0.117 OA 
HETATM    6  H   UNL     5      -5.921   8.627  73.282  1.00  0.00     0.000 HD 
HETATM    7  C   UNL     5      -7.455   8.554  72.023  1.00  0.00    -0.084 C  
ENDROOT
BRANCH   3   8
HETATM    8  C   UNL     4     -11.819  12.901  65.271  1.00  0.00    -0.392 C  
HETATM    9  O   UNL     4     -11.909  11.863  64.278  1.00  0.00    -0.331 OA 
HETATM   10  H   UNL     4     -11.236  11.210  64.436  1.00  0.00     0.000 HD 
BRANCH   8  11
HETATM   11  C   UNL     4     -10.330  13.353  65.304  1.00  0.00    -0.319 C  
HETATM   12  O   UNL     4     -10.071  14.496  64.496  1.00  0.00    -0.571 OA 
HETATM   13  H   UNL     4      -9.162  14.772  64.517  1.00  0.00     0.000 HD 
BRANCH  11  14
HETATM   14  C   UNL     4      -9.633  13.466  66.687  1.00  0.00    -0.270 C  
HETATM   15  H   UNL     4     -10.054  12.843  68.490  1.00  0.00     0.000 HD 
HETATM   16  O   UNL     4     -10.480  12.773  67.644  1.00  0.00    -0.216 OA 
BRANCH  14  17
HETATM   17  C   UNL     4      -9.214  14.860  67.237  1.00  0.00    -0.204 C  
HETATM   18  C   UNL     4      -7.904  14.795  68.127  1.00  0.00    -0.125 C  
HETATM   19  H   UNL     4     -10.059  16.408  68.177  1.00  0.00     0.000 HD 
HETATM   20  O   UNL     4     -10.314  15.557  67.841  1.00  0.00    -0.242 OA 
HETATM   21  O   UNL     4      -7.012  13.955  67.687  1.00  0.00    -0.158 OA 
HETATM   22  O   UNL     4      -7.861  15.461  69.198  1.00  0.00    -0.175 OA 
ENDBRANCH  14  17
ENDBRANCH  11  14
ENDBRANCH   8  11
ENDBRANCH   3   8
BRANCH   7  23
HETATM   23  C   UNL     5      -8.970   8.269  72.074  1.00  0.00    -0.196 C  
HETATM   24  O   UNL     5      -9.660   9.429  71.602  1.00  0.00    -0.260 OA 
HETATM   25  H   UNL     5     -10.593   9.253  71.633  1.00  0.00     0.000 HD 
BRANCH  23  26
HETATM   26  C   UNL     5      -9.345   7.023  71.243  1.00  0.00    -0.160 C  
HETATM   27  O   UNL     5      -8.146   6.442  70.682  1.00  0.00    -0.110 OA 
HETATM   28  H   UNL     5      -8.376   5.675  70.172  1.00  0.00     0.000 HD 
BRANCH  26  29
HETATM   29  C   UNL     5     -10.205   5.924  71.928  1.00  0.00    -0.203 C  
HETATM   30  O   UNL     5     -11.044   6.439  72.962  1.00  0.00    -0.326 OA 
HETATM   31  H   UNL     5     -11.570   5.768  73.381  1.00  0.00     0.000 HD 
BRANCH  29  32
HETATM   32  C   UNL     5      -9.502   4.631  72.370  1.00  0.00    -0.135 C  
HETATM   33  C   UNL     5      -9.699   3.406  71.452  1.00  0.00    -0.164 C  
HETATM   34  O   UNL     5      -9.870   4.292  73.754  1.00  0.00    -0.118 OA 
HETATM   35  O   UNL     5      -9.792   3.625  70.208  1.00  0.00    -0.174 OA 
HETATM   36  O   UNL     5      -9.814   2.301  72.094  1.00  0.00    -0.128 OA 
HETATM   37  H   UNL     5      -9.435   3.494  74.028  1.00  0.00     0.000 HD 
ENDBRANCH  29  32
ENDBRANCH  26  29
ENDBRANCH  23  26
ENDBRANCH   7  23
TORSDOF 8
ENDMDL
MODEL      374
REMARK 921   NORMALIZED FREE ENERGY PREDICTED BY IDOCK:   -3.93 KCAL/MOL
REMARK 922        TOTAL FREE ENERGY PREDICTED BY IDOCK:   -8.01 KCAL/MOL
REMARK 923 INTER-LIGAND FREE ENERGY PREDICTED BY IDOCK:   -6.16 KCAL/MOL
REMARK 924 INTRA-LIGAND FREE ENERGY PREDICTED BY IDOCK:   -1.85 KCAL/MOL
REMARK 927      BINDING AFFINITY PREDICTED BY RF-SCORE:    0.00 PKD
ROOT
HETATM    1 MG   UNL     3     -11.535   8.545  67.602  1.00  0.00    -0.492 Mg 
HETATM    2  O   UNL     4     -12.197  14.711  67.352  1.00  0.00    -0.571 OA 
HETATM    3  C   UNL     4     -11.364  13.600  67.624  1.00  0.00    -0.300 C  
HETATM    4  H   UNL     4     -11.997  15.130  66.523  1.00  0.00     0.000 HD 
HETATM    5  O   UNL     5     -11.162   3.467  73.372  1.00  0.00    -0.214 OA 
HETATM    6  H   UNL     5     -12.024   3.153  73.618  1.00  0.00     0.000 HD 
HETATM    7  C   UNL     5     -11.122   4.892  73.287  1.00  0.00    -0.337 C  
ENDROOT
BRANCH   3   8
HETATM    8  C   UNL     4     -11.688  12.923  68.964  1.00  0.00    -0.327 C  
HETATM    9  O   UNL     4     -12.631  13.727  69.697  1.00  0.00    -0.291 OA 
HETATM   10  H   UNL     4     -12.832  13.309  70.526  1.00  0.00     0.000 HD 
BRANCH   8  11
HETATM   11  C   UNL     4     -12.258  11.475  68.953  1.00  0.00    -0.064 C  
HETATM   12  O   UNL     4     -11.893  10.734  67.793  1.00  0.00    -0.697 OA 
HETATM   13  H   UNL     4     -12.241   9.850  67.788  1.00  0.00     0.000 HD 
BRANCH  11  14
HETATM   14  C   UNL     4     -12.103  10.622  70.242  1.00  0.00    -0.338 C  
HETATM   15  H   UNL     4     -11.973  11.028  72.148  1.00  0.00     0.000 HD 
HETATM   16  O   UNL     4     -12.068  11.550  71.360  1.00  0.00    -0.100 OA 
BRANCH  14  17
HETATM   17  C   UNL     4     -10.950   9.584  70.356  1.00  0.00    -0.278 C  
HETATM   18  C   UNL     4     -10.881   8.904  71.786  1.00  0.00    -0.365 C  
HETATM   19  H   UNL     4      -8.995   9.476  69.953  1.00  0.00     0.000 HD 
HETATM   20  O   UNL     4      -9.700  10.110  69.883  1.00  0.00    -0.222 OA 
HETATM   21  O   UNL     4     -12.050   8.664  72.309  1.00  0.00    -0.364 OA 
HETATM   22  O   UNL     4      -9.754   8.736  72.329  1.00  0.00    -0.301 OA 
ENDBRANCH  14  17
ENDBRANCH  11  14
ENDBRANCH   8  11
ENDBRANCH   3   8
BRANCH   7  23
HETATM   23  C   UNL     5      -9.723   5.401  72.887  1.00  0.00    -0.147 C  
HETATM   24  O   UNL     5      -8.936   5.530  74.073  1.00  0.00    -0.120 OA 
HETATM   25  H   UNL     5      -8.075   5.844  73.827  1.00  0.00     0.000 HD 
BRANCH  23  26
HETATM   26  C   UNL     5      -9.042   4.461  71.868  1.00  0.00    -0.126 C  
HETATM   27  O   UNL     5     -10.034   3.958  70.945  1.00  0.00    -0.176 OA 
HETATM   28  H   UNL     5      -9.616   3.379  70.317  1.00  0.00     0.000 HD 
BRANCH  26  29
HETATM   29  C   UNL     5      -7.809   5.001  71.091  1.00  0.00    -0.093 C  
HETATM   30  O   UNL     5      -8.160   5.627  69.858  1.00  0.00    -0.092 OA 
HETATM   31  H   UNL     5      -7.406   5.957  69.383  1.00  0.00     0.000 HD 
BRANCH  29  32
HETATM   32  C   UNL     5      -6.601   4.065  70.921  1.00  0.00    -0.031 C  
HETATM   33  C   UNL     5      -6.739   2.974  69.839  1.00  0.00    -0.034 C  
HETATM   34  O   UNL     5      -6.235   3.458  72.211  1.00  0.00    -0.013 OA 
HETATM   35  O   UNL     5      -7.400   3.270  68.800  1.00  0.00    -0.049 OA 
HETATM   36  O   UNL     5      -6.209   1.854  70.172  1.00  0.00    -0.023 OA 
HETATM   37  H   UNL     5      -5.489   2.880  72.106  1.00  0.00     0.000 HD 
ENDBRANCH  29  32
ENDBRANCH  26  29
ENDBRANCH  23  26
ENDBRANCH   7  23
TORSDOF 8
ENDMDL
MODEL      375
REMARK 921   NORMALIZED FREE ENERGY PREDICTED BY IDOCK:   -3.92 KCAL/MOL
REMARK 922        TOTAL FREE ENERGY PREDICTED BY IDOCK:   -8.00 KCAL/MOL
REMARK 923 INTER-LIGAND FREE ENERGY PREDICTED BY IDOCK:   -6.19 KCAL/MOL
REMARK 924 INTRA-LIGAND FREE ENERGY PREDICTED BY IDOCK:   -1.81 KCAL/MOL
REMARK 927      BINDING AFFINITY PREDICTED BY RF-SCORE:    0.00 PKD
ROOT
HETATM    1 MG   UNL     3     -10.197  11.259  67.745  1.00  0.00    -0.165 Mg 
HETATM    2  O   UNL     4      -8.813  17.044  65.975  1.00  0.00    -0.477 OA 
HETATM    3  C   UNL     4      -8.368  15.727  66.235  1.00  0.00    -0.131 C  
HETATM    4  H   UNL     4      -8.880  17.236  65.046  1.00  0.00     0.000 HD 
HETATM    5  O   UNL     5      -8.979   7.236  74.190  1.00  0.00    -0.201 OA 
HETATM    6  H   UNL     5      -9.687   7.350  74.813  1.00  0.00     0.000 HD 
HETATM    7  C   UNL     5      -8.511   8.488  73.688  1.00  0.00     0.042 C  
ENDROOT
BRANCH   3   8
HETATM    8  C   UNL     4      -8.259  15.418  67.735  1.00  0.00    -0.149 C  
HETATM    9  O   UNL     4      -8.081  16.643  68.471  1.00  0.00    -0.203 OA 
HETATM   10  H   UNL     4      -8.014  16.452  69.399  1.00  0.00     0.000 HD 
BRANCH   8  11
HETATM   11  C   UNL     4      -9.423  14.652  68.430  1.00  0.00    -0.209 C  
HETATM   12  O   UNL     4      -9.445  14.822  69.843  1.00  0.00    -0.418 OA 
HETATM   13  H   UNL     4     -10.155  14.354  70.266  1.00  0.00     0.000 HD 
BRANCH  11  14
HETATM   14  C   UNL     4     -10.846  14.782  67.821  1.00  0.00    -0.278 C  
HETATM   15  H   UNL     4     -12.024  16.282  67.398  1.00  0.00     0.000 HD 
HETATM   16  O   UNL     4     -11.153  16.202  67.770  1.00  0.00    -0.323 OA 
BRANCH  14  17
HETATM   17  C   UNL     4     -12.033  13.988  68.437  1.00  0.00    -0.343 C  
HETATM   18  C   UNL     4     -12.388  14.463  69.907  1.00  0.00    -0.314 C  
HETATM   19  H   UNL     4     -12.594  12.083  68.667  1.00  0.00     0.000 HD 
HETATM   20  O   UNL     4     -11.869  12.569  68.291  1.00  0.00    -0.324 OA 
HETATM   21  O   UNL     4     -12.284  15.750  70.081  1.00  0.00    -0.374 OA 
HETATM   22  O   UNL     4     -12.645  13.594  70.785  1.00  0.00    -0.338 OA 
ENDBRANCH  14  17
ENDBRANCH  11  14
ENDBRANCH   8  11
ENDBRANCH   3   8
BRANCH   7  23
HETATM   23  C   UNL     5      -7.361   8.303  72.677  1.00  0.00    -0.105 C  
HETATM   24  O   UNL     5      -6.466   7.316  73.191  1.00  0.00    -0.063 OA 
HETATM   25  H   UNL     5      -5.758   7.203  72.568  1.00  0.00     0.000 HD 
BRANCH  23  26
HETATM   26  C   UNL     5      -7.887   7.905  71.280  1.00  0.00    -0.088 C  
HETATM   27  O   UNL     5      -8.970   6.959  71.429  1.00  0.00    -0.141 OA 
HETATM   28  H   UNL     5      -9.294   6.713  70.569  1.00  0.00     0.000 HD 
BRANCH  26  29
HETATM   29  C   UNL     5      -8.296   9.043  70.304  1.00  0.00    -0.157 C  
HETATM   30  O   UNL     5      -7.713  10.301  70.643  1.00  0.00    -0.412 OA 
HETATM   31  H   UNL     5      -7.963  10.997  70.046  1.00  0.00     0.000 HD 
BRANCH  29  32
HETATM   32  C   UNL     5      -9.786   9.191  69.957  1.00  0.00    -0.195 C  
HETATM   33  C   UNL     5     -10.259   8.462  68.682  1.00  0.00    -0.201 C  
HETATM   34  O   UNL     5     -10.161  10.613  69.897  1.00  0.00    -0.435 OA 
HETATM   35  O   UNL     5      -9.701   7.358  68.407  1.00  0.00    -0.149 OA 
HETATM   36  O   UNL     5     -11.131   9.121  68.011  1.00  0.00    -0.044 OA 
HETATM   37  H   UNL     5     -11.081  10.705  69.682  1.00  0.00     0.000 HD 
ENDBRANCH  29  32
ENDBRANCH  26  29
ENDBRANCH  23  26
ENDBRANCH   7  23
TORSDOF 8
ENDMDL
MODEL      376
REMARK 921   NORMALIZED FREE ENERGY PREDICTED BY IDOCK:   -3.92 KCAL/MOL
REMARK 922        TOTAL FREE ENERGY PREDICTED BY IDOCK:   -8.00 KCAL/MOL
REMARK 923 INTER-LIGAND FREE ENERGY PREDICTED BY IDOCK:   -7.21 KCAL/MOL
REMARK 924 INTRA-LIGAND FREE ENERGY PREDICTED BY IDOCK:   -0.78 KCAL/MOL
REMARK 927      BINDING AFFINITY PREDICTED BY RF-SCORE:    0.00 PKD
ROOT
HETATM    1 MG   UNL     3     -12.500  10.855  71.356  1.00  0.00    -0.271 Mg 
HETATM    2  O   UNL     4     -12.184  16.683  69.246  1.00  0.00    -0.002 OA 
HETATM    3  C   UNL     4     -12.534  15.334  69.005  1.00  0.00     0.114 C  
HETATM    4  H   UNL     4     -12.938  17.239  69.408  1.00  0.00     0.000 HD 
HETATM    5  O   UNL     5      -8.432   4.472  69.971  1.00  0.00    -0.069 OA 
HETATM    6  H   UNL     5      -7.686   4.398  70.555  1.00  0.00     0.000 HD 
HETATM    7  C   UNL     5      -8.505   5.763  69.367  1.00  0.00    -0.112 C  
ENDROOT
BRANCH   3   8
HETATM    8  C   UNL     4     -11.316  14.437  68.745  1.00  0.00    -0.273 C  
HETATM    9  O   UNL     4     -11.137  13.530  69.849  1.00  0.00    -0.468 OA 
HETATM   10  H   UNL     4     -10.383  12.975  69.688  1.00  0.00     0.000 HD 
BRANCH   8  11
HETATM   11  C   UNL     4     -11.286  13.569  67.452  1.00  0.00    -0.295 C  
HETATM   12  O   UNL     4     -11.377  12.172  67.710  1.00  0.00    -0.264 OA 
HETATM   13  H   UNL     4     -11.359  11.643  66.921  1.00  0.00     0.000 HD 
BRANCH  11  14
HETATM   14  C   UNL     4     -12.202  13.989  66.272  1.00  0.00    -0.462 C  
HETATM   15  H   UNL     4     -13.527  13.069  65.170  1.00  0.00     0.000 HD 
HETATM   16  O   UNL     4     -12.967  12.812  65.892  1.00  0.00    -0.121 OA 
BRANCH  14  17
HETATM   17  C   UNL     4     -11.592  14.673  65.015  1.00  0.00    -0.385 C  
HETATM   18  C   UNL     4     -10.851  16.031  65.358  1.00  0.00    -0.328 C  
HETATM   19  H   UNL     4     -12.161  15.179  63.167  1.00  0.00     0.000 HD 
HETATM   20  O   UNL     4     -12.534  14.762  63.935  1.00  0.00    -0.811 OA 
HETATM   21  O   UNL     4     -10.200  16.003  66.486  1.00  0.00    -0.273 OA 
HETATM   22  O   UNL     4     -11.015  17.025  64.598  1.00  0.00    -0.968 OA 
ENDBRANCH  14  17
ENDBRANCH  11  14
ENDBRANCH   8  11
ENDBRANCH   3   8
BRANCH   7  23
HETATM   23  C   UNL     5      -9.715   5.883  68.419  1.00  0.00    -0.129 C  
HETATM   24  O   UNL     5     -10.329   4.597  68.310  1.00  0.00     0.006 OA 
HETATM   25  H   UNL     5     -11.074   4.671  67.726  1.00  0.00     0.000 HD 
BRANCH  23  26
HETATM   26  C   UNL     5     -10.725   6.941  68.913  1.00  0.00    -0.222 C  
HETATM   27  O   UNL     5     -11.103   6.643  70.276  1.00  0.00    -0.274 OA 
HETATM   28  H   UNL     5     -11.724   7.295  70.580  1.00  0.00     0.000 HD 
BRANCH  26  29
HETATM   29  C   UNL     5     -10.333   8.439  68.778  1.00  0.00    -0.206 C  
HETATM   30  O   UNL     5     -11.437   9.322  68.975  1.00  0.00    -0.400 OA 
HETATM   31  H   UNL     5     -11.198  10.238  68.893  1.00  0.00     0.000 HD 
BRANCH  29  32
HETATM   32  C   UNL     5      -9.493   8.856  67.560  1.00  0.00    -0.141 C  
HETATM   33  C   UNL     5      -9.031  10.328  67.528  1.00  0.00    -0.134 C  
HETATM   34  O   UNL     5     -10.195   8.518  66.311  1.00  0.00    -0.424 OA 
HETATM   35  O   UNL     5      -8.760  10.872  68.640  1.00  0.00    -0.142 OA 
HETATM   36  O   UNL     5      -9.049  10.843  66.354  1.00  0.00    -0.163 OA 
HETATM   37  H   UNL     5      -9.677   8.775  65.559  1.00  0.00     0.000 HD 
ENDBRANCH  29  32
ENDBRANCH  26  29
ENDBRANCH  23  26
ENDBRANCH   7  23
TORSDOF 8
ENDMDL
MODEL      377
REMARK 921   NORMALIZED FREE ENERGY PREDICTED BY IDOCK:   -3.91 KCAL/MOL
REMARK 922        TOTAL FREE ENERGY PREDICTED BY IDOCK:   -7.98 KCAL/MOL
REMARK 923 INTER-LIGAND FREE ENERGY PREDICTED BY IDOCK:   -6.39 KCAL/MOL
REMARK 924 INTRA-LIGAND FREE ENERGY PREDICTED BY IDOCK:   -1.59 KCAL/MOL
REMARK 927      BINDING AFFINITY PREDICTED BY RF-SCORE:    0.00 PKD
ROOT
HETATM    1 MG   UNL     3     -12.771  10.804  67.655  1.00  0.00     0.199 Mg 
HETATM    2  O   UNL     4     -14.163   8.754  73.345  1.00  0.00    -1.173 OA 
HETATM    3  C   UNL     4     -13.269   9.460  72.506  1.00  0.00    -0.325 C  
HETATM    4  H   UNL     4     -14.690   9.327  73.890  1.00  0.00     0.000 HD 
HETATM    5  O   UNL     5      -7.652   8.646  62.331  1.00  0.00    -0.105 OA 
HETATM    6  H   UNL     5      -8.006   7.981  61.754  1.00  0.00     0.000 HD 
HETATM    7  C   UNL     5      -7.864   8.323  63.705  1.00  0.00    -0.152 C  
ENDROOT
BRANCH   3   8
HETATM    8  C   UNL     4     -12.417   8.534  71.626  1.00  0.00    -0.330 C  
HETATM    9  O   UNL     4     -13.277   7.696  70.830  1.00  0.00    -0.567 OA 
HETATM   10  H   UNL     4     -12.749   7.123  70.286  1.00  0.00     0.000 HD 
BRANCH   8  11
HETATM   11  C   UNL     4     -11.388   9.168  70.645  1.00  0.00    -0.273 C  
HETATM   12  O   UNL     4     -11.088   8.337  69.529  1.00  0.00    -0.433 OA 
HETATM   13  H   UNL     4     -10.460   8.725  68.931  1.00  0.00     0.000 HD 
BRANCH  11  14
HETATM   14  C   UNL     4     -11.610  10.642  70.211  1.00  0.00    -0.336 C  
HETATM   15  H   UNL     4     -13.155  11.679  69.616  1.00  0.00     0.000 HD 
HETATM   16  O   UNL     4     -13.020  10.777  69.882  1.00  0.00    -0.118 OA 
BRANCH  14  17
HETATM   17  C   UNL     4     -10.726  11.268  69.094  1.00  0.00    -0.207 C  
HETATM   18  C   UNL     4     -11.151  12.753  68.739  1.00  0.00    -0.260 C  
HETATM   19  H   UNL     4     -10.049  10.778  67.278  1.00  0.00     0.000 HD 
HETATM   20  O   UNL     4     -10.590  10.397  67.960  1.00  0.00    -0.189 OA 
HETATM   21  O   UNL     4     -11.515  13.454  69.774  1.00  0.00    -0.245 OA 
HETATM   22  O   UNL     4     -11.192  13.103  67.527  1.00  0.00    -0.261 OA 
ENDBRANCH  14  17
ENDBRANCH  11  14
ENDBRANCH   8  11
ENDBRANCH   3   8
BRANCH   7  23
HETATM   23  C   UNL     5      -7.288   9.404  64.642  1.00  0.00    -0.104 C  
HETATM   24  O   UNL     5      -7.233  10.637  63.923  1.00  0.00    -0.342 OA 
HETATM   25  H   UNL     5      -6.879  11.303  64.501  1.00  0.00     0.000 HD 
BRANCH  23  26
HETATM   26  C   UNL     5      -8.127   9.547  65.931  1.00  0.00    -0.115 C  
HETATM   27  O   UNL     5      -9.091   8.473  65.997  1.00  0.00    -0.175 OA 
HETATM   28  H   UNL     5      -9.607   8.561  66.791  1.00  0.00     0.000 HD 
BRANCH  26  29
HETATM   29  C   UNL     5      -7.368   9.674  67.282  1.00  0.00    -0.087 C  
HETATM   30  O   UNL     5      -8.129   9.200  68.393  1.00  0.00    -0.102 OA 
HETATM   31  H   UNL     5      -7.665   9.277  69.219  1.00  0.00     0.000 HD 
BRANCH  29  32
HETATM   32  C   UNL     5      -6.687  11.015  67.601  1.00  0.00    -0.073 C  
HETATM   33  C   UNL     5      -6.618  11.400  69.093  1.00  0.00    -0.095 C  
HETATM   34  O   UNL     5      -7.304  12.103  66.824  1.00  0.00    -0.356 OA 
HETATM   35  O   UNL     5      -6.473  10.457  69.927  1.00  0.00    -0.077 OA 
HETATM   36  O   UNL     5      -6.790  12.653  69.306  1.00  0.00    -0.088 OA 
HETATM   37  H   UNL     5      -6.884  12.931  67.021  1.00  0.00     0.000 HD 
ENDBRANCH  29  32
ENDBRANCH  26  29
ENDBRANCH  23  26
ENDBRANCH   7  23
TORSDOF 8
ENDMDL
MODEL      378
REMARK 921   NORMALIZED FREE ENERGY PREDICTED BY IDOCK:   -3.90 KCAL/MOL
REMARK 922        TOTAL FREE ENERGY PREDICTED BY IDOCK:   -7.97 KCAL/MOL
REMARK 923 INTER-LIGAND FREE ENERGY PREDICTED BY IDOCK:   -6.81 KCAL/MOL
REMARK 924 INTRA-LIGAND FREE ENERGY PREDICTED BY IDOCK:   -1.16 KCAL/MOL
REMARK 927      BINDING AFFINITY PREDICTED BY RF-SCORE:    0.00 PKD
ROOT
HETATM    1 MG   UNL     3      -6.806  13.900  66.955  1.00  0.00    -0.169 Mg 
HETATM    2  O   UNL     4     -10.088  18.935  65.409  1.00  0.00    -0.270 OA 
HETATM    3  C   UNL     4      -9.867  17.877  66.321  1.00  0.00    -0.301 C  
HETATM    4  H   UNL     4      -9.766  19.771  65.725  1.00  0.00     0.000 HD 
HETATM    5  O   UNL     5      -8.262   6.346  66.788  1.00  0.00    -0.108 OA 
HETATM    6  H   UNL     5      -8.023   5.962  65.953  1.00  0.00     0.000 HD 
HETATM    7  C   UNL     5      -9.054   7.522  66.622  1.00  0.00    -0.158 C  
ENDROOT
BRANCH   3   8
HETATM    8  C   UNL     4     -10.389  16.526  65.808  1.00  0.00    -0.341 C  
HETATM    9  O   UNL     4     -10.807  16.658  64.437  1.00  0.00    -1.017 OA 
HETATM   10  H   UNL     4     -11.130  15.822  64.120  1.00  0.00     0.000 HD 
BRANCH   8  11
HETATM   11  C   UNL     4      -9.447  15.288  65.865  1.00  0.00    -0.316 C  
HETATM   12  O   UNL     4      -8.370  15.442  66.784  1.00  0.00    -0.235 OA 
HETATM   13  H   UNL     4      -7.796  14.686  66.818  1.00  0.00     0.000 HD 
BRANCH  11  14
HETATM   14  C   UNL     4     -10.097  13.883  65.984  1.00  0.00    -0.313 C  
HETATM   15  H   UNL     4     -11.798  13.107  65.417  1.00  0.00     0.000 HD 
HETATM   16  O   UNL     4     -11.401  13.967  65.345  1.00  0.00    -0.302 OA 
BRANCH  14  17
HETATM   17  C   UNL     4     -10.213  13.192  67.373  1.00  0.00    -0.232 C  
HETATM   18  C   UNL     4     -11.114  11.889  67.333  1.00  0.00    -0.279 C  
HETATM   19  H   UNL     4     -10.622  13.700  69.262  1.00  0.00     0.000 HD 
HETATM   20  O   UNL     4     -10.552  14.122  68.414  1.00  0.00    -0.244 OA 
HETATM   21  O   UNL     4     -10.970  11.185  66.246  1.00  0.00    -0.251 OA 
HETATM   22  O   UNL     4     -11.936  11.686  68.269  1.00  0.00    -0.516 OA 
ENDBRANCH  14  17
ENDBRANCH  11  14
ENDBRANCH   8  11
ENDBRANCH   3   8
BRANCH   7  23
HETATM   23  C   UNL     5      -9.441   8.146  67.978  1.00  0.00    -0.143 C  
HETATM   24  O   UNL     5     -10.834   8.462  67.944  1.00  0.00    -0.463 OA 
HETATM   25  H   UNL     5     -11.073   8.847  68.779  1.00  0.00     0.000 HD 
BRANCH  23  26
HETATM   26  C   UNL     5      -9.114   7.202  69.156  1.00  0.00    -0.137 C  
HETATM   27  O   UNL     5      -9.792   5.940  68.961  1.00  0.00    -0.139 OA 
HETATM   28  H   UNL     5      -9.590   5.359  69.686  1.00  0.00     0.000 HD 
BRANCH  26  29
HETATM   29  C   UNL     5      -7.618   6.962  69.501  1.00  0.00    -0.099 C  
HETATM   30  O   UNL     5      -7.214   5.606  69.311  1.00  0.00    -0.063 OA 
HETATM   31  H   UNL     5      -6.299   5.459  69.522  1.00  0.00     0.000 HD 
BRANCH  29  32
HETATM   32  C   UNL     5      -7.088   7.522  70.831  1.00  0.00    -0.059 C  
HETATM   33  C   UNL     5      -8.138   7.738  71.940  1.00  0.00    -0.104 C  
HETATM   34  O   UNL     5      -6.330   8.763  70.601  1.00  0.00    -0.035 OA 
HETATM   35  O   UNL     5      -9.099   6.914  71.994  1.00  0.00    -0.138 OA 
HETATM   36  O   UNL     5      -7.932   8.793  72.640  1.00  0.00    -0.380 OA 
HETATM   37  H   UNL     5      -6.003   9.110  71.422  1.00  0.00     0.000 HD 
ENDBRANCH  29  32
ENDBRANCH  26  29
ENDBRANCH  23  26
ENDBRANCH   7  23
TORSDOF 8
ENDMDL
MODEL      379
REMARK 921   NORMALIZED FREE ENERGY PREDICTED BY IDOCK:   -3.90 KCAL/MOL
REMARK 922        TOTAL FREE ENERGY PREDICTED BY IDOCK:   -7.97 KCAL/MOL
REMARK 923 INTER-LIGAND FREE ENERGY PREDICTED BY IDOCK:   -7.99 KCAL/MOL
REMARK 924 INTRA-LIGAND FREE ENERGY PREDICTED BY IDOCK:    0.02 KCAL/MOL
REMARK 927      BINDING AFFINITY PREDICTED BY RF-SCORE:    0.00 PKD
ROOT
HETATM    1 MG   UNL     3      -9.695  12.327  69.112  1.00  0.00    -0.314 Mg 
HETATM    2  O   UNL     4      -9.763   6.957  66.003  1.00  0.00    -0.402 OA 
HETATM    3  C   UNL     4      -9.006   7.973  66.632  1.00  0.00    -0.150 C  
HETATM    4  H   UNL     4      -9.820   6.162  66.521  1.00  0.00     0.000 HD 
HETATM    5  O   UNL     5      -7.872  19.555  67.201  1.00  0.00    -0.248 OA 
HETATM    6  H   UNL     5      -8.623  20.027  66.860  1.00  0.00     0.000 HD 
HETATM    7  C   UNL     5      -7.717  18.283  66.571  1.00  0.00    -0.251 C  
ENDROOT
BRANCH   3   8
HETATM    8  C   UNL     4      -8.914   9.256  65.794  1.00  0.00    -0.192 C  
HETATM    9  O   UNL     4      -9.782   9.151  64.650  1.00  0.00    -0.299 OA 
HETATM   10  H   UNL     4      -9.725   9.945  64.131  1.00  0.00     0.000 HD 
BRANCH   8  11
HETATM   11  C   UNL     4      -9.241  10.619  66.471  1.00  0.00    -0.166 C  
HETATM   12  O   UNL     4      -8.172  11.124  67.265  1.00  0.00    -0.128 OA 
HETATM   13  H   UNL     4      -8.372  11.956  67.678  1.00  0.00     0.000 HD 
BRANCH  11  14
HETATM   14  C   UNL     4      -9.873  11.735  65.596  1.00  0.00    -0.237 C  
HETATM   15  H   UNL     4      -9.853  13.688  65.639  1.00  0.00     0.000 HD 
HETATM   16  O   UNL     4      -9.467  13.006  66.175  1.00  0.00    -0.238 OA 
BRANCH  14  17
HETATM   17  C   UNL     4     -11.401  11.729  65.308  1.00  0.00    -0.222 C  
HETATM   18  C   UNL     4     -11.762  12.397  63.916  1.00  0.00    -0.447 C  
HETATM   19  H   UNL     4     -13.098  12.215  66.246  1.00  0.00     0.000 HD 
HETATM   20  O   UNL     4     -12.164  12.219  66.422  1.00  0.00    -0.613 OA 
HETATM   21  O   UNL     4     -10.904  12.137  62.972  1.00  0.00    -0.279 OA 
HETATM   22  O   UNL     4     -12.757  13.170  63.850  1.00  0.00    -0.667 OA 
ENDBRANCH  14  17
ENDBRANCH  11  14
ENDBRANCH   8  11
ENDBRANCH   3   8
BRANCH   7  23
HETATM   23  C   UNL     5      -6.498  17.517  67.124  1.00  0.00    -0.161 C  
HETATM   24  O   UNL     5      -5.956  16.718  66.070  1.00  0.00    -0.031 OA 
HETATM   25  H   UNL     5      -5.206  16.246  66.411  1.00  0.00     0.000 HD 
BRANCH  23  26
HETATM   26  C   UNL     5      -5.433  18.475  67.699  1.00  0.00    -0.159 C  
HETATM   27  O   UNL     5      -5.721  19.825  67.268  1.00  0.00    -0.174 OA 
HETATM   28  H   UNL     5      -5.065  20.415  67.622  1.00  0.00     0.000 HD 
BRANCH  26  29
HETATM   29  C   UNL     5      -5.178  18.443  69.232  1.00  0.00    -0.192 C  
HETATM   30  O   UNL     5      -5.905  17.409  69.895  1.00  0.00    -0.238 OA 
HETATM   31  H   UNL     5      -5.748  17.389  70.832  1.00  0.00     0.000 HD 
BRANCH  29  32
HETATM   32  C   UNL     5      -5.263  19.770  70.003  1.00  0.00    -0.202 C  
HETATM   33  C   UNL     5      -5.587  19.659  71.508  1.00  0.00    -0.319 C  
HETATM   34  O   UNL     5      -6.210  20.687  69.347  1.00  0.00    -0.299 OA 
HETATM   35  O   UNL     5      -5.128  18.652  72.125  1.00  0.00    -0.759 OA 
HETATM   36  O   UNL     5      -6.359  20.590  71.934  1.00  0.00    -0.600 OA 
HETATM   37  H   UNL     5      -6.262  21.507  69.823  1.00  0.00     0.000 HD 
ENDBRANCH  29  32
ENDBRANCH  26  29
ENDBRANCH  23  26
ENDBRANCH   7  23
TORSDOF 8
ENDMDL
MODEL      380
REMARK 921   NORMALIZED FREE ENERGY PREDICTED BY IDOCK:   -3.90 KCAL/MOL
REMARK 922        TOTAL FREE ENERGY PREDICTED BY IDOCK:   -7.97 KCAL/MOL
REMARK 923 INTER-LIGAND FREE ENERGY PREDICTED BY IDOCK:   -7.06 KCAL/MOL
REMARK 924 INTRA-LIGAND FREE ENERGY PREDICTED BY IDOCK:   -0.91 KCAL/MOL
REMARK 927      BINDING AFFINITY PREDICTED BY RF-SCORE:    0.00 PKD
ROOT
HETATM    1 MG   UNL     3     -13.193  10.017  72.444  1.00  0.00    -0.353 Mg 
HETATM    2  O   UNL     4     -12.834  15.961  70.697  1.00  0.00    -0.528 OA 
HETATM    3  C   UNL     4     -13.132  14.622  70.353  1.00  0.00    -0.115 C  
HETATM    4  H   UNL     4     -13.611  16.493  70.825  1.00  0.00     0.000 HD 
HETATM    5  O   UNL     5      -8.879   3.797  71.057  1.00  0.00    -0.075 OA 
HETATM    6  H   UNL     5      -8.184   3.703  71.697  1.00  0.00     0.000 HD 
HETATM    7  C   UNL     5      -8.931   5.120  70.522  1.00  0.00    -0.134 C  
ENDROOT
BRANCH   3   8
HETATM    8  C   UNL     4     -11.876  13.763  70.147  1.00  0.00    -0.290 C  
HETATM    9  O   UNL     4     -12.020  12.517  70.855  1.00  0.00    -0.447 OA 
HETATM   10  H   UNL     4     -11.243  11.986  70.728  1.00  0.00     0.000 HD 
BRANCH   8  11
HETATM   11  C   UNL     4     -11.446  13.398  68.696  1.00  0.00    -0.310 C  
HETATM   12  O   UNL     4     -12.064  12.213  68.207  1.00  0.00    -0.407 OA 
HETATM   13  H   UNL     4     -11.801  11.991  67.321  1.00  0.00     0.000 HD 
BRANCH  11  14
HETATM   14  C   UNL     4     -11.457  14.525  67.628  1.00  0.00    -0.353 C  
HETATM   15  H   UNL     4     -12.423  14.820  65.955  1.00  0.00     0.000 HD 
HETATM   16  O   UNL     4     -12.416  14.130  66.609  1.00  0.00    -0.426 OA 
BRANCH  14  17
HETATM   17  C   UNL     4     -10.126  14.994  66.974  1.00  0.00    -0.244 C  
HETATM   18  C   UNL     4      -9.510  16.267  67.688  1.00  0.00    -0.221 C  
HETATM   19  H   UNL     4      -9.420  15.388  65.146  1.00  0.00     0.000 HD 
HETATM   20  O   UNL     4     -10.233  15.102  65.545  1.00  0.00    -0.322 OA 
HETATM   21  O   UNL     4      -9.652  16.262  68.982  1.00  0.00    -0.237 OA 
HETATM   22  O   UNL     4      -9.031  17.194  66.978  1.00  0.00    -0.218 OA 
ENDBRANCH  14  17
ENDBRANCH  11  14
ENDBRANCH   8  11
ENDBRANCH   3   8
BRANCH   7  23
HETATM   23  C   UNL     5     -10.060   5.272  69.482  1.00  0.00    -0.252 C  
HETATM   24  O   UNL     5     -10.452   6.645  69.445  1.00  0.00    -0.194 OA 
HETATM   25  H   UNL     5     -11.147   6.739  68.805  1.00  0.00     0.000 HD 
BRANCH  23  26
HETATM   26  C   UNL     5      -9.621   4.780  68.086  1.00  0.00    -0.148 C  
HETATM   27  O   UNL     5     -10.119   3.441  67.871  1.00  0.00     0.021 OA 
HETATM   28  H   UNL     5      -9.849   3.138  67.011  1.00  0.00     0.000 HD 
BRANCH  26  29
HETATM   29  C   UNL     5      -9.949   5.680  66.862  1.00  0.00    -0.174 C  
HETATM   30  O   UNL     5     -10.919   5.100  65.991  1.00  0.00    -0.698 OA 
HETATM   31  H   UNL     5     -11.120   5.650  65.242  1.00  0.00     0.000 HD 
BRANCH  29  32
HETATM   32  C   UNL     5      -8.772   6.276  66.072  1.00  0.00    -0.151 C  
HETATM   33  C   UNL     5      -8.576   7.801  66.198  1.00  0.00    -0.151 C  
HETATM   34  O   UNL     5      -8.858   5.891  64.653  1.00  0.00    -0.364 OA 
HETATM   35  O   UNL     5      -8.859   8.330  67.314  1.00  0.00    -0.128 OA 
HETATM   36  O   UNL     5      -8.209   8.361  65.104  1.00  0.00    -0.141 OA 
HETATM   37  H   UNL     5      -8.131   6.259  64.165  1.00  0.00     0.000 HD 
ENDBRANCH  29  32
ENDBRANCH  26  29
ENDBRANCH  23  26
ENDBRANCH   7  23
TORSDOF 8
ENDMDL
MODEL      381
REMARK 921   NORMALIZED FREE ENERGY PREDICTED BY IDOCK:   -3.90 KCAL/MOL
REMARK 922        TOTAL FREE ENERGY PREDICTED BY IDOCK:   -7.96 KCAL/MOL
REMARK 923 INTER-LIGAND FREE ENERGY PREDICTED BY IDOCK:   -6.38 KCAL/MOL
REMARK 924 INTRA-LIGAND FREE ENERGY PREDICTED BY IDOCK:   -1.58 KCAL/MOL
REMARK 927      BINDING AFFINITY PREDICTED BY RF-SCORE:    0.00 PKD
ROOT
HETATM    1 MG   UNL     3      -9.862  13.516  66.097  1.00  0.00    -0.238 Mg 
HETATM    2  O   UNL     4      -6.057   8.866  64.544  1.00  0.00    -0.065 OA 
HETATM    3  C   UNL     4      -7.313   9.275  65.050  1.00  0.00    -0.102 C  
HETATM    4  H   UNL     4      -6.101   8.558  63.646  1.00  0.00     0.000 HD 
HETATM    5  O   UNL     5     -12.183  16.470  72.813  1.00  0.00    -0.464 OA 
HETATM    6  H   UNL     5     -11.598  17.155  73.115  1.00  0.00     0.000 HD 
HETATM    7  C   UNL     5     -11.469  15.295  72.429  1.00  0.00    -0.363 C  
ENDROOT
BRANCH   3   8
HETATM    8  C   UNL     4      -7.240   9.773  66.500  1.00  0.00    -0.094 C  
HETATM    9  O   UNL     4      -8.489  10.393  66.862  1.00  0.00    -0.123 OA 
HETATM   10  H   UNL     4      -8.444  10.702  67.760  1.00  0.00     0.000 HD 
BRANCH   8  11
HETATM   11  C   UNL     4      -6.911   8.753  67.629  1.00  0.00    -0.071 C  
HETATM   12  O   UNL     4      -5.966   9.245  68.573  1.00  0.00    -0.044 OA 
HETATM   13  H   UNL     4      -5.765   8.622  69.262  1.00  0.00     0.000 HD 
BRANCH  11  14
HETATM   14  C   UNL     4      -8.095   8.036  68.332  1.00  0.00    -0.122 C  
HETATM   15  H   UNL     4      -8.258   6.852  69.877  1.00  0.00     0.000 HD 
HETATM   16  O   UNL     4      -7.534   7.290  69.447  1.00  0.00    -0.087 OA 
BRANCH  14  17
HETATM   17  C   UNL     4      -9.065   7.142  67.508  1.00  0.00    -0.123 C  
HETATM   18  C   UNL     4      -8.302   6.139  66.547  1.00  0.00    -0.113 C  
HETATM   19  H   UNL     4     -10.694   7.362  66.370  1.00  0.00     0.000 HD 
HETATM   20  O   UNL     4     -10.101   7.908  66.873  1.00  0.00    -0.239 OA 
HETATM   21  O   UNL     4      -7.214   5.644  67.064  1.00  0.00    -0.072 OA 
HETATM   22  O   UNL     4      -8.734   5.971  65.373  1.00  0.00    -0.148 OA 
ENDBRANCH  14  17
ENDBRANCH  11  14
ENDBRANCH   8  11
ENDBRANCH   3   8
BRANCH   7  23
HETATM   23  C   UNL     5     -12.418  14.184  71.938  1.00  0.00    -0.247 C  
HETATM   24  O   UNL     5     -13.458  14.024  72.905  1.00  0.00    -0.647 OA 
HETATM   25  H   UNL     5     -14.043  13.339  72.603  1.00  0.00     0.000 HD 
BRANCH  23  26
HETATM   26  C   UNL     5     -13.000  14.504  70.544  1.00  0.00    -0.249 C  
HETATM   27  O   UNL     5     -13.792  15.711  70.621  1.00  0.00    -0.840 OA 
HETATM   28  H   UNL     5     -14.150  15.908  69.763  1.00  0.00     0.000 HD 
BRANCH  26  29
HETATM   29  C   UNL     5     -12.014  14.583  69.345  1.00  0.00    -0.322 C  
HETATM   30  O   UNL     5     -11.720  15.924  68.954  1.00  0.00    -0.390 OA 
HETATM   31  H   UNL     5     -11.117  15.972  68.221  1.00  0.00     0.000 HD 
BRANCH  29  32
HETATM   32  C   UNL     5     -12.295  13.693  68.124  1.00  0.00     0.072 C  
HETATM   33  C   UNL     5     -11.581  12.324  68.106  1.00  0.00    -0.339 C  
HETATM   34  O   UNL     5     -12.017  14.426  66.878  1.00  0.00    -0.410 OA 
HETATM   35  O   UNL     5     -11.407  11.749  69.221  1.00  0.00    -0.251 OA 
HETATM   36  O   UNL     5     -11.186  11.970  66.938  1.00  0.00    -0.283 OA 
HETATM   37  H   UNL     5     -12.190  13.876  66.123  1.00  0.00     0.000 HD 
ENDBRANCH  29  32
ENDBRANCH  26  29
ENDBRANCH  23  26
ENDBRANCH   7  23
TORSDOF 8
ENDMDL
MODEL      382
REMARK 921   NORMALIZED FREE ENERGY PREDICTED BY IDOCK:   -3.89 KCAL/MOL
REMARK 922        TOTAL FREE ENERGY PREDICTED BY IDOCK:   -7.95 KCAL/MOL
REMARK 923 INTER-LIGAND FREE ENERGY PREDICTED BY IDOCK:   -7.20 KCAL/MOL
REMARK 924 INTRA-LIGAND FREE ENERGY PREDICTED BY IDOCK:   -0.74 KCAL/MOL
REMARK 927      BINDING AFFINITY PREDICTED BY RF-SCORE:    0.00 PKD
ROOT
HETATM    1 MG   UNL     3      -6.586  13.237  70.491  1.00  0.00    -0.274 Mg 
HETATM    2  O   UNL     4      -9.042  18.166  67.629  1.00  0.00    -0.256 OA 
HETATM    3  C   UNL     4      -9.222  17.070  68.506  1.00  0.00    -0.266 C  
HETATM    4  H   UNL     4      -8.984  18.999  68.084  1.00  0.00     0.000 HD 
HETATM    5  O   UNL     5      -7.185   5.637  69.446  1.00  0.00    -0.062 OA 
HETATM    6  H   UNL     5      -6.535   5.315  68.833  1.00  0.00     0.000 HD 
HETATM    7  C   UNL     5      -7.878   6.776  68.934  1.00  0.00    -0.111 C  
ENDROOT
BRANCH   3   8
HETATM    8  C   UNL     4      -9.316  15.725  67.770  1.00  0.00    -0.206 C  
HETATM    9  O   UNL     4      -7.995  15.185  67.580  1.00  0.00    -0.144 OA 
HETATM   10  H   UNL     4      -8.053  14.353  67.125  1.00  0.00     0.000 HD 
BRANCH   8  11
HETATM   11  C   UNL     4     -10.173  14.586  68.396  1.00  0.00    -0.239 C  
HETATM   12  O   UNL     4     -10.339  14.716  69.804  1.00  0.00    -0.427 OA 
HETATM   13  H   UNL     4     -10.862  14.020  70.186  1.00  0.00     0.000 HD 
BRANCH  11  14
HETATM   14  C   UNL     4     -11.510  14.213  67.700  1.00  0.00    -0.338 C  
HETATM   15  H   UNL     4     -13.301  13.754  68.329  1.00  0.00     0.000 HD 
HETATM   16  O   UNL     4     -12.483  13.982  68.755  1.00  0.00    -0.173 OA 
BRANCH  14  17
HETATM   17  C   UNL     4     -11.550  13.061  66.656  1.00  0.00    -0.359 C  
HETATM   18  C   UNL     4     -12.363  13.449  65.352  1.00  0.00    -0.477 C  
HETATM   19  H   UNL     4     -11.954  11.104  66.609  1.00  0.00     0.000 HD 
HETATM   20  O   UNL     4     -11.929  11.808  67.246  1.00  0.00    -0.618 OA 
HETATM   21  O   UNL     4     -12.194  14.685  64.977  1.00  0.00    -0.381 OA 
HETATM   22  O   UNL     4     -13.150  12.601  64.848  1.00  0.00    -0.850 OA 
ENDBRANCH  14  17
ENDBRANCH  11  14
ENDBRANCH   8  11
ENDBRANCH   3   8
BRANCH   7  23
HETATM   23  C   UNL     5      -8.933   7.298  69.930  1.00  0.00    -0.142 C  
HETATM   24  O   UNL     5      -8.316   7.426  71.212  1.00  0.00    -0.108 OA 
HETATM   25  H   UNL     5      -8.966   7.747  71.825  1.00  0.00     0.000 HD 
BRANCH  23  26
HETATM   26  C   UNL     5      -9.540   8.641  69.467  1.00  0.00    -0.170 C  
HETATM   27  O   UNL     5      -8.554   9.688  69.616  1.00  0.00    -0.153 OA 
HETATM   28  H   UNL     5      -8.927  10.514  69.331  1.00  0.00     0.000 HD 
BRANCH  26  29
HETATM   29  C   UNL     5     -10.180   8.701  68.053  1.00  0.00    -0.210 C  
HETATM   30  O   UNL     5     -11.372   7.923  67.948  1.00  0.00    -0.175 OA 
HETATM   31  H   UNL     5     -11.764   7.960  67.083  1.00  0.00     0.000 HD 
BRANCH  29  32
HETATM   32  C   UNL     5      -9.262   8.486  66.838  1.00  0.00    -0.158 C  
HETATM   33  C   UNL     5      -8.948   9.740  65.997  1.00  0.00    -0.155 C  
HETATM   34  O   UNL     5      -9.793   7.416  65.976  1.00  0.00    -0.427 OA 
HETATM   35  O   UNL     5      -8.850  10.841  66.616  1.00  0.00    -0.140 OA 
HETATM   36  O   UNL     5      -8.893   9.509  64.736  1.00  0.00    -0.184 OA 
HETATM   37  H   UNL     5      -9.226   7.283  65.226  1.00  0.00     0.000 HD 
ENDBRANCH  29  32
ENDBRANCH  26  29
ENDBRANCH  23  26
ENDBRANCH   7  23
TORSDOF 8
ENDMDL
MODEL      383
REMARK 921   NORMALIZED FREE ENERGY PREDICTED BY IDOCK:   -3.87 KCAL/MOL
REMARK 922        TOTAL FREE ENERGY PREDICTED BY IDOCK:   -7.92 KCAL/MOL
REMARK 923 INTER-LIGAND FREE ENERGY PREDICTED BY IDOCK:   -6.47 KCAL/MOL
REMARK 924 INTRA-LIGAND FREE ENERGY PREDICTED BY IDOCK:   -1.45 KCAL/MOL
REMARK 927      BINDING AFFINITY PREDICTED BY RF-SCORE:    0.00 PKD
ROOT
HETATM    1 MG   UNL     3      -9.322  13.510  64.317  1.00  0.00    -0.563 Mg 
HETATM    2  O   UNL     4      -7.496  19.272  65.721  1.00  0.00    -0.369 OA 
HETATM    3  C   UNL     4      -7.181  17.896  65.645  1.00  0.00    -0.013 C  
HETATM    4  H   UNL     4      -7.106  19.781  65.019  1.00  0.00     0.000 HD 
HETATM    5  O   UNL     5     -11.261   7.371  68.533  1.00  0.00    -0.434 OA 
HETATM    6  H   UNL     5     -12.188   7.367  68.740  1.00  0.00     0.000 HD 
HETATM    7  C   UNL     5     -10.660   8.634  68.820  1.00  0.00    -0.140 C  
ENDROOT
BRANCH   3   8
HETATM    8  C   UNL     4      -7.811  17.074  66.779  1.00  0.00    -0.239 C  
HETATM    9  O   UNL     4      -7.382  17.595  68.050  1.00  0.00    -0.203 OA 
HETATM   10  H   UNL     4      -7.772  17.086  68.752  1.00  0.00     0.000 HD 
BRANCH   8  11
HETATM   11  C   UNL     4      -9.362  16.959  66.849  1.00  0.00    -0.241 C  
HETATM   12  O   UNL     4     -10.024  18.214  66.743  1.00  0.00    -0.315 OA 
HETATM   13  H   UNL     4     -10.971  18.144  66.786  1.00  0.00     0.000 HD 
BRANCH  11  14
HETATM   14  C   UNL     4     -10.053  15.878  65.975  1.00  0.00    -0.337 C  
HETATM   15  H   UNL     4     -11.328  15.920  64.495  1.00  0.00     0.000 HD 
HETATM   16  O   UNL     4     -10.905  16.582  65.030  1.00  0.00    -0.622 OA 
BRANCH  14  17
HETATM   17  C   UNL     4     -10.829  14.710  66.647  1.00  0.00    -0.312 C  
HETATM   18  C   UNL     4     -11.303  15.060  68.119  1.00  0.00    -0.330 C  
HETATM   19  H   UNL     4     -10.612  12.744  66.934  1.00  0.00     0.000 HD 
HETATM   20  O   UNL     4     -10.138  13.457  66.523  1.00  0.00    -0.267 OA 
HETATM   21  O   UNL     4     -11.694  16.293  68.264  1.00  0.00    -0.238 OA 
HETATM   22  O   UNL     4     -11.185  14.186  69.022  1.00  0.00    -0.248 OA 
ENDBRANCH  14  17
ENDBRANCH  11  14
ENDBRANCH   8  11
ENDBRANCH   3   8
BRANCH   7  23
HETATM   23  C   UNL     5      -9.155   8.640  68.484  1.00  0.00    -0.138 C  
HETATM   24  O   UNL     5      -8.779   7.321  68.085  1.00  0.00    -0.128 OA 
HETATM   25  H   UNL     5      -7.852   7.325  67.878  1.00  0.00     0.000 HD 
BRANCH  23  26
HETATM   26  C   UNL     5      -8.820   9.671  67.384  1.00  0.00    -0.128 C  
HETATM   27  O   UNL     5      -8.075  10.766  67.965  1.00  0.00    -0.109 OA 
HETATM   28  H   UNL     5      -7.869  11.400  67.288  1.00  0.00     0.000 HD 
BRANCH  26  29
HETATM   29  C   UNL     5      -8.112   9.160  66.099  1.00  0.00    -0.107 C  
HETATM   30  O   UNL     5      -6.951   8.377  66.378  1.00  0.00    -0.072 OA 
HETATM   31  H   UNL     5      -6.518   8.064  65.593  1.00  0.00     0.000 HD 
BRANCH  29  32
HETATM   32  C   UNL     5      -7.847  10.172  64.973  1.00  0.00    -0.140 C  
HETATM   33  C   UNL     5      -7.670   9.580  63.559  1.00  0.00    -0.123 C  
HETATM   34  O   UNL     5      -6.698  11.029  65.311  1.00  0.00    -0.361 OA 
HETATM   35  O   UNL     5      -8.355   8.553  63.273  1.00  0.00    -0.172 OA 
HETATM   36  O   UNL     5      -6.777  10.181  62.861  1.00  0.00    -0.124 OA 
HETATM   37  H   UNL     5      -6.534  11.654  64.616  1.00  0.00     0.000 HD 
ENDBRANCH  29  32
ENDBRANCH  26  29
ENDBRANCH  23  26
ENDBRANCH   7  23
TORSDOF 8
ENDMDL
MODEL      384
REMARK 921   NORMALIZED FREE ENERGY PREDICTED BY IDOCK:   -3.86 KCAL/MOL
REMARK 922        TOTAL FREE ENERGY PREDICTED BY IDOCK:   -7.90 KCAL/MOL
REMARK 923 INTER-LIGAND FREE ENERGY PREDICTED BY IDOCK:   -7.14 KCAL/MOL
REMARK 924 INTRA-LIGAND FREE ENERGY PREDICTED BY IDOCK:   -0.76 KCAL/MOL
REMARK 927      BINDING AFFINITY PREDICTED BY RF-SCORE:    0.00 PKD
ROOT
HETATM    1 MG   UNL     3     -10.694  14.474  71.113  1.00  0.00    -0.477 Mg 
HETATM    2  O   UNL     4      -9.883  20.119  68.664  1.00  0.00    -0.291 OA 
HETATM    3  C   UNL     4     -10.489  18.844  68.573  1.00  0.00    -0.134 C  
HETATM    4  H   UNL     4     -10.487  20.798  68.943  1.00  0.00     0.000 HD 
HETATM    5  O   UNL     5      -8.087   7.466  69.296  1.00  0.00    -0.119 OA 
HETATM    6  H   UNL     5      -7.259   7.279  69.722  1.00  0.00     0.000 HD 
HETATM    7  C   UNL     5      -8.074   8.738  68.648  1.00  0.00    -0.116 C  
ENDROOT
BRANCH   3   8
HETATM    8  C   UNL     4      -9.512  17.748  68.124  1.00  0.00    -0.282 C  
HETATM    9  O   UNL     4     -10.124  16.455  68.292  1.00  0.00    -0.234 OA 
HETATM   10  H   UNL     4      -9.519  15.777  68.014  1.00  0.00     0.000 HD 
BRANCH   8  11
HETATM   11  C   UNL     4      -8.957  17.788  66.670  1.00  0.00    -0.266 C  
HETATM   12  O   UNL     4      -9.494  18.852  65.892  1.00  0.00    -0.458 OA 
HETATM   13  H   UNL     4      -9.155  18.876  65.005  1.00  0.00     0.000 HD 
BRANCH  11  14
HETATM   14  C   UNL     4      -7.423  17.658  66.472  1.00  0.00    -0.264 C  
HETATM   15  H   UNL     4      -5.959  16.929  67.540  1.00  0.00     0.000 HD 
HETATM   16  O   UNL     4      -6.898  17.008  67.662  1.00  0.00    -0.132 OA 
BRANCH  14  17
HETATM   17  C   UNL     4      -6.574  18.912  66.114  1.00  0.00    -0.219 C  
HETATM   18  C   UNL     4      -6.743  20.083  67.168  1.00  0.00    -0.213 C  
HETATM   19  H   UNL     4      -6.227  20.075  64.526  1.00  0.00     0.000 HD 
HETATM   20  O   UNL     4      -6.746  19.310  64.745  1.00  0.00    -0.434 OA 
HETATM   21  O   UNL     4      -6.838  19.670  68.400  1.00  0.00    -0.272 OA 
HETATM   22  O   UNL     4      -6.859  21.268  66.750  1.00  0.00    -0.374 OA 
ENDBRANCH  14  17
ENDBRANCH  11  14
ENDBRANCH   8  11
ENDBRANCH   3   8
BRANCH   7  23
HETATM   23  C   UNL     5      -9.418   9.042  67.956  1.00  0.00    -0.142 C  
HETATM   24  O   UNL     5     -10.018   7.801  67.580  1.00  0.00    -0.158 OA 
HETATM   25  H   UNL     5     -10.846   7.988  67.154  1.00  0.00     0.000 HD 
BRANCH  23  26
HETATM   26  C   UNL     5     -10.358   9.860  68.868  1.00  0.00    -0.205 C  
HETATM   27  O   UNL     5     -11.603  10.107  68.176  1.00  0.00    -0.641 OA 
HETATM   28  H   UNL     5     -12.181  10.611  68.737  1.00  0.00     0.000 HD 
BRANCH  26  29
HETATM   29  C   UNL     5     -10.636   9.320  70.299  1.00  0.00    -0.235 C  
HETATM   30  O   UNL     5      -9.537   9.513  71.189  1.00  0.00    -0.234 OA 
HETATM   31  H   UNL     5      -9.707   9.183  72.064  1.00  0.00     0.000 HD 
BRANCH  29  32
HETATM   32  C   UNL     5     -11.221   7.905  70.431  1.00  0.00    -0.234 C  
HETATM   33  C   UNL     5     -12.549   7.792  71.209  1.00  0.00    -0.264 C  
HETATM   34  O   UNL     5     -10.222   6.985  70.999  1.00  0.00    -0.197 OA 
HETATM   35  O   UNL     5     -13.366   8.755  71.101  1.00  0.00    -0.199 OA 
HETATM   36  O   UNL     5     -12.626   6.740  71.939  1.00  0.00    -0.345 OA 
HETATM   37  H   UNL     5     -10.583   6.111  71.081  1.00  0.00     0.000 HD 
ENDBRANCH  29  32
ENDBRANCH  26  29
ENDBRANCH  23  26
ENDBRANCH   7  23
TORSDOF 8
ENDMDL
MODEL      385
REMARK 921   NORMALIZED FREE ENERGY PREDICTED BY IDOCK:   -3.85 KCAL/MOL
REMARK 922        TOTAL FREE ENERGY PREDICTED BY IDOCK:   -7.90 KCAL/MOL
REMARK 923 INTER-LIGAND FREE ENERGY PREDICTED BY IDOCK:   -6.31 KCAL/MOL
REMARK 924 INTRA-LIGAND FREE ENERGY PREDICTED BY IDOCK:   -1.59 KCAL/MOL
REMARK 927      BINDING AFFINITY PREDICTED BY RF-SCORE:    0.00 PKD
ROOT
HETATM    1 MG   UNL     3      -7.849   9.151  67.228  1.00  0.00    -0.089 Mg 
HETATM    2  O   UNL     4      -8.827   3.333  69.152  1.00  0.00    -0.084 OA 
HETATM    3  C   UNL     4      -9.140   4.366  68.239  1.00  0.00    -0.127 C  
HETATM    4  H   UNL     4      -8.275   2.658  68.774  1.00  0.00     0.000 HD 
HETATM    5  O   UNL     5     -11.889  15.679  67.765  1.00  0.00    -0.235 OA 
HETATM    6  H   UNL     5     -11.684  16.153  68.562  1.00  0.00     0.000 HD 
HETATM    7  C   UNL     5     -12.169  14.303  68.025  1.00  0.00    -0.133 C  
ENDROOT
BRANCH   3   8
HETATM    8  C   UNL     4     -10.031   5.457  68.851  1.00  0.00    -0.180 C  
HETATM    9  O   UNL     4     -10.496   5.031  70.146  1.00  0.00    -0.267 OA 
HETATM   10  H   UNL     4     -11.048   5.706  70.525  1.00  0.00     0.000 HD 
BRANCH   8  11
HETATM   11  C   UNL     4      -9.445   6.886  69.041  1.00  0.00    -0.137 C  
HETATM   12  O   UNL     4      -8.302   7.138  68.229  1.00  0.00    -0.123 OA 
HETATM   13  H   UNL     4      -7.945   8.010  68.345  1.00  0.00     0.000 HD 
BRANCH  11  14
HETATM   14  C   UNL     4     -10.429   8.086  69.022  1.00  0.00    -0.199 C  
HETATM   15  H   UNL     4     -10.745   9.582  67.805  1.00  0.00     0.000 HD 
HETATM   16  O   UNL     4     -10.142   8.847  67.816  1.00  0.00    -0.185 OA 
BRANCH  14  17
HETATM   17  C   UNL     4     -10.532   9.031  70.253  1.00  0.00    -0.215 C  
HETATM   18  C   UNL     4     -11.817   8.745  71.136  1.00  0.00    -0.295 C  
HETATM   19  H   UNL     4     -10.408  10.987  70.647  1.00  0.00     0.000 HD 
HETATM   20  O   UNL     4     -10.346  10.409  69.895  1.00  0.00    -0.244 OA 
HETATM   21  O   UNL     4     -12.112   7.481  71.238  1.00  0.00    -0.305 OA 
HETATM   22  O   UNL     4     -12.483   9.722  71.579  1.00  0.00    -0.346 OA 
ENDBRANCH  14  17
ENDBRANCH  11  14
ENDBRANCH   8  11
ENDBRANCH   3   8
BRANCH   7  23
HETATM   23  C   UNL     5     -12.503  13.533  66.731  1.00  0.00    -0.159 C  
HETATM   24  O   UNL     5     -13.148  14.433  65.828  1.00  0.00    -0.483 OA 
HETATM   25  H   UNL     5     -13.353  13.959  65.031  1.00  0.00     0.000 HD 
BRANCH  23  26
HETATM   26  C   UNL     5     -11.239  12.915  66.093  1.00  0.00    -0.292 C  
HETATM   27  O   UNL     5     -11.629  11.861  65.184  1.00  0.00    -0.303 OA 
HETATM   28  H   UNL     5     -10.852  11.481  64.791  1.00  0.00     0.000 HD 
BRANCH  26  29
HETATM   29  C   UNL     5     -10.229  13.874  65.404  1.00  0.00    -0.337 C  
HETATM   30  O   UNL     5      -9.800  13.404  64.127  1.00  0.00    -0.735 OA 
HETATM   31  H   UNL     5      -9.182  13.991  63.705  1.00  0.00     0.000 HD 
BRANCH  29  32
HETATM   32  C   UNL     5      -9.045  14.391  66.237  1.00  0.00    -0.095 C  
HETATM   33  C   UNL     5      -8.565  13.467  67.376  1.00  0.00    -0.208 C  
HETATM   34  O   UNL     5      -9.334  15.736  66.762  1.00  0.00    -0.218 OA 
HETATM   35  O   UNL     5      -8.639  12.218  67.177  1.00  0.00    -0.174 OA 
HETATM   36  O   UNL     5      -8.208  14.102  68.432  1.00  0.00    -0.139 OA 
HETATM   37  H   UNL     5      -8.602  16.055  67.277  1.00  0.00     0.000 HD 
ENDBRANCH  29  32
ENDBRANCH  26  29
ENDBRANCH  23  26
ENDBRANCH   7  23
TORSDOF 8
ENDMDL
MODEL      386
REMARK 921   NORMALIZED FREE ENERGY PREDICTED BY IDOCK:   -3.85 KCAL/MOL
REMARK 922        TOTAL FREE ENERGY PREDICTED BY IDOCK:   -7.90 KCAL/MOL
REMARK 923 INTER-LIGAND FREE ENERGY PREDICTED BY IDOCK:   -7.22 KCAL/MOL
REMARK 924 INTRA-LIGAND FREE ENERGY PREDICTED BY IDOCK:   -0.68 KCAL/MOL
REMARK 927      BINDING AFFINITY PREDICTED BY RF-SCORE:    0.00 PKD
ROOT
HETATM    1 MG   UNL     3     -11.486   7.176  66.641  1.00  0.00    -0.366 Mg 
HETATM    2  O   UNL     4     -11.194  11.986  62.730  1.00  0.00    -0.458 OA 
HETATM    3  C   UNL     4     -10.510  11.068  63.561  1.00  0.00    -0.300 C  
HETATM    4  H   UNL     4     -11.112  11.782  61.806  1.00  0.00     0.000 HD 
HETATM    5  O   UNL     5     -10.703   6.466  74.263  1.00  0.00    -0.406 OA 
HETATM    6  H   UNL     5     -11.531   6.585  74.713  1.00  0.00     0.000 HD 
HETATM    7  C   UNL     5     -10.455   7.512  73.324  1.00  0.00    -0.371 C  
ENDROOT
BRANCH   3   8
HETATM    8  C   UNL     4     -10.645  11.398  65.055  1.00  0.00    -0.299 C  
HETATM    9  O   UNL     4      -9.336  11.564  65.633  1.00  0.00    -0.224 OA 
HETATM   10  H   UNL     4      -9.419  11.768  66.558  1.00  0.00     0.000 HD 
BRANCH   8  11
HETATM   11  C   UNL     4     -11.475  12.645  65.476  1.00  0.00    -0.340 C  
HETATM   12  O   UNL     4     -12.842  12.569  65.085  1.00  0.00    -0.685 OA 
HETATM   13  H   UNL     4     -13.348  13.330  65.343  1.00  0.00     0.000 HD 
BRANCH  11  14
HETATM   14  C   UNL     4     -11.331  13.158  66.935  1.00  0.00    -0.318 C  
HETATM   15  H   UNL     4     -12.058  12.604  68.661  1.00  0.00     0.000 HD 
HETATM   16  O   UNL     4     -12.146  12.290  67.769  1.00  0.00    -0.478 OA 
BRANCH  14  17
HETATM   17  C   UNL     4     -11.606  14.652  67.267  1.00  0.00    -0.387 C  
HETATM   18  C   UNL     4     -10.653  15.639  66.474  1.00  0.00    -0.307 C  
HETATM   19  H   UNL     4     -11.838  15.802  68.885  1.00  0.00     0.000 HD 
HETATM   20  O   UNL     4     -11.670  14.890  68.682  1.00  0.00    -0.318 OA 
HETATM   21  O   UNL     4     -10.406  15.261  65.252  1.00  0.00    -0.369 OA 
HETATM   22  O   UNL     4     -10.151  16.624  67.083  1.00  0.00    -0.264 OA 
ENDBRANCH  14  17
ENDBRANCH  11  14
ENDBRANCH   8  11
ENDBRANCH   3   8
BRANCH   7  23
HETATM   23  C   UNL     5      -9.111   7.318  72.594  1.00  0.00    -0.139 C  
HETATM   24  O   UNL     5      -8.830   5.918  72.537  1.00  0.00    -0.133 OA 
HETATM   25  H   UNL     5      -8.002   5.799  72.087  1.00  0.00     0.000 HD 
BRANCH  23  26
HETATM   26  C   UNL     5      -9.134   7.940  71.181  1.00  0.00    -0.143 C  
HETATM   27  O   UNL     5      -7.817   8.439  70.856  1.00  0.00    -0.082 OA 
HETATM   28  H   UNL     5      -7.831   8.822  69.986  1.00  0.00     0.000 HD 
BRANCH  26  29
HETATM   29  C   UNL     5      -9.684   7.073  70.014  1.00  0.00    -0.170 C  
HETATM   30  O   UNL     5     -10.437   5.947  70.465  1.00  0.00    -0.220 OA 
HETATM   31  H   UNL     5     -10.774   5.418  69.751  1.00  0.00     0.000 HD 
BRANCH  29  32
HETATM   32  C   UNL     5      -8.713   6.683  68.888  1.00  0.00    -0.128 C  
HETATM   33  C   UNL     5      -7.352   6.110  69.337  1.00  0.00    -0.091 C  
HETATM   34  O   UNL     5      -8.508   7.815  67.970  1.00  0.00    -0.123 OA 
HETATM   35  O   UNL     5      -7.341   5.405  70.390  1.00  0.00    -0.066 OA 
HETATM   36  O   UNL     5      -6.371   6.490  68.604  1.00  0.00    -0.034 OA 
HETATM   37  H   UNL     5      -7.908   7.574  67.274  1.00  0.00     0.000 HD 
ENDBRANCH  29  32
ENDBRANCH  26  29
ENDBRANCH  23  26
ENDBRANCH   7  23
TORSDOF 8
ENDMDL
MODEL      387
REMARK 921   NORMALIZED FREE ENERGY PREDICTED BY IDOCK:   -3.84 KCAL/MOL
REMARK 922        TOTAL FREE ENERGY PREDICTED BY IDOCK:   -7.89 KCAL/MOL
REMARK 923 INTER-LIGAND FREE ENERGY PREDICTED BY IDOCK:   -7.07 KCAL/MOL
REMARK 924 INTRA-LIGAND FREE ENERGY PREDICTED BY IDOCK:   -0.82 KCAL/MOL
REMARK 927      BINDING AFFINITY PREDICTED BY RF-SCORE:    0.00 PKD
ROOT
HETATM    1 MG   UNL     3     -10.419  11.550  66.226  1.00  0.00    -0.207 Mg 
HETATM    2  O   UNL     4      -8.092  17.296  65.929  1.00  0.00    -0.529 OA 
HETATM    3  C   UNL     4      -7.936  15.955  66.351  1.00  0.00    -0.090 C  
HETATM    4  H   UNL     4      -7.569  17.507  65.164  1.00  0.00     0.000 HD 
HETATM    5  O   UNL     5     -13.530   7.360  71.882  1.00  0.00    -0.472 OA 
HETATM    6  H   UNL     5     -14.468   7.495  71.942  1.00  0.00     0.000 HD 
HETATM    7  C   UNL     5     -12.820   8.597  71.826  1.00  0.00    -0.359 C  
ENDROOT
BRANCH   3   8
HETATM    8  C   UNL     4      -8.782  15.614  67.587  1.00  0.00    -0.175 C  
HETATM    9  O   UNL     4      -9.781  16.632  67.785  1.00  0.00    -0.235 OA 
HETATM   10  H   UNL     4     -10.304  16.421  68.549  1.00  0.00     0.000 HD 
BRANCH   8  11
HETATM   11  C   UNL     4      -9.527  14.248  67.632  1.00  0.00    -0.211 C  
HETATM   12  O   UNL     4      -9.446  13.604  68.898  1.00  0.00    -0.403 OA 
HETATM   13  H   UNL     4      -9.901  12.771  68.926  1.00  0.00     0.000 HD 
BRANCH  11  14
HETATM   14  C   UNL     4     -10.968  14.186  67.056  1.00  0.00    -0.300 C  
HETATM   15  H   UNL     4     -12.180  15.488  66.249  1.00  0.00     0.000 HD 
HETATM   16  O   UNL     4     -11.299  15.527  66.601  1.00  0.00    -0.197 OA 
BRANCH  14  17
HETATM   17  C   UNL     4     -12.125  13.597  67.912  1.00  0.00    -0.283 C  
HETATM   18  C   UNL     4     -12.197  14.235  69.361  1.00  0.00    -0.278 C  
HETATM   19  H   UNL     4     -12.847  11.802  68.412  1.00  0.00     0.000 HD 
HETATM   20  O   UNL     4     -12.140  12.161  67.890  1.00  0.00    -0.502 OA 
HETATM   21  O   UNL     4     -11.928  15.509  69.387  1.00  0.00    -0.345 OA 
HETATM   22  O   UNL     4     -12.408  13.481  70.351  1.00  0.00    -0.338 OA 
ENDBRANCH  14  17
ENDBRANCH  11  14
ENDBRANCH   8  11
ENDBRANCH   3   8
BRANCH   7  23
HETATM   23  C   UNL     5     -11.296   8.378  71.728  1.00  0.00    -0.300 C  
HETATM   24  O   UNL     5     -10.789   8.162  73.046  1.00  0.00    -0.331 OA 
HETATM   25  H   UNL     5      -9.851   8.027  72.986  1.00  0.00     0.000 HD 
BRANCH  23  26
HETATM   26  C   UNL     5     -10.948   7.197  70.797  1.00  0.00    -0.252 C  
HETATM   27  O   UNL     5     -11.439   7.475  69.466  1.00  0.00    -0.452 OA 
HETATM   28  H   UNL     5     -11.224   6.748  68.893  1.00  0.00     0.000 HD 
BRANCH  26  29
HETATM   29  C   UNL     5      -9.467   6.729  70.738  1.00  0.00    -0.165 C  
HETATM   30  O   UNL     5      -8.612   7.672  70.092  1.00  0.00    -0.137 OA 
HETATM   31  H   UNL     5      -7.707   7.386  70.056  1.00  0.00     0.000 HD 
BRANCH  29  32
HETATM   32  C   UNL     5      -9.184   5.296  70.259  1.00  0.00    -0.143 C  
HETATM   33  C   UNL     5      -7.715   4.977  69.910  1.00  0.00    -0.060 C  
HETATM   34  O   UNL     5     -10.061   4.949  69.129  1.00  0.00    -0.199 OA 
HETATM   35  O   UNL     5      -6.820   5.551  70.599  1.00  0.00    -0.048 OA 
HETATM   36  O   UNL     5      -7.588   4.204  68.895  1.00  0.00    -0.055 OA 
HETATM   37  H   UNL     5      -9.887   4.064  68.832  1.00  0.00     0.000 HD 
ENDBRANCH  29  32
ENDBRANCH  26  29
ENDBRANCH  23  26
ENDBRANCH   7  23
TORSDOF 8
ENDMDL
MODEL      388
REMARK 921   NORMALIZED FREE ENERGY PREDICTED BY IDOCK:   -3.84 KCAL/MOL
REMARK 922        TOTAL FREE ENERGY PREDICTED BY IDOCK:   -7.88 KCAL/MOL
REMARK 923 INTER-LIGAND FREE ENERGY PREDICTED BY IDOCK:   -7.16 KCAL/MOL
REMARK 924 INTRA-LIGAND FREE ENERGY PREDICTED BY IDOCK:   -0.71 KCAL/MOL
REMARK 927      BINDING AFFINITY PREDICTED BY RF-SCORE:    0.00 PKD
ROOT
HETATM    1 MG   UNL     3      -8.964   8.309  68.679  1.00  0.00    -0.128 Mg 
HETATM    2  O   UNL     4      -5.481   3.747  66.318  1.00  0.00    -0.012 OA 
HETATM    3  C   UNL     4      -5.637   5.128  66.582  1.00  0.00    -0.017 C  
HETATM    4  H   UNL     4      -4.871   3.323  66.911  1.00  0.00     0.000 HD 
HETATM    5  O   UNL     5     -13.277  13.865  65.558  1.00  0.00    -0.698 OA 
HETATM    6  H   UNL     5     -14.169  13.574  65.409  1.00  0.00     0.000 HD 
HETATM    7  C   UNL     5     -12.324  12.932  65.049  1.00  0.00    -0.485 C  
ENDROOT
BRANCH   3   8
HETATM    8  C   UNL     4      -6.623   5.813  65.624  1.00  0.00    -0.044 C  
HETATM    9  O   UNL     4      -7.198   4.833  64.740  1.00  0.00    -0.061 OA 
HETATM   10  H   UNL     4      -7.808   5.257  64.147  1.00  0.00     0.000 HD 
BRANCH   8  11
HETATM   11  C   UNL     4      -7.812   6.620  66.222  1.00  0.00    -0.105 C  
HETATM   12  O   UNL     4      -8.607   7.266  65.234  1.00  0.00    -0.295 OA 
HETATM   13  H   UNL     4      -9.333   7.758  65.599  1.00  0.00     0.000 HD 
BRANCH  11  14
HETATM   14  C   UNL     4      -8.694   5.928  67.296  1.00  0.00    -0.108 C  
HETATM   15  H   UNL     4      -8.528   4.305  68.370  1.00  0.00     0.000 HD 
HETATM   16  O   UNL     4      -7.988   4.728  67.713  1.00  0.00    -0.092 OA 
BRANCH  14  17
HETATM   17  C   UNL     4     -10.186   5.608  66.992  1.00  0.00    -0.222 C  
HETATM   18  C   UNL     4     -10.355   4.493  65.879  1.00  0.00    -0.258 C  
HETATM   19  H   UNL     4     -11.872   6.601  66.586  1.00  0.00     0.000 HD 
HETATM   20  O   UNL     4     -10.961   6.796  66.771  1.00  0.00    -0.337 OA 
HETATM   21  O   UNL     4      -9.469   3.541  65.951  1.00  0.00    -0.169 OA 
HETATM   22  O   UNL     4     -11.237   4.647  64.989  1.00  0.00    -0.109 OA 
ENDBRANCH  14  17
ENDBRANCH  11  14
ENDBRANCH   8  11
ENDBRANCH   3   8
BRANCH   7  23
HETATM   23  C   UNL     5     -10.877  13.405  65.291  1.00  0.00    -0.309 C  
HETATM   24  O   UNL     5     -10.281  13.691  64.024  1.00  0.00    -0.701 OA 
HETATM   25  H   UNL     5      -9.389  13.982  64.173  1.00  0.00     0.000 HD 
BRANCH  23  26
HETATM   26  C   UNL     5     -10.825  14.636  66.221  1.00  0.00    -0.321 C  
HETATM   27  O   UNL     5     -10.791  14.196  67.598  1.00  0.00    -0.255 OA 
HETATM   28  H   UNL     5     -10.760  14.954  68.170  1.00  0.00     0.000 HD 
BRANCH  26  29
HETATM   29  C   UNL     5      -9.716  15.694  65.966  1.00  0.00    -0.346 C  
HETATM   30  O   UNL     5      -8.407  15.210  66.265  1.00  0.00    -0.380 OA 
HETATM   31  H   UNL     5      -7.728  15.856  66.110  1.00  0.00     0.000 HD 
BRANCH  29  32
HETATM   32  C   UNL     5      -9.930  17.110  66.526  1.00  0.00    -0.302 C  
HETATM   33  C   UNL     5      -8.671  17.996  66.627  1.00  0.00    -0.259 C  
HETATM   34  O   UNL     5     -10.613  17.050  67.829  1.00  0.00    -0.341 OA 
HETATM   35  O   UNL     5      -7.788  17.849  65.730  1.00  0.00    -0.542 OA 
HETATM   36  O   UNL     5      -8.649  18.737  67.673  1.00  0.00    -0.268 OA 
HETATM   37  H   UNL     5     -10.746  17.924  68.175  1.00  0.00     0.000 HD 
ENDBRANCH  29  32
ENDBRANCH  26  29
ENDBRANCH  23  26
ENDBRANCH   7  23
TORSDOF 8
ENDMDL
MODEL      389
REMARK 921   NORMALIZED FREE ENERGY PREDICTED BY IDOCK:   -3.82 KCAL/MOL
REMARK 922        TOTAL FREE ENERGY PREDICTED BY IDOCK:   -7.84 KCAL/MOL
REMARK 923 INTER-LIGAND FREE ENERGY PREDICTED BY IDOCK:   -5.85 KCAL/MOL
REMARK 924 INTRA-LIGAND FREE ENERGY PREDICTED BY IDOCK:   -2.00 KCAL/MOL
REMARK 927      BINDING AFFINITY PREDICTED BY RF-SCORE:    0.00 PKD
ROOT
HETATM    1 MG   UNL     3     -10.293  14.701  64.660  1.00  0.00    -0.330 Mg 
HETATM    2  O   UNL     4     -11.153   9.460  67.871  1.00  0.00    -0.506 OA 
HETATM    3  C   UNL     4     -11.283  10.867  67.808  1.00  0.00    -0.317 C  
HETATM    4  H   UNL     4     -11.977   9.005  67.736  1.00  0.00     0.000 HD 
HETATM    5  O   UNL     5      -5.302  20.529  65.235  1.00  0.00    -0.164 OA 
HETATM    6  H   UNL     5      -4.512  20.365  64.734  1.00  0.00     0.000 HD 
HETATM    7  C   UNL     5      -5.644  19.419  66.064  1.00  0.00    -0.155 C  
ENDROOT
BRANCH   3   8
HETATM    8  C   UNL     4      -9.951  11.601  68.025  1.00  0.00    -0.188 C  
HETATM    9  O   UNL     4     -10.207  12.964  68.413  1.00  0.00    -0.235 OA 
HETATM   10  H   UNL     4      -9.383  13.418  68.547  1.00  0.00     0.000 HD 
BRANCH   8  11
HETATM   11  C   UNL     4      -8.940  11.029  69.061  1.00  0.00    -0.059 C  
HETATM   12  O   UNL     4      -9.557  10.240  70.073  1.00  0.00    -0.396 OA 
HETATM   13  H   UNL     4      -8.939   9.891  70.705  1.00  0.00     0.000 HD 
BRANCH  11  14
HETATM   14  C   UNL     4      -7.649  10.354  68.523  1.00  0.00    -0.095 C  
HETATM   15  H   UNL     4      -5.870  10.994  68.032  1.00  0.00     0.000 HD 
HETATM   16  O   UNL     4      -6.660  11.407  68.361  1.00  0.00    -0.059 OA 
BRANCH  14  17
HETATM   17  C   UNL     4      -7.708   9.459  67.253  1.00  0.00    -0.091 C  
HETATM   18  C   UNL     4      -8.022   7.943  67.589  1.00  0.00    -0.124 C  
HETATM   19  H   UNL     4      -6.609   9.113  65.620  1.00  0.00     0.000 HD 
HETATM   20  O   UNL     4      -6.573   9.659  66.396  1.00  0.00    -0.069 OA 
HETATM   21  O   UNL     4      -8.881   7.787  68.556  1.00  0.00    -0.131 OA 
HETATM   22  O   UNL     4      -7.379   7.038  66.988  1.00  0.00    -0.082 OA 
ENDBRANCH  14  17
ENDBRANCH  11  14
ENDBRANCH   8  11
ENDBRANCH   3   8
BRANCH   7  23
HETATM   23  C   UNL     5      -6.926  19.686  66.877  1.00  0.00    -0.198 C  
HETATM   24  O   UNL     5      -7.501  20.911  66.418  1.00  0.00    -0.516 OA 
HETATM   25  H   UNL     5      -8.291  21.075  66.919  1.00  0.00     0.000 HD 
BRANCH  23  26
HETATM   26  C   UNL     5      -7.932  18.520  66.758  1.00  0.00    -0.252 C  
HETATM   27  O   UNL     5      -7.651  17.766  65.556  1.00  0.00    -0.489 OA 
HETATM   28  H   UNL     5      -8.269  17.049  65.483  1.00  0.00     0.000 HD 
BRANCH  26  29
HETATM   29  C   UNL     5      -8.082  17.561  67.972  1.00  0.00    -0.237 C  
HETATM   30  O   UNL     5      -7.333  17.985  69.110  1.00  0.00    -0.222 OA 
HETATM   31  H   UNL     5      -7.425  17.399  69.853  1.00  0.00     0.000 HD 
BRANCH  29  32
HETATM   32  C   UNL     5      -7.915  16.054  67.722  1.00  0.00    -0.139 C  
HETATM   33  C   UNL     5      -8.121  15.138  68.947  1.00  0.00    -0.178 C  
HETATM   34  O   UNL     5      -6.613  15.777  67.095  1.00  0.00    -0.251 OA 
HETATM   35  O   UNL     5      -8.988  15.498  69.798  1.00  0.00    -0.240 OA 
HETATM   36  O   UNL     5      -7.316  14.140  68.979  1.00  0.00    -0.124 OA 
HETATM   37  H   UNL     5      -6.510  14.845  66.940  1.00  0.00     0.000 HD 
ENDBRANCH  29  32
ENDBRANCH  26  29
ENDBRANCH  23  26
ENDBRANCH   7  23
TORSDOF 8
ENDMDL
MODEL      390
REMARK 921   NORMALIZED FREE ENERGY PREDICTED BY IDOCK:   -3.80 KCAL/MOL
REMARK 922        TOTAL FREE ENERGY PREDICTED BY IDOCK:   -7.81 KCAL/MOL
REMARK 923 INTER-LIGAND FREE ENERGY PREDICTED BY IDOCK:   -6.06 KCAL/MOL
REMARK 924 INTRA-LIGAND FREE ENERGY PREDICTED BY IDOCK:   -1.75 KCAL/MOL
REMARK 927      BINDING AFFINITY PREDICTED BY RF-SCORE:    0.00 PKD
ROOT
HETATM    1 MG   UNL     3      -9.509  13.911  65.504  1.00  0.00    -0.301 Mg 
HETATM    2  O   UNL     4      -5.139   9.810  63.891  1.00  0.00    -0.058 OA 
HETATM    3  C   UNL     4      -6.436  10.046  64.403  1.00  0.00    -0.131 C  
HETATM    4  H   UNL     4      -5.146   9.508  62.989  1.00  0.00     0.000 HD 
HETATM    5  O   UNL     5     -12.172  16.462  72.257  1.00  0.00    -0.539 OA 
HETATM    6  H   UNL     5     -11.679  17.213  72.567  1.00  0.00     0.000 HD 
HETATM    7  C   UNL     5     -11.313  15.394  71.859  1.00  0.00    -0.384 C  
ENDROOT
BRANCH   3   8
HETATM    8  C   UNL     4      -6.424  10.533  65.859  1.00  0.00    -0.127 C  
HETATM    9  O   UNL     4      -7.518  11.445  66.074  1.00  0.00    -0.366 OA 
HETATM   10  H   UNL     4      -7.511  11.747  66.975  1.00  0.00     0.000 HD 
BRANCH   8  11
HETATM   11  C   UNL     4      -6.497   9.480  67.003  1.00  0.00    -0.067 C  
HETATM   12  O   UNL     4      -5.634   9.776  68.097  1.00  0.00    -0.040 OA 
HETATM   13  H   UNL     4      -5.679   9.133  68.795  1.00  0.00     0.000 HD 
BRANCH  11  14
HETATM   14  C   UNL     4      -7.900   9.033  67.494  1.00  0.00    -0.100 C  
HETATM   15  H   UNL     4      -8.545   7.825  68.888  1.00  0.00     0.000 HD 
HETATM   16  O   UNL     4      -7.687   8.099  68.588  1.00  0.00    -0.107 OA 
BRANCH  14  17
HETATM   17  C   UNL     4      -8.935   8.462  66.482  1.00  0.00    -0.157 C  
HETATM   18  C   UNL     4     -10.387   8.330  67.103  1.00  0.00    -0.317 C  
HETATM   19  H   UNL     4      -9.086   6.930  65.208  1.00  0.00     0.000 HD 
HETATM   20  O   UNL     4      -8.454   7.278  65.826  1.00  0.00    -0.137 OA 
HETATM   21  O   UNL     4     -10.705   9.306  67.905  1.00  0.00    -0.242 OA 
HETATM   22  O   UNL     4     -11.062   7.291  66.862  1.00  0.00    -0.287 OA 
ENDBRANCH  14  17
ENDBRANCH  11  14
ENDBRANCH   8  11
ENDBRANCH   3   8
BRANCH   7  23
HETATM   23  C   UNL     5     -12.113  14.175  71.356  1.00  0.00    -0.227 C  
HETATM   24  O   UNL     5     -13.125  13.875  72.319  1.00  0.00    -0.384 OA 
HETATM   25  H   UNL     5     -13.617  13.124  72.010  1.00  0.00     0.000 HD 
BRANCH  23  26
HETATM   26  C   UNL     5     -12.728  14.431  69.963  1.00  0.00    -0.136 C  
HETATM   27  O   UNL     5     -13.310  15.754  69.932  1.00  0.00    -0.426 OA 
HETATM   28  H   UNL     5     -13.689  15.911  69.075  1.00  0.00     0.000 HD 
BRANCH  26  29
HETATM   29  C   UNL     5     -11.825  14.210  68.717  1.00  0.00    -0.349 C  
HETATM   30  O   UNL     5     -12.562  13.823  67.558  1.00  0.00    -0.339 OA 
HETATM   31  H   UNL     5     -12.010  13.689  66.797  1.00  0.00     0.000 HD 
BRANCH  29  32
HETATM   32  C   UNL     5     -10.560  13.354  68.889  1.00  0.00    -0.155 C  
HETATM   33  C   UNL     5      -9.230  14.022  68.482  1.00  0.00    -0.170 C  
HETATM   34  O   UNL     5     -10.714  12.065  68.194  1.00  0.00    -0.200 OA 
HETATM   35  O   UNL     5      -9.124  15.268  68.684  1.00  0.00    -0.176 OA 
HETATM   36  O   UNL     5      -8.408  13.218  67.913  1.00  0.00    -0.139 OA 
HETATM   37  H   UNL     5      -9.933  11.535  68.299  1.00  0.00     0.000 HD 
ENDBRANCH  29  32
ENDBRANCH  26  29
ENDBRANCH  23  26
ENDBRANCH   7  23
TORSDOF 8
ENDMDL
MODEL      391
REMARK 921   NORMALIZED FREE ENERGY PREDICTED BY IDOCK:   -3.79 KCAL/MOL
REMARK 922        TOTAL FREE ENERGY PREDICTED BY IDOCK:   -7.81 KCAL/MOL
REMARK 923 INTER-LIGAND FREE ENERGY PREDICTED BY IDOCK:   -8.01 KCAL/MOL
REMARK 924 INTRA-LIGAND FREE ENERGY PREDICTED BY IDOCK:    0.20 KCAL/MOL
REMARK 927      BINDING AFFINITY PREDICTED BY RF-SCORE:    0.00 PKD
ROOT
HETATM    1 MG   UNL     3      -7.091  11.342  64.365  1.00  0.00    -0.297 Mg 
HETATM    2  O   UNL     4     -10.856  16.269  64.107  1.00  0.00    -1.006 OA 
HETATM    3  C   UNL     4     -10.217  15.283  64.895  1.00  0.00    -0.174 C  
HETATM    4  H   UNL     4     -10.448  17.124  64.181  1.00  0.00     0.000 HD 
HETATM    5  O   UNL     5      -8.255   3.811  65.433  1.00  0.00    -0.100 OA 
HETATM    6  H   UNL     5      -8.409   3.360  64.612  1.00  0.00     0.000 HD 
HETATM    7  C   UNL     5      -9.068   4.977  65.558  1.00  0.00    -0.158 C  
ENDROOT
BRANCH   3   8
HETATM    8  C   UNL     4     -10.876  13.901  64.776  1.00  0.00    -0.419 C  
HETATM    9  O   UNL     4      -9.875  12.875  64.908  1.00  0.00    -0.499 OA 
HETATM   10  H   UNL     4     -10.283  12.020  64.834  1.00  0.00     0.000 HD 
BRANCH   8  11
HETATM   11  C   UNL     4     -12.023  13.530  65.761  1.00  0.00    -0.403 C  
HETATM   12  O   UNL     4     -12.591  12.250  65.505  1.00  0.00    -0.548 OA 
HETATM   13  H   UNL     4     -13.291  12.023  66.107  1.00  0.00     0.000 HD 
BRANCH  11  14
HETATM   14  C   UNL     4     -11.778  13.748  67.279  1.00  0.00    -0.382 C  
HETATM   15  H   UNL     4     -10.806  15.073  68.334  1.00  0.00     0.000 HD 
HETATM   16  O   UNL     4     -10.955  14.940  67.406  1.00  0.00    -0.296 OA 
BRANCH  14  17
HETATM   17  C   UNL     4     -11.207  12.593  68.151  1.00  0.00    -0.269 C  
HETATM   18  C   UNL     4      -9.704  12.244  67.792  1.00  0.00    -0.199 C  
HETATM   19  H   UNL     4     -11.742  10.756  68.729  1.00  0.00     0.000 HD 
HETATM   20  O   UNL     4     -12.090  11.461  68.196  1.00  0.00    -0.623 OA 
HETATM   21  O   UNL     4      -8.978  13.287  67.506  1.00  0.00    -0.186 OA 
HETATM   22  O   UNL     4      -9.358  11.032  67.723  1.00  0.00    -0.154 OA 
ENDBRANCH  14  17
ENDBRANCH  11  14
ENDBRANCH   8  11
ENDBRANCH   3   8
BRANCH   7  23
HETATM   23  C   UNL     5      -8.818   5.709  66.892  1.00  0.00    -0.113 C  
HETATM   24  O   UNL     5      -7.627   6.488  66.760  1.00  0.00    -0.088 OA 
HETATM   25  H   UNL     5      -7.473   6.938  67.582  1.00  0.00     0.000 HD 
BRANCH  23  26
HETATM   26  C   UNL     5     -10.019   6.593  67.293  1.00  0.00    -0.154 C  
HETATM   27  O   UNL     5     -11.219   6.083  66.668  1.00  0.00    -0.703 OA 
HETATM   28  H   UNL     5     -11.958   6.627  66.915  1.00  0.00     0.000 HD 
BRANCH  26  29
HETATM   29  C   UNL     5     -10.265   6.842  68.807  1.00  0.00    -0.174 C  
HETATM   30  O   UNL     5     -10.727   8.164  69.085  1.00  0.00    -0.335 OA 
HETATM   31  H   UNL     5     -10.878   8.317  70.011  1.00  0.00     0.000 HD 
BRANCH  29  32
HETATM   32  C   UNL     5      -9.168   6.414  69.795  1.00  0.00    -0.144 C  
HETATM   33  C   UNL     5      -9.649   5.685  71.067  1.00  0.00    -0.169 C  
HETATM   34  O   UNL     5      -8.324   7.564  70.157  1.00  0.00    -0.130 OA 
HETATM   35  O   UNL     5     -10.660   4.930  70.953  1.00  0.00    -0.147 OA 
HETATM   36  O   UNL     5      -8.986   6.001  72.118  1.00  0.00    -0.142 OA 
HETATM   37  H   UNL     5      -7.646   7.300  70.767  1.00  0.00     0.000 HD 
ENDBRANCH  29  32
ENDBRANCH  26  29
ENDBRANCH  23  26
ENDBRANCH   7  23
TORSDOF 8
ENDMDL
MODEL      392
REMARK 921   NORMALIZED FREE ENERGY PREDICTED BY IDOCK:   -3.78 KCAL/MOL
REMARK 922        TOTAL FREE ENERGY PREDICTED BY IDOCK:   -7.79 KCAL/MOL
REMARK 923 INTER-LIGAND FREE ENERGY PREDICTED BY IDOCK:   -6.91 KCAL/MOL
REMARK 924 INTRA-LIGAND FREE ENERGY PREDICTED BY IDOCK:   -0.89 KCAL/MOL
REMARK 927      BINDING AFFINITY PREDICTED BY RF-SCORE:    0.00 PKD
ROOT
HETATM    1 MG   UNL     3     -13.637  10.577  69.126  1.00  0.00    -0.281 Mg 
HETATM    2  O   UNL     4     -12.401  13.745  63.934  1.00  0.00    -0.652 OA 
HETATM    3  C   UNL     4     -12.568  12.491  64.567  1.00  0.00    -0.421 C  
HETATM    4  H   UNL     4     -13.144  13.989  63.394  1.00  0.00     0.000 HD 
HETATM    5  O   UNL     5      -9.328   6.469  74.000  1.00  0.00    -0.153 OA 
HETATM    6  H   UNL     5      -8.968   7.011  74.692  1.00  0.00     0.000 HD 
HETATM    7  C   UNL     5      -9.111   7.042  72.711  1.00  0.00    -0.134 C  
ENDROOT
BRANCH   3   8
HETATM    8  C   UNL     4     -11.367  12.097  65.440  1.00  0.00    -0.338 C  
HETATM    9  O   UNL     4     -10.157  12.184  64.665  1.00  0.00    -0.275 OA 
HETATM   10  H   UNL     4      -9.414  11.940  65.205  1.00  0.00     0.000 HD 
BRANCH   8  11
HETATM   11  C   UNL     4     -11.106  12.885  66.756  1.00  0.00    -0.281 C  
HETATM   12  O   UNL     4     -11.524  12.185  67.923  1.00  0.00    -0.283 OA 
HETATM   13  H   UNL     4     -11.364  12.667  68.727  1.00  0.00     0.000 HD 
BRANCH  11  14
HETATM   14  C   UNL     4      -9.708  13.532  66.953  1.00  0.00    -0.261 C  
HETATM   15  H   UNL     4      -8.224  13.238  68.189  1.00  0.00     0.000 HD 
HETATM   16  O   UNL     4      -9.079  12.842  68.068  1.00  0.00    -0.197 OA 
BRANCH  14  17
HETATM   17  C   UNL     4      -9.578  15.073  67.119  1.00  0.00    -0.217 C  
HETATM   18  C   UNL     4     -10.570  15.655  68.210  1.00  0.00    -0.262 C  
HETATM   19  H   UNL     4      -9.528  16.699  65.959  1.00  0.00     0.000 HD 
HETATM   20  O   UNL     4      -9.608  15.758  65.857  1.00  0.00    -0.317 OA 
HETATM   21  O   UNL     4     -10.720  14.881  69.247  1.00  0.00    -0.235 OA 
HETATM   22  O   UNL     4     -11.184  16.729  67.965  1.00  0.00    -0.295 OA 
ENDBRANCH  14  17
ENDBRANCH  11  14
ENDBRANCH   8  11
ENDBRANCH   3   8
BRANCH   7  23
HETATM   23  C   UNL     5      -9.696   6.161  71.589  1.00  0.00    -0.158 C  
HETATM   24  O   UNL     5     -11.037   5.816  71.942  1.00  0.00    -0.259 OA 
HETATM   25  H   UNL     5     -11.397   5.274  71.251  1.00  0.00     0.000 HD 
BRANCH  23  26
HETATM   26  C   UNL     5      -9.648   6.874  70.220  1.00  0.00    -0.168 C  
HETATM   27  O   UNL     5     -10.090   5.962  69.189  1.00  0.00    -0.162 OA 
HETATM   28  H   UNL     5     -10.061   6.401  68.346  1.00  0.00     0.000 HD 
BRANCH  26  29
HETATM   29  C   UNL     5     -10.381   8.238  70.083  1.00  0.00    -0.212 C  
HETATM   30  O   UNL     5     -11.785   8.095  69.872  1.00  0.00    -0.431 OA 
HETATM   31  H   UNL     5     -12.233   8.929  69.788  1.00  0.00     0.000 HD 
BRANCH  29  32
HETATM   32  C   UNL     5      -9.776   9.288  69.137  1.00  0.00    -0.164 C  
HETATM   33  C   UNL     5      -8.442   8.903  68.464  1.00  0.00    -0.129 C  
HETATM   34  O   UNL     5      -9.643  10.583  69.825  1.00  0.00    -0.418 OA 
HETATM   35  O   UNL     5      -8.276   7.683  68.166  1.00  0.00    -0.122 OA 
HETATM   36  O   UNL     5      -7.624   9.885  68.353  1.00  0.00    -0.082 OA 
HETATM   37  H   UNL     5      -9.269  11.232  69.241  1.00  0.00     0.000 HD 
ENDBRANCH  29  32
ENDBRANCH  26  29
ENDBRANCH  23  26
ENDBRANCH   7  23
TORSDOF 8
ENDMDL
MODEL      393
REMARK 921   NORMALIZED FREE ENERGY PREDICTED BY IDOCK:   -3.78 KCAL/MOL
REMARK 922        TOTAL FREE ENERGY PREDICTED BY IDOCK:   -7.79 KCAL/MOL
REMARK 923 INTER-LIGAND FREE ENERGY PREDICTED BY IDOCK:   -7.05 KCAL/MOL
REMARK 924 INTRA-LIGAND FREE ENERGY PREDICTED BY IDOCK:   -0.75 KCAL/MOL
REMARK 927      BINDING AFFINITY PREDICTED BY RF-SCORE:    0.00 PKD
ROOT
HETATM    1 MG   UNL     3     -12.349  10.673  67.507  1.00  0.00    -0.082 Mg 
HETATM    2  O   UNL     4     -14.290   8.594  73.023  1.00  0.00    -1.043 OA 
HETATM    3  C   UNL     4     -13.384   9.396  72.291  1.00  0.00    -0.461 C  
HETATM    4  H   UNL     4     -14.966   9.102  73.459  1.00  0.00     0.000 HD 
HETATM    5  O   UNL     5      -6.246   9.115  63.086  1.00  0.00    -0.089 OA 
HETATM    6  H   UNL     5      -6.418   8.392  62.494  1.00  0.00     0.000 HD 
HETATM    7  C   UNL     5      -6.617   8.800  64.428  1.00  0.00    -0.071 C  
ENDROOT
BRANCH   3   8
HETATM    8  C   UNL     4     -12.293   8.576  71.587  1.00  0.00    -0.326 C  
HETATM    9  O   UNL     4     -12.860   7.355  71.075  1.00  0.00    -0.535 OA 
HETATM   10  H   UNL     4     -12.184   6.847  70.640  1.00  0.00     0.000 HD 
BRANCH   8  11
HETATM   11  C   UNL     4     -11.508   9.225  70.410  1.00  0.00    -0.213 C  
HETATM   12  O   UNL     4     -10.670  10.301  70.818  1.00  0.00    -0.393 OA 
HETATM   13  H   UNL     4     -10.191  10.697  70.100  1.00  0.00     0.000 HD 
BRANCH  11  14
HETATM   14  C   UNL     4     -10.777   8.284  69.415  1.00  0.00    -0.151 C  
HETATM   15  H   UNL     4      -9.099   7.284  69.454  1.00  0.00     0.000 HD 
HETATM   16  O   UNL     4      -9.546   7.860  70.063  1.00  0.00    -0.168 OA 
BRANCH  14  17
HETATM   17  C   UNL     4     -10.494   8.756  67.960  1.00  0.00    -0.204 C  
HETATM   18  C   UNL     4     -10.060   7.567  67.006  1.00  0.00    -0.261 C  
HETATM   19  H   UNL     4      -9.455  10.189  67.032  1.00  0.00     0.000 HD 
HETATM   20  O   UNL     4      -9.627   9.901  67.920  1.00  0.00    -0.137 OA 
HETATM   21  O   UNL     4     -10.694   6.453  67.236  1.00  0.00    -0.262 OA 
HETATM   22  O   UNL     4      -9.111   7.750  66.195  1.00  0.00    -0.173 OA 
ENDBRANCH  14  17
ENDBRANCH  11  14
ENDBRANCH   8  11
ENDBRANCH   3   8
BRANCH   7  23
HETATM   23  C   UNL     5      -6.339   9.974  65.388  1.00  0.00    -0.101 C  
HETATM   24  O   UNL     5      -5.825  11.066  64.623  1.00  0.00    -0.395 OA 
HETATM   25  H   UNL     5      -5.653  11.789  65.215  1.00  0.00     0.000 HD 
BRANCH  23  26
HETATM   26  C   UNL     5      -7.606  10.388  66.167  1.00  0.00    -0.130 C  
HETATM   27  O   UNL     5      -7.258  10.645  67.546  1.00  0.00    -0.087 OA 
HETATM   28  H   UNL     5      -8.038  10.900  68.025  1.00  0.00     0.000 HD 
BRANCH  26  29
HETATM   29  C   UNL     5      -8.459  11.557  65.599  1.00  0.00     0.195 C  
HETATM   30  O   UNL     5      -8.619  12.629  66.527  1.00  0.00    -0.405 OA 
HETATM   31  H   UNL     5      -9.140  13.344  66.181  1.00  0.00     0.000 HD 
BRANCH  29  32
HETATM   32  C   UNL     5      -9.789  11.208  64.912  1.00  0.00    -0.266 C  
HETATM   33  C   UNL     5      -9.934  11.667  63.446  1.00  0.00    -0.425 C  
HETATM   34  O   UNL     5     -10.925  11.698  65.711  1.00  0.00    -0.292 OA 
HETATM   35  O   UNL     5      -8.887  11.659  62.732  1.00  0.00    -0.239 OA 
HETATM   36  O   UNL     5     -11.114  12.073  63.152  1.00  0.00    -0.329 OA 
HETATM   37  H   UNL     5     -11.747  11.483  65.287  1.00  0.00     0.000 HD 
ENDBRANCH  29  32
ENDBRANCH  26  29
ENDBRANCH  23  26
ENDBRANCH   7  23
TORSDOF 8
ENDMDL
MODEL      394
REMARK 921   NORMALIZED FREE ENERGY PREDICTED BY IDOCK:   -3.78 KCAL/MOL
REMARK 922        TOTAL FREE ENERGY PREDICTED BY IDOCK:   -7.79 KCAL/MOL
REMARK 923 INTER-LIGAND FREE ENERGY PREDICTED BY IDOCK:   -5.22 KCAL/MOL
REMARK 924 INTRA-LIGAND FREE ENERGY PREDICTED BY IDOCK:   -2.57 KCAL/MOL
REMARK 927      BINDING AFFINITY PREDICTED BY RF-SCORE:    0.00 PKD
ROOT
HETATM    1 MG   UNL     3      -6.618   8.748  67.303  1.00  0.00    -0.050 Mg 
HETATM    2  O   UNL     4      -5.940   4.886  72.114  1.00  0.00    -0.018 OA 
HETATM    3  C   UNL     4      -6.809   5.536  71.206  1.00  0.00    -0.057 C  
HETATM    4  H   UNL     4      -5.813   3.966  71.910  1.00  0.00     0.000 HD 
HETATM    5  O   UNL     5      -9.130  15.988  66.610  1.00  0.00    -0.210 OA 
HETATM    6  H   UNL     5      -8.425  16.615  66.718  1.00  0.00     0.000 HD 
HETATM    7  C   UNL     5      -9.142  15.020  67.659  1.00  0.00    -0.182 C  
ENDROOT
BRANCH   3   8
HETATM    8  C   UNL     4      -7.015   7.022  71.535  1.00  0.00    -0.065 C  
HETATM    9  O   UNL     4      -7.493   7.715  70.367  1.00  0.00    -0.076 OA 
HETATM   10  H   UNL     4      -7.619   8.635  70.570  1.00  0.00     0.000 HD 
BRANCH   8  11
HETATM   11  C   UNL     4      -7.974   7.407  72.700  1.00  0.00    -0.100 C  
HETATM   12  O   UNL     4      -7.592   8.603  73.371  1.00  0.00    -0.367 OA 
HETATM   13  H   UNL     4      -8.177   8.838  74.081  1.00  0.00     0.000 HD 
BRANCH  11  14
HETATM   14  C   UNL     4      -9.502   7.374  72.426  1.00  0.00    -0.152 C  
HETATM   15  H   UNL     4     -10.640   6.486  71.110  1.00  0.00     0.000 HD 
HETATM   16  O   UNL     4      -9.705   6.506  71.277  1.00  0.00    -0.173 OA 
BRANCH  14  17
HETATM   17  C   UNL     4     -10.292   8.703  72.254  1.00  0.00    -0.306 C  
HETATM   18  C   UNL     4     -11.772   8.470  71.737  1.00  0.00    -0.327 C  
HETATM   19  H   UNL     4     -10.030  10.496  71.410  1.00  0.00     0.000 HD 
HETATM   20  O   UNL     4      -9.548   9.684  71.515  1.00  0.00    -0.080 OA 
HETATM   21  O   UNL     4     -12.343   7.414  72.242  1.00  0.00    -0.235 OA 
HETATM   22  O   UNL     4     -12.235   9.235  70.847  1.00  0.00    -0.278 OA 
ENDBRANCH  14  17
ENDBRANCH  11  14
ENDBRANCH   8  11
ENDBRANCH   3   8
BRANCH   7  23
HETATM   23  C   UNL     5     -10.287  14.002  67.485  1.00  0.00    -0.245 C  
HETATM   24  O   UNL     5     -10.091  13.316  66.247  1.00  0.00    -0.280 OA 
HETATM   25  H   UNL     5     -10.796  12.689  66.140  1.00  0.00     0.000 HD 
BRANCH  23  26
HETATM   26  C   UNL     5     -10.355  13.011  68.667  1.00  0.00    -0.191 C  
HETATM   27  O   UNL     5     -11.722  12.900  69.122  1.00  0.00    -0.290 OA 
HETATM   28  H   UNL     5     -11.764  12.290  69.849  1.00  0.00     0.000 HD 
BRANCH  26  29
HETATM   29  C   UNL     5      -9.738  11.598  68.468  1.00  0.00    -0.184 C  
HETATM   30  O   UNL     5      -8.544  11.619  67.686  1.00  0.00    -0.133 OA 
HETATM   31  H   UNL     5      -8.166  10.755  67.564  1.00  0.00     0.000 HD 
BRANCH  29  32
HETATM   32  C   UNL     5     -10.674  10.460  68.030  1.00  0.00    -0.249 C  
HETATM   33  C   UNL     5      -9.995   9.112  67.708  1.00  0.00    -0.189 C  
HETATM   34  O   UNL     5     -11.511  10.889  66.898  1.00  0.00    -0.342 OA 
HETATM   35  O   UNL     5      -8.976   8.800  68.393  1.00  0.00    -0.140 OA 
HETATM   36  O   UNL     5     -10.526   8.497  66.715  1.00  0.00    -0.303 OA 
HETATM   37  H   UNL     5     -12.090  10.187  66.628  1.00  0.00     0.000 HD 
ENDBRANCH  29  32
ENDBRANCH  26  29
ENDBRANCH  23  26
ENDBRANCH   7  23
TORSDOF 8
ENDMDL
MODEL      395
REMARK 921   NORMALIZED FREE ENERGY PREDICTED BY IDOCK:   -3.78 KCAL/MOL
REMARK 922        TOTAL FREE ENERGY PREDICTED BY IDOCK:   -7.79 KCAL/MOL
REMARK 923 INTER-LIGAND FREE ENERGY PREDICTED BY IDOCK:   -6.04 KCAL/MOL
REMARK 924 INTRA-LIGAND FREE ENERGY PREDICTED BY IDOCK:   -1.74 KCAL/MOL
REMARK 927      BINDING AFFINITY PREDICTED BY RF-SCORE:    0.00 PKD
ROOT
HETATM    1 MG   UNL     3      -6.398  11.312  68.292  1.00  0.00    -0.049 Mg 
HETATM    2  O   UNL     4     -10.222  15.918  66.654  1.00  0.00    -0.271 OA 
HETATM    3  C   UNL     4      -9.772  15.027  67.656  1.00  0.00    -0.215 C  
HETATM    4  H   UNL     4      -9.901  16.804  66.774  1.00  0.00     0.000 HD 
HETATM    5  O   UNL     5      -7.374   3.782  69.540  1.00  0.00    -0.051 OA 
HETATM    6  H   UNL     5      -7.266   3.278  68.743  1.00  0.00     0.000 HD 
HETATM    7  C   UNL     5      -8.256   4.888  69.352  1.00  0.00    -0.081 C  
ENDROOT
BRANCH   3   8
HETATM    8  C   UNL     4     -10.290  13.595  67.461  1.00  0.00    -0.241 C  
HETATM    9  O   UNL     4     -10.581  13.372  66.068  1.00  0.00    -0.280 OA 
HETATM   10  H   UNL     4     -10.902  12.485  65.947  1.00  0.00     0.000 HD 
BRANCH   8  11
HETATM   11  C   UNL     4      -9.398  12.405  67.921  1.00  0.00    -0.195 C  
HETATM   12  O   UNL     4      -8.285  12.809  68.711  1.00  0.00    -0.335 OA 
HETATM   13  H   UNL     4      -7.741  12.083  68.992  1.00  0.00     0.000 HD 
BRANCH  11  14
HETATM   14  C   UNL     4     -10.101  11.160  68.527  1.00  0.00    -0.201 C  
HETATM   15  H   UNL     4     -10.971   9.578  67.780  1.00  0.00     0.000 HD 
HETATM   16  O   UNL     4     -10.541  10.340  67.410  1.00  0.00    -0.233 OA 
BRANCH  14  17
HETATM   17  C   UNL     4     -11.249  11.338  69.561  1.00  0.00    -0.272 C  
HETATM   18  C   UNL     4     -11.294  10.169  70.630  1.00  0.00    -0.352 C  
HETATM   19  H   UNL     4     -13.209  11.728  69.559  1.00  0.00     0.000 HD 
HETATM   20  O   UNL     4     -12.508  11.619  68.928  1.00  0.00    -0.266 OA 
HETATM   21  O   UNL     4     -10.117   9.756  71.004  1.00  0.00    -0.216 OA 
HETATM   22  O   UNL     4     -12.412   9.683  70.957  1.00  0.00    -0.309 OA 
ENDBRANCH  14  17
ENDBRANCH  11  14
ENDBRANCH   8  11
ENDBRANCH   3   8
BRANCH   7  23
HETATM   23  C   UNL     5      -8.431   5.707  70.648  1.00  0.00    -0.126 C  
HETATM   24  O   UNL     5      -7.234   6.456  70.869  1.00  0.00    -0.068 OA 
HETATM   25  H   UNL     5      -7.342   6.960  71.667  1.00  0.00     0.000 HD 
BRANCH  23  26
HETATM   26  C   UNL     5      -9.663   6.634  70.575  1.00  0.00    -0.176 C  
HETATM   27  O   UNL     5      -9.710   7.269  69.277  1.00  0.00    -0.159 OA 
HETATM   28  H   UNL     5     -10.468   7.840  69.232  1.00  0.00     0.000 HD 
BRANCH  26  29
HETATM   29  C   UNL     5     -11.051   6.030  70.929  1.00  0.00    -0.284 C  
HETATM   30  O   UNL     5     -12.135   6.893  70.589  1.00  0.00    -0.469 OA 
HETATM   31  H   UNL     5     -12.984   6.523  70.805  1.00  0.00     0.000 HD 
BRANCH  29  32
HETATM   32  C   UNL     5     -11.234   5.423  72.329  1.00  0.00    -0.171 C  
HETATM   33  C   UNL     5     -10.770   6.298  73.512  1.00  0.00    -0.242 C  
HETATM   34  O   UNL     5     -10.602   4.096  72.401  1.00  0.00    -0.146 OA 
HETATM   35  O   UNL     5     -10.913   7.552  73.394  1.00  0.00    -0.380 OA 
HETATM   36  O   UNL     5     -10.221   5.629  74.458  1.00  0.00    -0.257 OA 
HETATM   37  H   UNL     5     -10.716   3.721  73.266  1.00  0.00     0.000 HD 
ENDBRANCH  29  32
ENDBRANCH  26  29
ENDBRANCH  23  26
ENDBRANCH   7  23
TORSDOF 8
ENDMDL
MODEL      396
REMARK 921   NORMALIZED FREE ENERGY PREDICTED BY IDOCK:   -3.77 KCAL/MOL
REMARK 922        TOTAL FREE ENERGY PREDICTED BY IDOCK:   -7.78 KCAL/MOL
REMARK 923 INTER-LIGAND FREE ENERGY PREDICTED BY IDOCK:   -6.24 KCAL/MOL
REMARK 924 INTRA-LIGAND FREE ENERGY PREDICTED BY IDOCK:   -1.54 KCAL/MOL
REMARK 927      BINDING AFFINITY PREDICTED BY RF-SCORE:    0.00 PKD
ROOT
HETATM    1 MG   UNL     3      -9.306  12.382  63.451  1.00  0.00    -0.463 Mg 
HETATM    2  O   UNL     4      -9.198  18.049  65.979  1.00  0.00    -0.508 OA 
HETATM    3  C   UNL     4      -8.600  16.772  65.863  1.00  0.00    -0.029 C  
HETATM    4  H   UNL     4      -8.728  18.723  65.500  1.00  0.00     0.000 HD 
HETATM    5  O   UNL     5     -11.124   5.400  66.128  1.00  0.00    -0.748 OA 
HETATM    6  H   UNL     5     -12.049   5.214  66.021  1.00  0.00     0.000 HD 
HETATM    7  C   UNL     5     -10.907   6.677  66.728  1.00  0.00    -0.252 C  
ENDROOT
BRANCH   3   8
HETATM    8  C   UNL     4      -9.360  15.684  66.636  1.00  0.00    -0.265 C  
HETATM    9  O   UNL     4      -9.049  14.391  66.083  1.00  0.00    -0.485 OA 
HETATM   10  H   UNL     4      -9.519  13.718  66.561  1.00  0.00     0.000 HD 
BRANCH   8  11
HETATM   11  C   UNL     4      -9.146  15.568  68.173  1.00  0.00    -0.184 C  
HETATM   12  O   UNL     4      -9.045  16.831  68.824  1.00  0.00    -0.251 OA 
HETATM   13  H   UNL     4      -8.915  16.760  69.762  1.00  0.00     0.000 HD 
BRANCH  11  14
HETATM   14  C   UNL     4     -10.061  14.595  68.965  1.00  0.00    -0.209 C  
HETATM   15  H   UNL     4     -10.267  12.654  69.029  1.00  0.00     0.000 HD 
HETATM   16  O   UNL     4      -9.708  13.249  68.545  1.00  0.00    -0.215 OA 
BRANCH  14  17
HETATM   17  C   UNL     4     -11.605  14.786  68.946  1.00  0.00    -0.313 C  
HETATM   18  C   UNL     4     -12.157  15.428  70.286  1.00  0.00    -0.369 C  
HETATM   19  H   UNL     4     -13.235  13.714  68.511  1.00  0.00     0.000 HD 
HETATM   20  O   UNL     4     -12.292  13.598  68.524  1.00  0.00    -0.248 OA 
HETATM   21  O   UNL     4     -11.377  16.341  70.789  1.00  0.00    -0.395 OA 
HETATM   22  O   UNL     4     -13.215  14.965  70.793  1.00  0.00    -0.371 OA 
ENDBRANCH  14  17
ENDBRANCH  11  14
ENDBRANCH   8  11
ENDBRANCH   3   8
BRANCH   7  23
HETATM   23  C   UNL     5      -9.405   6.979  66.902  1.00  0.00    -0.153 C  
HETATM   24  O   UNL     5      -9.209   7.548  68.198  1.00  0.00    -0.138 OA 
HETATM   25  H   UNL     5      -8.284   7.734  68.305  1.00  0.00     0.000 HD 
BRANCH  23  26
HETATM   26  C   UNL     5      -8.542   5.713  66.713  1.00  0.00    -0.111 C  
HETATM   27  O   UNL     5      -8.547   5.332  65.318  1.00  0.00    -0.142 OA 
HETATM   28  H   UNL     5      -8.016   4.553  65.203  1.00  0.00     0.000 HD 
BRANCH  26  29
HETATM   29  C   UNL     5      -7.087   5.736  67.259  1.00  0.00    -0.074 C  
HETATM   30  O   UNL     5      -6.144   5.168  66.351  1.00  0.00    -0.025 OA 
HETATM   31  H   UNL     5      -5.254   5.183  66.684  1.00  0.00     0.000 HD 
BRANCH  29  32
HETATM   32  C   UNL     5      -6.849   5.241  68.695  1.00  0.00    -0.055 C  
HETATM   33  C   UNL     5      -7.512   3.898  69.066  1.00  0.00    -0.054 C  
HETATM   34  O   UNL     5      -7.230   6.280  69.666  1.00  0.00    -0.073 OA 
HETATM   35  O   UNL     5      -7.597   3.024  68.152  1.00  0.00    -0.056 OA 
HETATM   36  O   UNL     5      -7.965   3.866  70.265  1.00  0.00    -0.050 OA 
HETATM   37  H   UNL     5      -7.083   5.975  70.553  1.00  0.00     0.000 HD 
ENDBRANCH  29  32
ENDBRANCH  26  29
ENDBRANCH  23  26
ENDBRANCH   7  23
TORSDOF 8
ENDMDL
MODEL      397
REMARK 921   NORMALIZED FREE ENERGY PREDICTED BY IDOCK:   -3.77 KCAL/MOL
REMARK 922        TOTAL FREE ENERGY PREDICTED BY IDOCK:   -7.77 KCAL/MOL
REMARK 923 INTER-LIGAND FREE ENERGY PREDICTED BY IDOCK:   -7.87 KCAL/MOL
REMARK 924 INTRA-LIGAND FREE ENERGY PREDICTED BY IDOCK:    0.10 KCAL/MOL
REMARK 927      BINDING AFFINITY PREDICTED BY RF-SCORE:    0.00 PKD
ROOT
HETATM    1 MG   UNL     3      -8.362  14.203  70.203  1.00  0.00    -0.288 Mg 
HETATM    2  O   UNL     4     -12.417   9.514  70.513  1.00  0.00    -0.484 OA 
HETATM    3  C   UNL     4     -11.543  10.298  69.724  1.00  0.00    -0.227 C  
HETATM    4  H   UNL     4     -12.064   8.655  70.714  1.00  0.00     0.000 HD 
HETATM    5  O   UNL     5      -8.715  21.359  67.397  1.00  0.00    -0.418 OA 
HETATM    6  H   UNL     5      -9.026  21.976  68.048  1.00  0.00     0.000 HD 
HETATM    7  C   UNL     5      -9.555  20.208  67.313  1.00  0.00    -0.421 C  
ENDROOT
BRANCH   3   8
HETATM    8  C   UNL     4     -12.114  11.687  69.399  1.00  0.00    -0.263 C  
HETATM    9  O   UNL     4     -12.331  12.418  70.620  1.00  0.00    -0.351 OA 
HETATM   10  H   UNL     4     -12.685  13.277  70.419  1.00  0.00     0.000 HD 
BRANCH   8  11
HETATM   11  C   UNL     4     -11.307  12.628  68.458  1.00  0.00    -0.296 C  
HETATM   12  O   UNL     4     -10.028  12.981  68.976  1.00  0.00    -0.420 OA 
HETATM   13  H   UNL     4      -9.536  13.555  68.402  1.00  0.00     0.000 HD 
BRANCH  11  14
HETATM   14  C   UNL     4     -11.225  12.259  66.952  1.00  0.00    -0.312 C  
HETATM   15  H   UNL     4     -11.767  10.712  65.889  1.00  0.00     0.000 HD 
HETATM   16  O   UNL     4     -11.817  10.938  66.810  1.00  0.00    -0.040 OA 
BRANCH  14  17
HETATM   17  C   UNL     4      -9.864  12.331  66.204  1.00  0.00    -0.243 C  
HETATM   18  C   UNL     4      -9.814  11.382  64.935  1.00  0.00    -0.258 C  
HETATM   19  H   UNL     4      -7.915  12.241  66.639  1.00  0.00     0.000 HD 
HETATM   20  O   UNL     4      -8.747  12.196  67.096  1.00  0.00    -0.176 OA 
HETATM   21  O   UNL     4     -10.936  11.328  64.277  1.00  0.00    -0.354 OA 
HETATM   22  O   UNL     4      -8.769  10.708  64.718  1.00  0.00    -0.184 OA 
ENDBRANCH  14  17
ENDBRANCH  11  14
ENDBRANCH   8  11
ENDBRANCH   3   8
BRANCH   7  23
HETATM   23  C   UNL     5      -9.049  19.207  66.255  1.00  0.00    -0.310 C  
HETATM   24  O   UNL     5      -7.680  18.911  66.536  1.00  0.00    -0.240 OA 
HETATM   25  H   UNL     5      -7.368  18.294  65.885  1.00  0.00     0.000 HD 
BRANCH  23  26
HETATM   26  C   UNL     5      -9.903  17.921  66.231  1.00  0.00    -0.301 C  
HETATM   27  O   UNL     5      -9.090  16.814  65.779  1.00  0.00    -0.515 OA 
HETATM   28  H   UNL     5      -9.616  16.022  65.765  1.00  0.00     0.000 HD 
BRANCH  26  29
HETATM   29  C   UNL     5     -10.669  17.532  67.527  1.00  0.00    -0.280 C  
HETATM   30  O   UNL     5     -10.959  18.655  68.359  1.00  0.00    -0.195 OA 
HETATM   31  H   UNL     5     -11.427  18.418  69.151  1.00  0.00     0.000 HD 
BRANCH  29  32
HETATM   32  C   UNL     5     -10.135  16.349  68.350  1.00  0.00    -0.245 C  
HETATM   33  C   UNL     5     -11.023  15.885  69.523  1.00  0.00    -0.311 C  
HETATM   34  O   UNL     5      -8.770  16.628  68.827  1.00  0.00    -0.246 OA 
HETATM   35  O   UNL     5     -12.278  15.970  69.367  1.00  0.00    -0.231 OA 
HETATM   36  O   UNL     5     -10.356  15.528  70.559  1.00  0.00    -0.260 OA 
HETATM   37  H   UNL     5      -8.440  15.897  69.335  1.00  0.00     0.000 HD 
ENDBRANCH  29  32
ENDBRANCH  26  29
ENDBRANCH  23  26
ENDBRANCH   7  23
TORSDOF 8
ENDMDL
MODEL      398
REMARK 921   NORMALIZED FREE ENERGY PREDICTED BY IDOCK:   -3.76 KCAL/MOL
REMARK 922        TOTAL FREE ENERGY PREDICTED BY IDOCK:   -7.76 KCAL/MOL
REMARK 923 INTER-LIGAND FREE ENERGY PREDICTED BY IDOCK:   -6.49 KCAL/MOL
REMARK 924 INTRA-LIGAND FREE ENERGY PREDICTED BY IDOCK:   -1.26 KCAL/MOL
REMARK 927      BINDING AFFINITY PREDICTED BY RF-SCORE:    0.00 PKD
ROOT
HETATM    1 MG   UNL     3      -7.246   8.927  67.079  1.00  0.00    -0.070 Mg 
HETATM    2  O   UNL     4      -7.538   2.729  66.941  1.00  0.00    -0.069 OA 
HETATM    3  C   UNL     4      -7.519   3.949  66.225  1.00  0.00    -0.084 C  
HETATM    4  H   UNL     4      -6.711   2.262  66.899  1.00  0.00     0.000 HD 
HETATM    5  O   UNL     5     -12.414  14.519  65.968  1.00  0.00    -0.313 OA 
HETATM    6  H   UNL     5     -12.856  14.752  66.775  1.00  0.00     0.000 HD 
HETATM    7  C   UNL     5     -12.406  13.107  65.757  1.00  0.00    -0.435 C  
ENDROOT
BRANCH   3   8
HETATM    8  C   UNL     4      -8.855   4.703  66.293  1.00  0.00    -0.113 C  
HETATM    9  O   UNL     4      -9.880   3.828  66.800  1.00  0.00    -0.354 OA 
HETATM   10  H   UNL     4     -10.707   4.295  66.842  1.00  0.00     0.000 HD 
BRANCH   8  11
HETATM   11  C   UNL     4      -8.936   6.011  67.133  1.00  0.00    -0.114 C  
HETATM   12  O   UNL     4      -9.016   7.188  66.337  1.00  0.00    -0.145 OA 
HETATM   13  H   UNL     4      -9.066   7.986  66.850  1.00  0.00     0.000 HD 
BRANCH  11  14
HETATM   14  C   UNL     4      -9.943   6.056  68.315  1.00  0.00    -0.147 C  
HETATM   15  H   UNL     4     -11.819   6.569  68.498  1.00  0.00     0.000 HD 
HETATM   16  O   UNL     4     -11.203   6.541  67.775  1.00  0.00    -0.305 OA 
BRANCH  14  17
HETATM   17  C   UNL     4      -9.578   6.818  69.621  1.00  0.00    -0.148 C  
HETATM   18  C   UNL     4     -10.309   6.226  70.896  1.00  0.00    -0.205 C  
HETATM   19  H   UNL     4      -9.476   8.707  70.267  1.00  0.00     0.000 HD 
HETATM   20  O   UNL     4      -9.699   8.241  69.470  1.00  0.00    -0.170 OA 
HETATM   21  O   UNL     4     -10.410   4.927  70.886  1.00  0.00    -0.217 OA 
HETATM   22  O   UNL     4     -10.798   7.022  71.744  1.00  0.00    -0.220 OA 
ENDBRANCH  14  17
ENDBRANCH  11  14
ENDBRANCH   8  11
ENDBRANCH   3   8
BRANCH   7  23
HETATM   23  C   UNL     5     -11.687  12.729  64.447  1.00  0.00    -0.368 C  
HETATM   24  O   UNL     5     -11.108  13.913  63.895  1.00  0.00    -0.540 OA 
HETATM   25  H   UNL     5     -10.665  13.680  63.088  1.00  0.00     0.000 HD 
BRANCH  23  26
HETATM   26  C   UNL     5     -10.615  11.641  64.677  1.00  0.00    -0.312 C  
HETATM   27  O   UNL     5      -9.450  11.938  63.874  1.00  0.00    -0.494 OA 
HETATM   28  H   UNL     5      -8.791  11.269  64.015  1.00  0.00     0.000 HD 
BRANCH  26  29
HETATM   29  C   UNL     5     -10.195  11.331  66.141  1.00  0.00    -0.245 C  
HETATM   30  O   UNL     5      -9.012  10.538  66.223  1.00  0.00    -0.151 OA 
HETATM   31  H   UNL     5      -8.755  10.348  67.118  1.00  0.00     0.000 HD 
BRANCH  29  32
HETATM   32  C   UNL     5     -11.278  10.824  67.107  1.00  0.00    -0.147 C  
HETATM   33  C   UNL     5     -11.365  11.548  68.466  1.00  0.00    -0.277 C  
HETATM   34  O   UNL     5     -11.144   9.372  67.314  1.00  0.00    -0.346 OA 
HETATM   35  O   UNL     5     -11.106  12.789  68.477  1.00  0.00    -0.238 OA 
HETATM   36  O   UNL     5     -11.629  10.765  69.447  1.00  0.00    -0.265 OA 
HETATM   37  H   UNL     5     -11.812   9.059  67.911  1.00  0.00     0.000 HD 
ENDBRANCH  29  32
ENDBRANCH  26  29
ENDBRANCH  23  26
ENDBRANCH   7  23
TORSDOF 8
ENDMDL
MODEL      399
REMARK 921   NORMALIZED FREE ENERGY PREDICTED BY IDOCK:   -3.76 KCAL/MOL
REMARK 922        TOTAL FREE ENERGY PREDICTED BY IDOCK:   -7.76 KCAL/MOL
REMARK 923 INTER-LIGAND FREE ENERGY PREDICTED BY IDOCK:   -7.20 KCAL/MOL
REMARK 924 INTRA-LIGAND FREE ENERGY PREDICTED BY IDOCK:   -0.56 KCAL/MOL
REMARK 927      BINDING AFFINITY PREDICTED BY RF-SCORE:    0.00 PKD
ROOT
HETATM    1 MG   UNL     3     -10.465  14.321  69.696  1.00  0.00    -0.219 Mg 
HETATM    2  O   UNL     4     -13.100  15.254  64.155  1.00  0.00    -0.270 OA 
HETATM    3  C   UNL     4     -13.218  14.760  65.475  1.00  0.00     0.674 C  
HETATM    4  H   UNL     4     -13.549  16.082  64.028  1.00  0.00     0.000 HD 
HETATM    5  O   UNL     5      -7.736   8.096  73.304  1.00  0.00    -0.148 OA 
HETATM    6  H   UNL     5      -6.821   7.947  73.101  1.00  0.00     0.000 HD 
HETATM    7  C   UNL     5      -8.512   8.310  72.125  1.00  0.00    -0.179 C  
ENDROOT
BRANCH   3   8
HETATM    8  C   UNL     4     -12.493  13.422  65.680  1.00  0.00    -0.464 C  
HETATM    9  O   UNL     4     -12.787  12.539  64.581  1.00  0.00    -0.716 OA 
HETATM   10  H   UNL     4     -12.338  11.711  64.708  1.00  0.00     0.000 HD 
BRANCH   8  11
HETATM   11  C   UNL     4     -10.944  13.425  65.841  1.00  0.00    -0.274 C  
HETATM   12  O   UNL     4     -10.261  12.870  64.722  1.00  0.00    -0.380 OA 
HETATM   13  H   UNL     4      -9.316  12.873  64.820  1.00  0.00     0.000 HD 
BRANCH  11  14
HETATM   14  C   UNL     4     -10.265  14.733  66.328  1.00  0.00    -0.298 C  
HETATM   15  H   UNL     4      -9.316  16.196  65.446  1.00  0.00     0.000 HD 
HETATM   16  O   UNL     4      -9.732  15.396  65.148  1.00  0.00    -0.221 OA 
BRANCH  14  17
HETATM   17  C   UNL     4      -9.196  14.684  67.457  1.00  0.00    -0.192 C  
HETATM   18  C   UNL     4      -8.923  16.106  68.101  1.00  0.00    -0.185 C  
HETATM   19  H   UNL     4      -7.363  13.941  67.744  1.00  0.00     0.000 HD 
HETATM   20  O   UNL     4      -8.016  13.972  67.054  1.00  0.00    -0.114 OA 
HETATM   21  O   UNL     4      -9.992  16.839  68.225  1.00  0.00    -0.252 OA 
HETATM   22  O   UNL     4      -7.733  16.445  68.349  1.00  0.00    -0.162 OA 
ENDBRANCH  14  17
ENDBRANCH  11  14
ENDBRANCH   8  11
ENDBRANCH   3   8
BRANCH   7  23
HETATM   23  C   UNL     5      -9.999   8.553  72.455  1.00  0.00    -0.295 C  
HETATM   24  O   UNL     5     -10.441   9.695  71.719  1.00  0.00    -0.042 OA 
HETATM   25  H   UNL     5     -11.356   9.844  71.922  1.00  0.00     0.000 HD 
BRANCH  23  26
HETATM   26  C   UNL     5     -10.864   7.315  72.134  1.00  0.00    -0.229 C  
HETATM   27  O   UNL     5     -11.424   6.790  73.359  1.00  0.00    -0.447 OA 
HETATM   28  H   UNL     5     -11.956   6.028  73.161  1.00  0.00     0.000 HD 
BRANCH  26  29
HETATM   29  C   UNL     5     -11.973   7.463  71.055  1.00  0.00    -0.306 C  
HETATM   30  O   UNL     5     -11.580   8.294  69.964  1.00  0.00    -0.465 OA 
HETATM   31  H   UNL     5     -12.258   8.385  69.305  1.00  0.00     0.000 HD 
BRANCH  29  32
HETATM   32  C   UNL     5     -13.397   7.797  71.529  1.00  0.00    -0.320 C  
HETATM   33  C   UNL     5     -13.578   9.169  72.212  1.00  0.00    -0.489 C  
HETATM   34  O   UNL     5     -13.915   6.726  72.397  1.00  0.00    -0.483 OA 
HETATM   35  O   UNL     5     -12.864  10.125  71.786  1.00  0.00    -0.397 OA 
HETATM   36  O   UNL     5     -14.402   9.145  73.195  1.00  0.00    -0.322 OA 
HETATM   37  H   UNL     5     -14.794   6.932  72.690  1.00  0.00     0.000 HD 
ENDBRANCH  29  32
ENDBRANCH  26  29
ENDBRANCH  23  26
ENDBRANCH   7  23
TORSDOF 8
ENDMDL
MODEL      400
REMARK 921   NORMALIZED FREE ENERGY PREDICTED BY IDOCK:   -3.75 KCAL/MOL
REMARK 922        TOTAL FREE ENERGY PREDICTED BY IDOCK:   -7.75 KCAL/MOL
REMARK 923 INTER-LIGAND FREE ENERGY PREDICTED BY IDOCK:   -6.00 KCAL/MOL
REMARK 924 INTRA-LIGAND FREE ENERGY PREDICTED BY IDOCK:   -1.76 KCAL/MOL
REMARK 927      BINDING AFFINITY PREDICTED BY RF-SCORE:    0.00 PKD
ROOT
HETATM    1 MG   UNL     3      -8.013   7.998  69.245  1.00  0.00    -0.095 Mg 
HETATM    2  O   UNL     4     -12.893   8.512  73.044  1.00  0.00    -0.701 OA 
HETATM    3  C   UNL     4     -11.808   7.733  72.579  1.00  0.00    -0.302 C  
HETATM    4  H   UNL     4     -12.734   8.899  73.897  1.00  0.00     0.000 HD 
HETATM    5  O   UNL     5      -6.698   4.028  62.786  1.00  0.00    -0.029 OA 
HETATM    6  H   UNL     5      -6.954   4.519  62.014  1.00  0.00     0.000 HD 
HETATM    7  C   UNL     5      -7.728   4.019  63.774  1.00  0.00    -0.082 C  
ENDROOT
BRANCH   3   8
HETATM    8  C   UNL     4     -12.066   7.108  71.201  1.00  0.00    -0.358 C  
HETATM    9  O   UNL     4     -13.406   7.417  70.773  1.00  0.00    -0.600 OA 
HETATM   10  H   UNL     4     -13.566   7.029  69.920  1.00  0.00     0.000 HD 
BRANCH   8  11
HETATM   11  C   UNL     4     -11.128   7.485  70.018  1.00  0.00    -0.204 C  
HETATM   12  O   UNL     4     -11.500   6.874  68.787  1.00  0.00    -0.529 OA 
HETATM   13  H   UNL     4     -10.927   7.105  68.065  1.00  0.00     0.000 HD 
BRANCH  11  14
HETATM   14  C   UNL     4     -10.770   8.983  69.821  1.00  0.00    -0.225 C  
HETATM   15  H   UNL     4      -9.441  10.189  70.595  1.00  0.00     0.000 HD 
HETATM   16  O   UNL     4      -9.660   9.272  70.715  1.00  0.00    -0.245 OA 
BRANCH  14  17
HETATM   17  C   UNL     4     -11.873  10.072  69.949  1.00  0.00    -0.074 C  
HETATM   18  C   UNL     4     -11.844  11.113  68.754  1.00  0.00    -0.320 C  
HETATM   19  H   UNL     4     -12.575  11.328  71.336  1.00  0.00     0.000 HD 
HETATM   20  O   UNL     4     -11.901  10.663  71.257  1.00  0.00    -0.302 OA 
HETATM   21  O   UNL     4     -11.563  10.579  67.600  1.00  0.00    -0.447 OA 
HETATM   22  O   UNL     4     -11.996  12.340  69.010  1.00  0.00    -0.300 OA 
ENDBRANCH  14  17
ENDBRANCH  11  14
ENDBRANCH   8  11
ENDBRANCH   3   8
BRANCH   7  23
HETATM   23  C   UNL     5      -7.311   3.222  65.026  1.00  0.00    -0.071 C  
HETATM   24  O   UNL     5      -5.896   3.336  65.180  1.00  0.00    -0.017 OA 
HETATM   25  H   UNL     5      -5.639   2.845  65.952  1.00  0.00     0.000 HD 
BRANCH  23  26
HETATM   26  C   UNL     5      -8.051   3.715  66.289  1.00  0.00    -0.096 C  
HETATM   27  O   UNL     5      -9.300   4.332  65.903  1.00  0.00    -0.141 OA 
HETATM   28  H   UNL     5      -9.754   4.635  66.680  1.00  0.00     0.000 HD 
BRANCH  26  29
HETATM   29  C   UNL     5      -8.287   2.696  67.439  1.00  0.00    -0.086 C  
HETATM   30  O   UNL     5      -9.544   2.028  67.339  1.00  0.00    -0.400 OA 
HETATM   31  H   UNL     5      -9.688   1.404  68.042  1.00  0.00     0.000 HD 
BRANCH  29  32
HETATM   32  C   UNL     5      -8.010   3.159  68.878  1.00  0.00    -0.056 C  
HETATM   33  C   UNL     5      -8.875   4.331  69.389  1.00  0.00    -0.092 C  
HETATM   34  O   UNL     5      -6.582   3.468  69.054  1.00  0.00    -0.036 OA 
HETATM   35  O   UNL     5     -10.070   4.390  68.975  1.00  0.00    -0.104 OA 
HETATM   36  O   UNL     5      -8.231   5.153  70.134  1.00  0.00    -0.084 OA 
HETATM   37  H   UNL     5      -6.411   3.754  69.943  1.00  0.00     0.000 HD 
ENDBRANCH  29  32
ENDBRANCH  26  29
ENDBRANCH  23  26
ENDBRANCH   7  23
TORSDOF 8
ENDMDL
MODEL      401
REMARK 921   NORMALIZED FREE ENERGY PREDICTED BY IDOCK:   -3.74 KCAL/MOL
REMARK 922        TOTAL FREE ENERGY PREDICTED BY IDOCK:   -7.73 KCAL/MOL
REMARK 923 INTER-LIGAND FREE ENERGY PREDICTED BY IDOCK:   -4.75 KCAL/MOL
REMARK 924 INTRA-LIGAND FREE ENERGY PREDICTED BY IDOCK:   -2.98 KCAL/MOL
REMARK 927      BINDING AFFINITY PREDICTED BY RF-SCORE:    0.00 PKD
ROOT
HETATM    1 MG   UNL     3      -5.827   8.093  67.183  1.00  0.00    -0.033 Mg 
HETATM    2  O   UNL     4      -6.214   2.132  68.868  1.00  0.00    -0.024 OA 
HETATM    3  C   UNL     4      -6.439   3.120  67.881  1.00  0.00    -0.037 C  
HETATM    4  H   UNL     4      -5.461   1.583  68.679  1.00  0.00     0.000 HD 
HETATM    5  O   UNL     5     -10.992  13.741  66.395  1.00  0.00    -0.295 OA 
HETATM    6  H   UNL     5     -11.116  14.218  67.207  1.00  0.00     0.000 HD 
HETATM    7  C   UNL     5     -11.074  12.330  66.593  1.00  0.00    -0.297 C  
ENDROOT
BRANCH   3   8
HETATM    8  C   UNL     4      -7.655   4.006  68.188  1.00  0.00    -0.067 C  
HETATM    9  O   UNL     4      -8.716   3.200  68.734  1.00  0.00    -0.082 OA 
HETATM   10  H   UNL     4      -9.468   3.749  68.923  1.00  0.00     0.000 HD 
BRANCH   8  11
HETATM   11  C   UNL     4      -7.478   5.215  69.152  1.00  0.00    -0.065 C  
HETATM   12  O   UNL     4      -6.382   6.056  68.806  1.00  0.00    -0.037 OA 
HETATM   13  H   UNL     4      -6.275   6.793  69.395  1.00  0.00     0.000 HD 
BRANCH  11  14
HETATM   14  C   UNL     4      -8.737   6.047  69.516  1.00  0.00    -0.125 C  
HETATM   15  H   UNL     4     -10.222   5.812  70.764  1.00  0.00     0.000 HD 
HETATM   16  O   UNL     4      -9.452   5.303  70.541  1.00  0.00    -0.153 OA 
BRANCH  14  17
HETATM   17  C   UNL     4      -9.714   6.514  68.399  1.00  0.00    -0.132 C  
HETATM   18  C   UNL     4      -9.388   7.974  67.875  1.00  0.00    -0.138 C  
HETATM   19  H   UNL     4     -11.685   6.584  68.074  1.00  0.00     0.000 HD 
HETATM   20  O   UNL     4     -11.088   6.299  68.757  1.00  0.00    -0.337 OA 
HETATM   21  O   UNL     4      -8.114   8.231  67.799  1.00  0.00    -0.123 OA 
HETATM   22  O   UNL     4     -10.341   8.775  67.668  1.00  0.00    -0.226 OA 
ENDBRANCH  14  17
ENDBRANCH  11  14
ENDBRANCH   8  11
ENDBRANCH   3   8
BRANCH   7  23
HETATM   23  C   UNL     5     -10.873  11.556  65.274  1.00  0.00    -0.259 C  
HETATM   24  O   UNL     5     -11.333  12.376  64.198  1.00  0.00    -0.327 OA 
HETATM   25  H   UNL     5     -11.209  11.899  63.387  1.00  0.00     0.000 HD 
BRANCH  23  26
HETATM   26  C   UNL     5      -9.398  11.147  65.071  1.00  0.00    -0.207 C  
HETATM   27  O   UNL     5      -8.805  10.839  66.354  1.00  0.00    -0.155 OA 
HETATM   28  H   UNL     5      -7.897  10.588  66.229  1.00  0.00     0.000 HD 
BRANCH  26  29
HETATM   29  C   UNL     5      -9.090  10.016  64.051  1.00  0.00    -0.257 C  
HETATM   30  O   UNL     5      -9.160   8.713  64.628  1.00  0.00    -0.417 OA 
HETATM   31  H   UNL     5      -8.972   8.021  64.004  1.00  0.00     0.000 HD 
BRANCH  29  32
HETATM   32  C   UNL     5      -7.845  10.169  63.162  1.00  0.00    -0.150 C  
HETATM   33  C   UNL     5      -6.485  10.131  63.891  1.00  0.00    -0.120 C  
HETATM   34  O   UNL     5      -7.946  11.386  62.340  1.00  0.00    -0.512 OA 
HETATM   35  O   UNL     5      -6.393   9.374  64.903  1.00  0.00    -0.072 OA 
HETATM   36  O   UNL     5      -5.622  10.947  63.405  1.00  0.00    -0.103 OA 
HETATM   37  H   UNL     5      -7.177  11.481  61.791  1.00  0.00     0.000 HD 
ENDBRANCH  29  32
ENDBRANCH  26  29
ENDBRANCH  23  26
ENDBRANCH   7  23
TORSDOF 8
ENDMDL
MODEL      402
REMARK 921   NORMALIZED FREE ENERGY PREDICTED BY IDOCK:   -3.70 KCAL/MOL
REMARK 922        TOTAL FREE ENERGY PREDICTED BY IDOCK:   -7.68 KCAL/MOL
REMARK 923 INTER-LIGAND FREE ENERGY PREDICTED BY IDOCK:   -7.17 KCAL/MOL
REMARK 924 INTRA-LIGAND FREE ENERGY PREDICTED BY IDOCK:   -0.51 KCAL/MOL
REMARK 927      BINDING AFFINITY PREDICTED BY RF-SCORE:    0.00 PKD
ROOT
HETATM    1 MG   UNL     3      -5.664  11.349  69.114  1.00  0.00    -0.044 Mg 
HETATM    2  O   UNL     4      -7.090  17.359  68.514  1.00  0.00    -0.200 OA 
HETATM    3  C   UNL     4      -7.306  16.132  69.185  1.00  0.00    -0.215 C  
HETATM    4  H   UNL     4      -6.576  17.974  69.024  1.00  0.00     0.000 HD 
HETATM    5  O   UNL     5      -9.262   4.816  67.219  1.00  0.00    -0.119 OA 
HETATM    6  H   UNL     5      -9.047   4.541  66.335  1.00  0.00     0.000 HD 
HETATM    7  C   UNL     5      -9.643   6.190  67.268  1.00  0.00    -0.115 C  
ENDROOT
BRANCH   3   8
HETATM    8  C   UNL     4      -8.138  15.138  68.361  1.00  0.00    -0.139 C  
HETATM    9  O   UNL     4      -7.615  13.808  68.537  1.00  0.00    -0.124 OA 
HETATM   10  H   UNL     4      -8.129  13.193  68.026  1.00  0.00     0.000 HD 
BRANCH   8  11
HETATM   11  C   UNL     4      -9.670  15.047  68.619  1.00  0.00    -0.219 C  
HETATM   12  O   UNL     4     -10.024  15.243  69.984  1.00  0.00    -0.446 OA 
HETATM   13  H   UNL     4     -10.959  15.188  70.141  1.00  0.00     0.000 HD 
BRANCH  11  14
HETATM   14  C   UNL     4     -10.616  15.832  67.670  1.00  0.00    -0.301 C  
HETATM   15  H   UNL     4     -12.025  15.329  66.414  1.00  0.00     0.000 HD 
HETATM   16  O   UNL     4     -11.447  14.849  66.995  1.00  0.00    -0.353 OA 
BRANCH  14  17
HETATM   17  C   UNL     4     -10.029  16.847  66.648  1.00  0.00    -0.296 C  
HETATM   18  C   UNL     4     -10.146  18.348  67.142  1.00  0.00    -0.353 C  
HETATM   19  H   UNL     4     -10.156  17.235  64.691  1.00  0.00     0.000 HD 
HETATM   20  O   UNL     4     -10.515  16.616  65.316  1.00  0.00    -0.612 OA 
HETATM   21  O   UNL     4      -9.945  18.496  68.420  1.00  0.00    -0.343 OA 
HETATM   22  O   UNL     4     -10.500  19.236  66.319  1.00  0.00    -0.426 OA 
ENDBRANCH  14  17
ENDBRANCH  11  14
ENDBRANCH   8  11
ENDBRANCH   3   8
BRANCH   7  23
HETATM   23  C   UNL     5      -9.991   6.636  68.703  1.00  0.00    -0.147 C  
HETATM   24  O   UNL     5      -9.294   5.788  69.617  1.00  0.00    -0.135 OA 
HETATM   25  H   UNL     5      -9.509   6.063  70.501  1.00  0.00     0.000 HD 
BRANCH  23  26
HETATM   26  C   UNL     5      -9.639   8.121  68.941  1.00  0.00    -0.153 C  
HETATM   27  O   UNL     5      -8.275   8.362  68.527  1.00  0.00    -0.121 OA 
HETATM   28  H   UNL     5      -8.058   9.275  68.674  1.00  0.00     0.000 HD 
BRANCH  26  29
HETATM   29  C   UNL     5     -10.583   9.198  68.339  1.00  0.00    -0.172 C  
HETATM   30  O   UNL     5     -10.137   9.682  67.072  1.00  0.00    -0.188 OA 
HETATM   31  H   UNL     5     -10.714  10.341  66.703  1.00  0.00     0.000 HD 
BRANCH  29  32
HETATM   32  C   UNL     5     -11.033  10.351  69.251  1.00  0.00    -0.242 C  
HETATM   33  C   UNL     5     -11.333   9.975  70.717  1.00  0.00    -0.360 C  
HETATM   34  O   UNL     5     -12.185  11.053  68.662  1.00  0.00    -0.734 OA 
HETATM   35  O   UNL     5     -10.625   9.061  71.236  1.00  0.00    -0.254 OA 
HETATM   36  O   UNL     5     -12.333  10.607  71.212  1.00  0.00    -0.360 OA 
HETATM   37  H   UNL     5     -12.463  11.765  69.225  1.00  0.00     0.000 HD 
ENDBRANCH  29  32
ENDBRANCH  26  29
ENDBRANCH  23  26
ENDBRANCH   7  23
TORSDOF 8
ENDMDL
MODEL      403
REMARK 921   NORMALIZED FREE ENERGY PREDICTED BY IDOCK:   -3.70 KCAL/MOL
REMARK 922        TOTAL FREE ENERGY PREDICTED BY IDOCK:   -7.67 KCAL/MOL
REMARK 923 INTER-LIGAND FREE ENERGY PREDICTED BY IDOCK:   -6.02 KCAL/MOL
REMARK 924 INTRA-LIGAND FREE ENERGY PREDICTED BY IDOCK:   -1.65 KCAL/MOL
REMARK 927      BINDING AFFINITY PREDICTED BY RF-SCORE:    0.00 PKD
ROOT
HETATM    1 MG   UNL     3      -9.184  12.686  63.615  1.00  0.00    -0.521 Mg 
HETATM    2  O   UNL     4      -9.474  18.405  66.008  1.00  0.00    -0.498 OA 
HETATM    3  C   UNL     4      -8.842  17.140  65.989  1.00  0.00    -0.107 C  
HETATM    4  H   UNL     4      -8.967  19.079  65.570  1.00  0.00     0.000 HD 
HETATM    5  O   UNL     5     -11.151   5.722  66.230  1.00  0.00    -0.733 OA 
HETATM    6  H   UNL     5     -12.054   5.513  66.024  1.00  0.00     0.000 HD 
HETATM    7  C   UNL     5     -11.029   7.015  66.821  1.00  0.00    -0.053 C  
ENDROOT
BRANCH   3   8
HETATM    8  C   UNL     4      -9.661  16.051  66.697  1.00  0.00    -0.244 C  
HETATM    9  O   UNL     4      -8.856  14.868  66.861  1.00  0.00    -0.229 OA 
HETATM   10  H   UNL     4      -9.363  14.194  67.298  1.00  0.00     0.000 HD 
BRANCH   8  11
HETATM   11  C   UNL     4     -10.276  16.362  68.093  1.00  0.00    -0.262 C  
HETATM   12  O   UNL     4     -11.477  17.124  68.022  1.00  0.00     0.037 OA 
HETATM   13  H   UNL     4     -11.851  17.313  68.874  1.00  0.00     0.000 HD 
BRANCH  11  14
HETATM   14  C   UNL     4     -10.404  15.196  69.110  1.00  0.00    -0.249 C  
HETATM   15  H   UNL     4      -9.140  14.192  70.211  1.00  0.00     0.000 HD 
HETATM   16  O   UNL     4      -9.062  14.906  69.589  1.00  0.00    -0.054 OA 
BRANCH  14  17
HETATM   17  C   UNL     4     -11.135  13.884  68.704  1.00  0.00    -0.265 C  
HETATM   18  C   UNL     4     -12.123  13.364  69.828  1.00  0.00    -0.310 C  
HETATM   19  H   UNL     4     -10.673  12.091  67.952  1.00  0.00     0.000 HD 
HETATM   20  O   UNL     4     -10.227  12.892  68.200  1.00  0.00    -0.226 OA 
HETATM   21  O   UNL     4     -12.757  14.317  70.450  1.00  0.00    -0.347 OA 
HETATM   22  O   UNL     4     -12.155  12.130  70.090  1.00  0.00    -0.324 OA 
ENDBRANCH  14  17
ENDBRANCH  11  14
ENDBRANCH   8  11
ENDBRANCH   3   8
BRANCH   7  23
HETATM   23  C   UNL     5      -9.562   7.355  67.155  1.00  0.00    -0.159 C  
HETATM   24  O   UNL     5      -9.308   8.699  66.742  1.00  0.00    -0.156 OA 
HETATM   25  H   UNL     5      -8.405   8.908  66.947  1.00  0.00     0.000 HD 
BRANCH  23  26
HETATM   26  C   UNL     5      -9.261   7.169  68.658  1.00  0.00    -0.135 C  
HETATM   27  O   UNL     5      -9.538   5.801  69.036  1.00  0.00    -0.127 OA 
HETATM   28  H   UNL     5      -9.353   5.686  69.961  1.00  0.00     0.000 HD 
BRANCH  26  29
HETATM   29  C   UNL     5      -7.861   7.598  69.178  1.00  0.00    -0.118 C  
HETATM   30  O   UNL     5      -6.958   6.500  69.314  1.00  0.00    -0.066 OA 
HETATM   31  H   UNL     5      -6.102   6.762  69.632  1.00  0.00     0.000 HD 
BRANCH  29  32
HETATM   32  C   UNL     5      -7.802   8.526  70.402  1.00  0.00    -0.089 C  
HETATM   33  C   UNL     5      -8.372   7.952  71.715  1.00  0.00    -0.118 C  
HETATM   34  O   UNL     5      -8.435   9.820  70.097  1.00  0.00    -0.189 OA 
HETATM   35  O   UNL     5      -8.221   6.710  71.916  1.00  0.00    -0.104 OA 
HETATM   36  O   UNL     5      -9.002   8.818  72.421  1.00  0.00    -0.379 OA 
HETATM   37  H   UNL     5      -8.399  10.393  70.852  1.00  0.00     0.000 HD 
ENDBRANCH  29  32
ENDBRANCH  26  29
ENDBRANCH  23  26
ENDBRANCH   7  23
TORSDOF 8
ENDMDL
MODEL      404
REMARK 921   NORMALIZED FREE ENERGY PREDICTED BY IDOCK:   -3.70 KCAL/MOL
REMARK 922        TOTAL FREE ENERGY PREDICTED BY IDOCK:   -7.67 KCAL/MOL
REMARK 923 INTER-LIGAND FREE ENERGY PREDICTED BY IDOCK:   -5.79 KCAL/MOL
REMARK 924 INTRA-LIGAND FREE ENERGY PREDICTED BY IDOCK:   -1.88 KCAL/MOL
REMARK 927      BINDING AFFINITY PREDICTED BY RF-SCORE:    0.00 PKD
ROOT
HETATM    1 MG   UNL     3     -11.750   9.731  70.742  1.00  0.00    -0.228 Mg 
HETATM    2  O   UNL     4     -11.942  15.374  68.165  1.00  0.00    -0.471 OA 
HETATM    3  C   UNL     4     -12.166  13.983  68.034  1.00  0.00    -0.153 C  
HETATM    4  H   UNL     4     -12.744  15.870  68.278  1.00  0.00     0.000 HD 
HETATM    5  O   UNL     5      -7.106   3.655  69.896  1.00  0.00    -0.041 OA 
HETATM    6  H   UNL     5      -6.363   3.697  70.486  1.00  0.00     0.000 HD 
HETATM    7  C   UNL     5      -7.289   4.881  69.188  1.00  0.00    -0.053 C  
ENDROOT
BRANCH   3   8
HETATM    8  C   UNL     4     -10.868  13.183  67.851  1.00  0.00    -0.242 C  
HETATM    9  O   UNL     4     -10.101  13.220  69.069  1.00  0.00    -0.425 OA 
HETATM   10  H   UNL     4      -9.298  12.724  68.956  1.00  0.00     0.000 HD 
BRANCH   8  11
HETATM   11  C   UNL     4     -10.963  11.686  67.434  1.00  0.00    -0.261 C  
HETATM   12  O   UNL     4     -11.722  11.479  66.248  1.00  0.00    -0.384 OA 
HETATM   13  H   UNL     4     -11.780  10.565  65.994  1.00  0.00     0.000 HD 
BRANCH  11  14
HETATM   14  C   UNL     4      -9.655  10.849  67.423  1.00  0.00    -0.163 C  
HETATM   15  H   UNL     4      -8.815   9.635  66.143  1.00  0.00     0.000 HD 
HETATM   16  O   UNL     4      -9.615  10.148  66.150  1.00  0.00    -0.180 OA 
BRANCH  14  17
HETATM   17  C   UNL     4      -9.343   9.874  68.595  1.00  0.00    -0.149 C  
HETATM   18  C   UNL     4      -7.903  10.106  69.215  1.00  0.00    -0.134 C  
HETATM   19  H   UNL     4      -9.445   7.913  68.971  1.00  0.00     0.000 HD 
HETATM   20  O   UNL     4      -9.635   8.509  68.255  1.00  0.00    -0.141 OA 
HETATM   21  O   UNL     4      -7.557  11.360  69.279  1.00  0.00    -0.082 OA 
HETATM   22  O   UNL     4      -7.193   9.104  69.502  1.00  0.00    -0.057 OA 
ENDBRANCH  14  17
ENDBRANCH  11  14
ENDBRANCH   8  11
ENDBRANCH   3   8
BRANCH   7  23
HETATM   23  C   UNL     5      -8.495   4.812  68.230  1.00  0.00    -0.098 C  
HETATM   24  O   UNL     5      -9.623   5.393  68.887  1.00  0.00    -0.126 OA 
HETATM   25  H   UNL     5     -10.366   5.351  68.297  1.00  0.00     0.000 HD 
BRANCH  23  26
HETATM   26  C   UNL     5      -8.203   5.526  66.892  1.00  0.00    -0.105 C  
HETATM   27  O   UNL     5      -7.010   4.964  66.300  1.00  0.00    -0.063 OA 
HETATM   28  H   UNL     5      -6.830   5.403  65.477  1.00  0.00     0.000 HD 
BRANCH  26  29
HETATM   29  C   UNL     5      -9.344   5.596  65.840  1.00  0.00    -0.103 C  
HETATM   30  O   UNL     5     -10.258   6.665  66.081  1.00  0.00    -0.422 OA 
HETATM   31  H   UNL     5     -10.956   6.708  65.438  1.00  0.00     0.000 HD 
BRANCH  29  32
HETATM   32  C   UNL     5     -10.085   4.293  65.495  1.00  0.00    -0.223 C  
HETATM   33  C   UNL     5      -9.408   3.387  64.446  1.00  0.00    -0.140 C  
HETATM   34  O   UNL     5     -11.473   4.581  65.098  1.00  0.00    -1.105 OA 
HETATM   35  O   UNL     5      -8.142   3.360  64.437  1.00  0.00    -0.085 OA 
HETATM   36  O   UNL     5     -10.238   2.817  63.651  1.00  0.00    -0.152 OA 
HETATM   37  H   UNL     5     -11.931   3.777  64.885  1.00  0.00     0.000 HD 
ENDBRANCH  29  32
ENDBRANCH  26  29
ENDBRANCH  23  26
ENDBRANCH   7  23
TORSDOF 8
ENDMDL
MODEL      405
REMARK 921   NORMALIZED FREE ENERGY PREDICTED BY IDOCK:   -3.68 KCAL/MOL
REMARK 922        TOTAL FREE ENERGY PREDICTED BY IDOCK:   -7.64 KCAL/MOL
REMARK 923 INTER-LIGAND FREE ENERGY PREDICTED BY IDOCK:   -7.16 KCAL/MOL
REMARK 924 INTRA-LIGAND FREE ENERGY PREDICTED BY IDOCK:   -0.48 KCAL/MOL
REMARK 927      BINDING AFFINITY PREDICTED BY RF-SCORE:    0.00 PKD
ROOT
HETATM    1 MG   UNL     3     -10.566  14.272  71.263  1.00  0.00    -0.442 Mg 
HETATM    2  O   UNL     4     -10.952  19.108  67.391  1.00  0.00    -0.475 OA 
HETATM    3  C   UNL     4     -11.381  17.804  67.734  1.00  0.00     0.512 C  
HETATM    4  H   UNL     4     -11.594  19.776  67.603  1.00  0.00     0.000 HD 
HETATM    5  O   UNL     5      -7.324   7.311  70.768  1.00  0.00    -0.069 OA 
HETATM    6  H   UNL     5      -6.421   7.324  71.062  1.00  0.00     0.000 HD 
HETATM    7  C   UNL     5      -7.592   8.359  69.837  1.00  0.00    -0.076 C  
ENDROOT
BRANCH   3   8
HETATM    8  C   UNL     4     -10.344  16.724  67.391  1.00  0.00    -0.302 C  
HETATM    9  O   UNL     4      -9.060  17.100  67.924  1.00  0.00    -0.224 OA 
HETATM   10  H   UNL     4      -8.418  16.432  67.712  1.00  0.00     0.000 HD 
BRANCH   8  11
HETATM   11  C   UNL     4     -10.603  15.261  67.856  1.00  0.00    -0.260 C  
HETATM   12  O   UNL     4     -11.925  15.049  68.337  1.00  0.00    -0.490 OA 
HETATM   13  H   UNL     4     -12.083  14.156  68.620  1.00  0.00     0.000 HD 
BRANCH  11  14
HETATM   14  C   UNL     4     -10.150  14.108  66.919  1.00  0.00    -0.258 C  
HETATM   15  H   UNL     4      -8.862  13.955  65.457  1.00  0.00     0.000 HD 
HETATM   16  O   UNL     4      -9.139  14.660  66.030  1.00  0.00    -0.182 OA 
BRANCH  14  17
HETATM   17  C   UNL     4     -11.205  13.299  66.112  1.00  0.00    -0.296 C  
HETATM   18  C   UNL     4     -12.024  14.203  65.100  1.00  0.00    -0.388 C  
HETATM   19  H   UNL     4     -12.656  11.972  66.466  1.00  0.00     0.000 HD 
HETATM   20  O   UNL     4     -12.012  12.467  66.959  1.00  0.00    -0.541 OA 
HETATM   21  O   UNL     4     -11.307  15.127  64.525  1.00  0.00    -0.357 OA 
HETATM   22  O   UNL     4     -13.270  14.031  64.998  1.00  0.00    -0.720 OA 
ENDBRANCH  14  17
ENDBRANCH  11  14
ENDBRANCH   8  11
ENDBRANCH   3   8
BRANCH   7  23
HETATM   23  C   UNL     5      -9.058   8.339  69.360  1.00  0.00    -0.154 C  
HETATM   24  O   UNL     5      -9.437   6.980  69.134  1.00  0.00    -0.144 OA 
HETATM   25  H   UNL     5     -10.340   6.967  68.840  1.00  0.00     0.000 HD 
BRANCH  23  26
HETATM   26  C   UNL     5     -10.000   9.018  70.378  1.00  0.00    -0.203 C  
HETATM   27  O   UNL     5     -11.299   9.212  69.774  1.00  0.00    -0.422 OA 
HETATM   28  H   UNL     5     -11.878   9.630  70.401  1.00  0.00     0.000 HD 
BRANCH  26  29
HETATM   29  C   UNL     5     -10.151   8.362  71.779  1.00  0.00    -0.247 C  
HETATM   30  O   UNL     5      -9.133   8.766  72.694  1.00  0.00    -0.354 OA 
HETATM   31  H   UNL     5      -9.225   8.365  73.551  1.00  0.00     0.000 HD 
BRANCH  29  32
HETATM   32  C   UNL     5     -10.389   6.844  71.840  1.00  0.00    -0.189 C  
HETATM   33  C   UNL     5     -11.761   6.396  72.384  1.00  0.00    -0.245 C  
HETATM   34  O   UNL     5      -9.306   6.184  72.589  1.00  0.00    -0.147 OA 
HETATM   35  O   UNL     5     -12.757   7.133  72.118  1.00  0.00    -0.218 OA 
HETATM   36  O   UNL     5     -11.703   5.342  73.112  1.00  0.00    -0.268 OA 
HETATM   37  H   UNL     5      -9.453   5.247  72.627  1.00  0.00     0.000 HD 
ENDBRANCH  29  32
ENDBRANCH  26  29
ENDBRANCH  23  26
ENDBRANCH   7  23
TORSDOF 8
ENDMDL
MODEL      406
REMARK 921   NORMALIZED FREE ENERGY PREDICTED BY IDOCK:   -3.67 KCAL/MOL
REMARK 922        TOTAL FREE ENERGY PREDICTED BY IDOCK:   -7.62 KCAL/MOL
REMARK 923 INTER-LIGAND FREE ENERGY PREDICTED BY IDOCK:   -6.74 KCAL/MOL
REMARK 924 INTRA-LIGAND FREE ENERGY PREDICTED BY IDOCK:   -0.88 KCAL/MOL
REMARK 927      BINDING AFFINITY PREDICTED BY RF-SCORE:    0.00 PKD
ROOT
HETATM    1 MG   UNL     3      -5.303   7.887  67.104  1.00  0.00    -0.023 Mg 
HETATM    2  O   UNL     4      -7.208   3.285  70.806  1.00  0.00    -0.033 OA 
HETATM    3  C   UNL     4      -7.522   4.224  69.795  1.00  0.00    -0.050 C  
HETATM    4  H   UNL     4      -7.113   2.400  70.473  1.00  0.00     0.000 HD 
HETATM    5  O   UNL     5      -6.417  15.501  67.082  1.00  0.00    -0.302 OA 
HETATM    6  H   UNL     5      -5.759  15.953  67.597  1.00  0.00     0.000 HD 
HETATM    7  C   UNL     5      -6.990  14.408  67.798  1.00  0.00    -0.176 C  
ENDROOT
BRANCH   3   8
HETATM    8  C   UNL     4      -7.675   5.654  70.334  1.00  0.00    -0.094 C  
HETATM    9  O   UNL     4      -7.486   6.598  69.262  1.00  0.00    -0.090 OA 
HETATM   10  H   UNL     4      -7.581   7.483  69.596  1.00  0.00     0.000 HD 
BRANCH   8  11
HETATM   11  C   UNL     4      -9.003   6.051  71.042  1.00  0.00    -0.143 C  
HETATM   12  O   UNL     4      -8.898   6.075  72.462  1.00  0.00    -0.132 OA 
HETATM   13  H   UNL     4      -9.709   6.317  72.894  1.00  0.00     0.000 HD 
BRANCH  11  14
HETATM   14  C   UNL     4      -9.771   7.291  70.510  1.00  0.00    -0.176 C  
HETATM   15  H   UNL     4      -9.851   9.176  71.016  1.00  0.00     0.000 HD 
HETATM   16  O   UNL     4      -9.381   8.417  71.342  1.00  0.00    -0.157 OA 
BRANCH  14  17
HETATM   17  C   UNL     4     -11.317   7.240  70.347  1.00  0.00    -0.271 C  
HETATM   18  C   UNL     4     -12.074   7.160  71.737  1.00  0.00    -0.328 C  
HETATM   19  H   UNL     4     -12.673   6.226  69.285  1.00  0.00     0.000 HD 
HETATM   20  O   UNL     4     -11.728   6.257  69.384  1.00  0.00    -0.319 OA 
HETATM   21  O   UNL     4     -11.524   7.877  72.675  1.00  0.00    -0.367 OA 
HETATM   22  O   UNL     4     -13.054   6.374  71.854  1.00  0.00    -0.153 OA 
ENDBRANCH  14  17
ENDBRANCH  11  14
ENDBRANCH   8  11
ENDBRANCH   3   8
BRANCH   7  23
HETATM   23  C   UNL     5      -8.059  13.674  66.962  1.00  0.00     0.017 C  
HETATM   24  O   UNL     5      -7.711  12.289  66.907  1.00  0.00    -0.318 OA 
HETATM   25  H   UNL     5      -8.369  11.838  66.392  1.00  0.00     0.000 HD 
BRANCH  23  26
HETATM   26  C   UNL     5      -9.475  13.870  67.547  1.00  0.00    -0.216 C  
HETATM   27  O   UNL     5      -9.627  15.239  67.986  1.00  0.00    -0.201 OA 
HETATM   28  H   UNL     5     -10.498  15.359  68.346  1.00  0.00     0.000 HD 
BRANCH  26  29
HETATM   29  C   UNL     5     -10.688  13.447  66.672  1.00  0.00    -0.282 C  
HETATM   30  O   UNL     5     -10.382  12.377  65.779  1.00  0.00    -0.252 OA 
HETATM   31  H   UNL     5     -11.124  12.118  65.244  1.00  0.00     0.000 HD 
BRANCH  29  32
HETATM   32  C   UNL     5     -11.486  14.555  65.966  1.00  0.00    -0.348 C  
HETATM   33  C   UNL     5     -12.406  14.097  64.815  1.00  0.00    -0.417 C  
HETATM   34  O   UNL     5     -10.584  15.622  65.501  1.00  0.00    -0.353 OA 
HETATM   35  O   UNL     5     -12.959  12.963  64.934  1.00  0.00    -0.754 OA 
HETATM   36  O   UNL     5     -12.439  14.918  63.830  1.00  0.00    -0.806 OA 
HETATM   37  H   UNL     5     -11.077  16.306  65.065  1.00  0.00     0.000 HD 
ENDBRANCH  29  32
ENDBRANCH  26  29
ENDBRANCH  23  26
ENDBRANCH   7  23
TORSDOF 8
ENDMDL
MODEL      407
REMARK 921   NORMALIZED FREE ENERGY PREDICTED BY IDOCK:   -3.66 KCAL/MOL
REMARK 922        TOTAL FREE ENERGY PREDICTED BY IDOCK:   -7.61 KCAL/MOL
REMARK 923 INTER-LIGAND FREE ENERGY PREDICTED BY IDOCK:   -7.08 KCAL/MOL
REMARK 924 INTRA-LIGAND FREE ENERGY PREDICTED BY IDOCK:   -0.53 KCAL/MOL
REMARK 927      BINDING AFFINITY PREDICTED BY RF-SCORE:    0.00 PKD
ROOT
HETATM    1 MG   UNL     3      -7.828  11.462  70.231  1.00  0.00    -0.326 Mg 
HETATM    2  O   UNL     4     -11.557  16.404  70.659  1.00  0.00    -0.519 OA 
HETATM    3  C   UNL     4     -11.176  15.137  71.161  1.00  0.00    -0.281 C  
HETATM    4  H   UNL     4     -11.254  17.124  71.202  1.00  0.00     0.000 HD 
HETATM    5  O   UNL     5      -8.829   4.245  67.755  1.00  0.00    -0.103 OA 
HETATM    6  H   UNL     5      -8.657   4.167  66.824  1.00  0.00     0.000 HD 
HETATM    7  C   UNL     5      -9.704   5.336  68.042  1.00  0.00    -0.141 C  
ENDROOT
BRANCH   3   8
HETATM    8  C   UNL     4     -11.666  13.975  70.284  1.00  0.00    -0.238 C  
HETATM    9  O   UNL     4     -12.879  13.430  70.836  1.00  0.00    -0.284 OA 
HETATM   10  H   UNL     4     -13.181  12.711  70.294  1.00  0.00     0.000 HD 
BRANCH   8  11
HETATM   11  C   UNL     4     -11.947  14.240  68.776  1.00  0.00    -0.311 C  
HETATM   12  O   UNL     4     -12.042  15.624  68.456  1.00  0.00    -0.533 OA 
HETATM   13  H   UNL     4     -12.213  15.785  67.536  1.00  0.00     0.000 HD 
BRANCH  11  14
HETATM   14  C   UNL     4     -11.092  13.474  67.730  1.00  0.00    -0.268 C  
HETATM   15  H   UNL     4      -9.431  12.448  67.803  1.00  0.00     0.000 HD 
HETATM   16  O   UNL     4      -9.954  12.917  68.443  1.00  0.00    -0.227 OA 
BRANCH  14  17
HETATM   17  C   UNL     4     -10.627  14.188  66.429  1.00  0.00    -0.280 C  
HETATM   18  C   UNL     4      -9.763  15.485  66.721  1.00  0.00    -0.239 C  
HETATM   19  H   UNL     4     -11.423  14.821  64.709  1.00  0.00     0.000 HD 
HETATM   20  O   UNL     4     -11.707  14.385  65.503  1.00  0.00    -0.341 OA 
HETATM   21  O   UNL     4      -8.960  15.361  67.739  1.00  0.00    -0.171 OA 
HETATM   22  O   UNL     4      -9.972  16.524  66.037  1.00  0.00    -0.313 OA 
ENDBRANCH  14  17
ENDBRANCH  11  14
ENDBRANCH   8  11
ENDBRANCH   3   8
BRANCH   7  23
HETATM   23  C   UNL     5      -9.984   5.462  69.553  1.00  0.00    -0.219 C  
HETATM   24  O   UNL     5      -9.652   4.220  70.176  1.00  0.00    -0.164 OA 
HETATM   25  H   UNL     5      -9.825   4.298  71.106  1.00  0.00     0.000 HD 
BRANCH  23  26
HETATM   26  C   UNL     5      -9.194   6.629  70.184  1.00  0.00    -0.155 C  
HETATM   27  O   UNL     5      -9.517   7.857  69.492  1.00  0.00    -0.160 OA 
HETATM   28  H   UNL     5      -9.031   8.575  69.880  1.00  0.00     0.000 HD 
BRANCH  26  29
HETATM   29  C   UNL     5      -9.303   6.834  71.721  1.00  0.00    -0.147 C  
HETATM   30  O   UNL     5      -9.404   5.605  72.440  1.00  0.00    -0.144 OA 
HETATM   31  H   UNL     5      -9.471   5.730  73.379  1.00  0.00     0.000 HD 
BRANCH  29  32
HETATM   32  C   UNL     5     -10.313   7.871  72.239  1.00  0.00    -0.253 C  
HETATM   33  C   UNL     5     -11.800   7.560  71.968  1.00  0.00    -0.294 C  
HETATM   34  O   UNL     5      -9.976   9.213  71.736  1.00  0.00    -0.320 OA 
HETATM   35  O   UNL     5     -12.149   6.342  71.990  1.00  0.00    -0.337 OA 
HETATM   36  O   UNL     5     -12.495   8.599  71.681  1.00  0.00    -0.308 OA 
HETATM   37  H   UNL     5     -10.600   9.853  72.056  1.00  0.00     0.000 HD 
ENDBRANCH  29  32
ENDBRANCH  26  29
ENDBRANCH  23  26
ENDBRANCH   7  23
TORSDOF 8
ENDMDL
MODEL      408
REMARK 921   NORMALIZED FREE ENERGY PREDICTED BY IDOCK:   -3.65 KCAL/MOL
REMARK 922        TOTAL FREE ENERGY PREDICTED BY IDOCK:   -7.60 KCAL/MOL
REMARK 923 INTER-LIGAND FREE ENERGY PREDICTED BY IDOCK:   -7.92 KCAL/MOL
REMARK 924 INTRA-LIGAND FREE ENERGY PREDICTED BY IDOCK:    0.32 KCAL/MOL
REMARK 927      BINDING AFFINITY PREDICTED BY RF-SCORE:    0.00 PKD
ROOT
HETATM    1 MG   UNL     3      -6.814  11.498  65.747  1.00  0.00    -0.293 Mg 
HETATM    2  O   UNL     4      -8.733  17.399  65.627  1.00  0.00    -0.449 OA 
HETATM    3  C   UNL     4      -8.480  16.231  66.385  1.00  0.00    -0.330 C  
HETATM    4  H   UNL     4      -8.068  18.068  65.745  1.00  0.00     0.000 HD 
HETATM    5  O   UNL     5     -10.432   4.745  66.469  1.00  0.00    -0.268 OA 
HETATM    6  H   UNL     5     -10.700   4.399  65.626  1.00  0.00     0.000 HD 
HETATM    7  C   UNL     5     -10.819   6.110  66.628  1.00  0.00    -0.207 C  
ENDROOT
BRANCH   3   8
HETATM    8  C   UNL     4      -9.554  15.151  66.194  1.00  0.00    -0.313 C  
HETATM    9  O   UNL     4      -9.789  14.475  67.444  1.00  0.00    -0.223 OA 
HETATM   10  H   UNL     4     -10.453  13.806  67.325  1.00  0.00     0.000 HD 
BRANCH   8  11
HETATM   11  C   UNL     4     -10.951  15.569  65.650  1.00  0.00    -0.303 C  
HETATM   12  O   UNL     4     -10.904  16.104  64.331  1.00  0.00    -0.898 OA 
HETATM   13  H   UNL     4     -11.757  16.359  63.999  1.00  0.00     0.000 HD 
BRANCH  11  14
HETATM   14  C   UNL     4     -12.127  14.568  65.814  1.00  0.00    -0.279 C  
HETATM   15  H   UNL     4     -12.806  13.480  67.287  1.00  0.00     0.000 HD 
HETATM   16  O   UNL     4     -12.086  14.092  67.187  1.00  0.00    -0.426 OA 
BRANCH  14  17
HETATM   17  C   UNL     4     -12.280  13.376  64.826  1.00  0.00    -0.409 C  
HETATM   18  C   UNL     4     -11.061  12.365  64.896  1.00  0.00    -0.303 C  
HETATM   19  H   UNL     4     -12.714  13.084  62.897  1.00  0.00     0.000 HD 
HETATM   20  O   UNL     4     -12.620  13.812  63.500  1.00  0.00    -0.814 OA 
HETATM   21  O   UNL     4     -10.603  12.180  66.101  1.00  0.00    -0.243 OA 
HETATM   22  O   UNL     4     -10.585  11.907  63.821  1.00  0.00    -0.338 OA 
ENDBRANCH  14  17
ENDBRANCH  11  14
ENDBRANCH   8  11
ENDBRANCH   3   8
BRANCH   7  23
HETATM   23  C   UNL     5     -10.384   6.671  67.997  1.00  0.00    -0.191 C  
HETATM   24  O   UNL     5      -9.159   6.040  68.372  1.00  0.00    -0.114 OA 
HETATM   25  H   UNL     5      -8.891   6.386  69.215  1.00  0.00     0.000 HD 
BRANCH  23  26
HETATM   26  C   UNL     5     -10.231   8.208  67.962  1.00  0.00    -0.212 C  
HETATM   27  O   UNL     5     -11.022   8.793  69.021  1.00  0.00    -0.426 OA 
HETATM   28  H   UNL     5     -10.927   9.738  68.999  1.00  0.00     0.000 HD 
BRANCH  26  29
HETATM   29  C   UNL     5      -8.792   8.795  67.977  1.00  0.00    -0.141 C  
HETATM   30  O   UNL     5      -8.773  10.221  67.920  1.00  0.00    -0.121 OA 
HETATM   31  H   UNL     5      -7.894  10.581  67.930  1.00  0.00     0.000 HD 
BRANCH  29  32
HETATM   32  C   UNL     5      -7.755   8.183  67.021  1.00  0.00    -0.096 C  
HETATM   33  C   UNL     5      -8.163   8.116  65.534  1.00  0.00    -0.144 C  
HETATM   34  O   UNL     5      -7.342   6.852  67.494  1.00  0.00    -0.091 OA 
HETATM   35  O   UNL     5      -8.884   9.058  65.090  1.00  0.00    -0.188 OA 
HETATM   36  O   UNL     5      -7.764   7.049  64.943  1.00  0.00    -0.099 OA 
HETATM   37  H   UNL     5      -6.701   6.474  66.904  1.00  0.00     0.000 HD 
ENDBRANCH  29  32
ENDBRANCH  26  29
ENDBRANCH  23  26
ENDBRANCH   7  23
TORSDOF 8
ENDMDL
MODEL      409
REMARK 921   NORMALIZED FREE ENERGY PREDICTED BY IDOCK:   -3.65 KCAL/MOL
REMARK 922        TOTAL FREE ENERGY PREDICTED BY IDOCK:   -7.60 KCAL/MOL
REMARK 923 INTER-LIGAND FREE ENERGY PREDICTED BY IDOCK:   -5.97 KCAL/MOL
REMARK 924 INTRA-LIGAND FREE ENERGY PREDICTED BY IDOCK:   -1.63 KCAL/MOL
REMARK 927      BINDING AFFINITY PREDICTED BY RF-SCORE:    0.00 PKD
ROOT
HETATM    1 MG   UNL     3      -9.504  13.061  63.729  1.00  0.00    -0.562 Mg 
HETATM    2  O   UNL     4      -9.258  18.724  66.256  1.00  0.00    -0.367 OA 
HETATM    3  C   UNL     4      -8.672  17.445  66.112  1.00  0.00    -0.147 C  
HETATM    4  H   UNL     4      -8.808  19.397  65.758  1.00  0.00     0.000 HD 
HETATM    5  O   UNL     5     -11.230   6.084  66.476  1.00  0.00    -0.741 OA 
HETATM    6  H   UNL     5     -12.160   5.902  66.410  1.00  0.00     0.000 HD 
HETATM    7  C   UNL     5     -10.982   7.359  67.067  1.00  0.00    -0.101 C  
ENDROOT
BRANCH   3   8
HETATM    8  C   UNL     4      -9.401  16.359  66.917  1.00  0.00    -0.227 C  
HETATM    9  O   UNL     4     -10.419  15.752  66.099  1.00  0.00    -0.294 OA 
HETATM   10  H   UNL     4     -10.871  15.080  66.598  1.00  0.00     0.000 HD 
BRANCH   8  11
HETATM   11  C   UNL     4      -8.570  15.192  67.526  1.00  0.00    -0.180 C  
HETATM   12  O   UNL     4      -7.645  15.618  68.520  1.00  0.00    -0.124 OA 
HETATM   13  H   UNL     4      -7.138  14.906  68.891  1.00  0.00     0.000 HD 
BRANCH  11  14
HETATM   14  C   UNL     4      -9.329  13.912  67.969  1.00  0.00    -0.204 C  
HETATM   15  H   UNL     4      -8.787  12.173  68.675  1.00  0.00     0.000 HD 
HETATM   16  O   UNL     4      -8.323  12.956  68.404  1.00  0.00    -0.157 OA 
BRANCH  14  17
HETATM   17  C   UNL     4     -10.347  13.235  67.007  1.00  0.00    -0.246 C  
HETATM   18  C   UNL     4     -11.499  12.469  67.780  1.00  0.00    -0.321 C  
HETATM   19  H   UNL     4     -10.318  12.051  65.397  1.00  0.00     0.000 HD 
HETATM   20  O   UNL     4      -9.696  12.464  65.985  1.00  0.00    -0.250 OA 
HETATM   21  O   UNL     4     -11.902  13.078  68.858  1.00  0.00    -0.302 OA 
HETATM   22  O   UNL     4     -11.861  11.333  67.365  1.00  0.00    -0.590 OA 
ENDBRANCH  14  17
ENDBRANCH  11  14
ENDBRANCH   8  11
ENDBRANCH   3   8
BRANCH   7  23
HETATM   23  C   UNL     5      -9.472   7.655  67.174  1.00  0.00    -0.155 C  
HETATM   24  O   UNL     5      -8.770   6.689  66.389  1.00  0.00    -0.130 OA 
HETATM   25  H   UNL     5      -7.840   6.872  66.455  1.00  0.00     0.000 HD 
BRANCH  23  26
HETATM   26  C   UNL     5      -9.138   9.092  66.719  1.00  0.00    -0.144 C  
HETATM   27  O   UNL     5      -8.770   9.886  67.870  1.00  0.00    -0.128 OA 
HETATM   28  H   UNL     5      -8.565  10.770  67.590  1.00  0.00     0.000 HD 
BRANCH  26  29
HETATM   29  C   UNL     5      -8.090   9.271  65.585  1.00  0.00    -0.112 C  
HETATM   30  O   UNL     5      -8.048   8.162  64.688  1.00  0.00    -0.145 OA 
HETATM   31  H   UNL     5      -7.408   8.271  63.994  1.00  0.00     0.000 HD 
BRANCH  29  32
HETATM   32  C   UNL     5      -6.676   9.727  65.978  1.00  0.00    -0.087 C  
HETATM   33  C   UNL     5      -5.900   8.787  66.925  1.00  0.00    -0.052 C  
HETATM   34  O   UNL     5      -6.711  11.090  66.534  1.00  0.00    -0.122 OA 
HETATM   35  O   UNL     5      -6.098   7.543  66.792  1.00  0.00    -0.041 OA 
HETATM   36  O   UNL     5      -5.189   9.409  67.792  1.00  0.00    -0.037 OA 
HETATM   37  H   UNL     5      -5.838  11.372  66.777  1.00  0.00     0.000 HD 
ENDBRANCH  29  32
ENDBRANCH  26  29
ENDBRANCH  23  26
ENDBRANCH   7  23
TORSDOF 8
ENDMDL
MODEL      410
REMARK 921   NORMALIZED FREE ENERGY PREDICTED BY IDOCK:   -3.65 KCAL/MOL
REMARK 922        TOTAL FREE ENERGY PREDICTED BY IDOCK:   -7.60 KCAL/MOL
REMARK 923 INTER-LIGAND FREE ENERGY PREDICTED BY IDOCK:   -5.61 KCAL/MOL
REMARK 924 INTRA-LIGAND FREE ENERGY PREDICTED BY IDOCK:   -1.99 KCAL/MOL
REMARK 927      BINDING AFFINITY PREDICTED BY RF-SCORE:    0.00 PKD
ROOT
HETATM    1 MG   UNL     3      -7.703   6.963  68.960  1.00  0.00    -0.087 Mg 
HETATM    2  O   UNL     4     -12.220   8.433  72.954  1.00  0.00    -0.548 OA 
HETATM    3  C   UNL     4     -11.352   7.447  72.430  1.00  0.00    -0.297 C  
HETATM    4  H   UNL     4     -11.951   8.748  73.809  1.00  0.00     0.000 HD 
HETATM    5  O   UNL     5      -7.519   3.007  62.363  1.00  0.00    -0.046 OA 
HETATM    6  H   UNL     5      -7.683   3.567  61.614  1.00  0.00     0.000 HD 
HETATM    7  C   UNL     5      -8.492   3.197  63.389  1.00  0.00    -0.086 C  
ENDROOT
BRANCH   3   8
HETATM    8  C   UNL     4     -11.788   6.939  71.048  1.00  0.00    -0.364 C  
HETATM    9  O   UNL     4     -13.164   7.293  70.814  1.00  0.00    -0.596 OA 
HETATM   10  H   UNL     4     -13.434   6.979  69.959  1.00  0.00     0.000 HD 
BRANCH   8  11
HETATM   11  C   UNL     4     -10.994   7.405  69.793  1.00  0.00    -0.200 C  
HETATM   12  O   UNL     4     -11.402   6.752  68.595  1.00  0.00    -0.535 OA 
HETATM   13  H   UNL     4     -10.917   7.037  67.829  1.00  0.00     0.000 HD 
BRANCH  11  14
HETATM   14  C   UNL     4     -10.809   8.930  69.572  1.00  0.00    -0.153 C  
HETATM   15  H   UNL     4     -11.723  10.531  70.221  1.00  0.00     0.000 HD 
HETATM   16  O   UNL     4     -11.836   9.597  70.356  1.00  0.00    -0.240 OA 
BRANCH  14  17
HETATM   17  C   UNL     4     -10.759   9.510  68.129  1.00  0.00    -0.197 C  
HETATM   18  C   UNL     4      -9.280   9.795  67.637  1.00  0.00    -0.130 C  
HETATM   19  H   UNL     4     -11.641  10.960  67.074  1.00  0.00     0.000 HD 
HETATM   20  O   UNL     4     -11.670  10.607  67.955  1.00  0.00    -0.506 OA 
HETATM   21  O   UNL     4      -8.416   8.903  68.028  1.00  0.00    -0.124 OA 
HETATM   22  O   UNL     4      -9.041  10.864  67.010  1.00  0.00    -0.148 OA 
ENDBRANCH  14  17
ENDBRANCH  11  14
ENDBRANCH   8  11
ENDBRANCH   3   8
BRANCH   7  23
HETATM   23  C   UNL     5      -8.226   2.287  64.606  1.00  0.00    -0.086 C  
HETATM   24  O   UNL     5      -6.813   2.198  64.797  1.00  0.00    -0.040 OA 
HETATM   25  H   UNL     5      -6.649   1.637  65.546  1.00  0.00     0.000 HD 
BRANCH  23  26
HETATM   26  C   UNL     5      -8.927   2.813  65.877  1.00  0.00    -0.142 C  
HETATM   27  O   UNL     5      -9.611   1.721  66.533  1.00  0.00    -0.341 OA 
HETATM   28  H   UNL     5     -10.042   2.045  67.316  1.00  0.00     0.000 HD 
BRANCH  26  29
HETATM   29  C   UNL     5      -8.073   3.608  66.903  1.00  0.00    -0.095 C  
HETATM   30  O   UNL     5      -8.625   3.588  68.219  1.00  0.00    -0.086 OA 
HETATM   31  H   UNL     5      -8.103   4.074  68.847  1.00  0.00     0.000 HD 
BRANCH  29  32
HETATM   32  C   UNL     5      -7.610   5.021  66.512  1.00  0.00    -0.088 C  
HETATM   33  C   UNL     5      -8.719   5.998  66.069  1.00  0.00    -0.152 C  
HETATM   34  O   UNL     5      -6.557   4.951  65.486  1.00  0.00    -0.039 OA 
HETATM   35  O   UNL     5      -9.846   5.889  66.638  1.00  0.00    -0.150 OA 
HETATM   36  O   UNL     5      -8.366   6.770  65.108  1.00  0.00    -0.136 OA 
HETATM   37  H   UNL     5      -6.270   5.823  65.244  1.00  0.00     0.000 HD 
ENDBRANCH  29  32
ENDBRANCH  26  29
ENDBRANCH  23  26
ENDBRANCH   7  23
TORSDOF 8
ENDMDL
MODEL      411
REMARK 921   NORMALIZED FREE ENERGY PREDICTED BY IDOCK:   -3.61 KCAL/MOL
REMARK 922        TOTAL FREE ENERGY PREDICTED BY IDOCK:   -7.54 KCAL/MOL
REMARK 923 INTER-LIGAND FREE ENERGY PREDICTED BY IDOCK:   -6.07 KCAL/MOL
REMARK 924 INTRA-LIGAND FREE ENERGY PREDICTED BY IDOCK:   -1.47 KCAL/MOL
REMARK 927      BINDING AFFINITY PREDICTED BY RF-SCORE:    0.00 PKD
ROOT
HETATM    1 MG   UNL     3     -12.215   7.438  73.230  1.00  0.00    -0.521 Mg 
HETATM    2  O   UNL     4     -13.527  13.437  72.331  1.00  0.00    -0.534 OA 
HETATM    3  C   UNL     4     -13.561  12.111  71.839  1.00  0.00    -0.077 C  
HETATM    4  H   UNL     4     -14.374  13.740  72.636  1.00  0.00     0.000 HD 
HETATM    5  O   UNL     5      -6.870   2.682  70.398  1.00  0.00    -0.032 OA 
HETATM    6  H   UNL     5      -6.077   2.696  70.920  1.00  0.00     0.000 HD 
HETATM    7  C   UNL     5      -7.312   3.999  70.071  1.00  0.00    -0.045 C  
ENDROOT
BRANCH   3   8
HETATM    8  C   UNL     4     -12.191  11.621  71.346  1.00  0.00     0.076 C  
HETATM    9  O   UNL     4     -12.016  10.236  71.702  1.00  0.00    -0.332 OA 
HETATM   10  H   UNL     4     -11.169   9.933  71.398  1.00  0.00     0.000 HD 
BRANCH   8  11
HETATM   11  C   UNL     4     -11.855  11.733  69.831  1.00  0.00    -0.348 C  
HETATM   12  O   UNL     4     -12.421  10.685  69.050  1.00  0.00    -0.777 OA 
HETATM   13  H   UNL     4     -12.216  10.754  68.125  1.00  0.00     0.000 HD 
BRANCH  11  14
HETATM   14  C   UNL     4     -12.038  13.113  69.144  1.00  0.00    -0.214 C  
HETATM   15  H   UNL     4     -12.259  13.707  67.296  1.00  0.00     0.000 HD 
HETATM   16  O   UNL     4     -12.148  12.862  67.716  1.00  0.00    -0.312 OA 
BRANCH  14  17
HETATM   17  C   UNL     4     -11.027  14.262  69.421  1.00  0.00    -0.209 C  
HETATM   18  C   UNL     4     -11.742  15.639  69.746  1.00  0.00    -0.357 C  
HETATM   19  H   UNL     4      -9.390  15.043  68.581  1.00  0.00     0.000 HD 
HETATM   20  O   UNL     4     -10.008  14.341  68.412  1.00  0.00    -0.227 OA 
HETATM   21  O   UNL     4     -12.821  15.511  70.464  1.00  0.00    -0.443 OA 
HETATM   22  O   UNL     4     -11.287  16.699  69.234  1.00  0.00    -0.210 OA 
ENDBRANCH  14  17
ENDBRANCH  11  14
ENDBRANCH   8  11
ENDBRANCH   3   8
BRANCH   7  23
HETATM   23  C   UNL     5      -8.600   3.977  69.224  1.00  0.00    -0.078 C  
HETATM   24  O   UNL     5      -8.786   5.275  68.657  1.00  0.00    -0.097 OA 
HETATM   25  H   UNL     5      -9.579   5.261  68.135  1.00  0.00     0.000 HD 
BRANCH  23  26
HETATM   26  C   UNL     5      -8.542   2.893  68.125  1.00  0.00    -0.090 C  
HETATM   27  O   UNL     5      -9.839   2.266  68.001  1.00  0.00    -0.283 OA 
HETATM   28  H   UNL     5      -9.803   1.599  67.325  1.00  0.00     0.000 HD 
BRANCH  26  29
HETATM   29  C   UNL     5      -8.007   3.304  66.725  1.00  0.00    -0.080 C  
HETATM   30  O   UNL     5      -7.163   4.454  66.769  1.00  0.00    -0.076 OA 
HETATM   31  H   UNL     5      -6.835   4.706  65.913  1.00  0.00     0.000 HD 
BRANCH  29  32
HETATM   32  C   UNL     5      -9.014   3.392  65.568  1.00  0.00    -0.140 C  
HETATM   33  C   UNL     5      -8.450   3.876  64.215  1.00  0.00    -0.096 C  
HETATM   34  O   UNL     5     -10.173   4.213  65.956  1.00  0.00    -0.390 OA 
HETATM   35  O   UNL     5      -7.262   3.540  63.932  1.00  0.00    -0.049 OA 
HETATM   36  O   UNL     5      -9.257   4.633  63.567  1.00  0.00    -0.126 OA 
HETATM   37  H   UNL     5     -10.796   4.268  65.242  1.00  0.00     0.000 HD 
ENDBRANCH  29  32
ENDBRANCH  26  29
ENDBRANCH  23  26
ENDBRANCH   7  23
TORSDOF 8
ENDMDL
MODEL      412
REMARK 921   NORMALIZED FREE ENERGY PREDICTED BY IDOCK:   -3.60 KCAL/MOL
REMARK 922        TOTAL FREE ENERGY PREDICTED BY IDOCK:   -7.52 KCAL/MOL
REMARK 923 INTER-LIGAND FREE ENERGY PREDICTED BY IDOCK:   -5.77 KCAL/MOL
REMARK 924 INTRA-LIGAND FREE ENERGY PREDICTED BY IDOCK:   -1.76 KCAL/MOL
REMARK 927      BINDING AFFINITY PREDICTED BY RF-SCORE:    0.00 PKD
ROOT
HETATM    1 MG   UNL     3      -5.387   7.794  66.961  1.00  0.00    -0.022 Mg 
HETATM    2  O   UNL     4      -8.332   2.584  68.606  1.00  0.00    -0.061 OA 
HETATM    3  C   UNL     4      -8.305   3.748  67.802  1.00  0.00    -0.093 C  
HETATM    4  H   UNL     4      -8.110   1.796  68.123  1.00  0.00     0.000 HD 
HETATM    5  O   UNL     5      -6.599  15.259  68.378  1.00  0.00    -0.101 OA 
HETATM    6  H   UNL     5      -6.164  15.539  69.175  1.00  0.00     0.000 HD 
HETATM    7  C   UNL     5      -7.356  14.066  68.579  1.00  0.00    -0.114 C  
ENDROOT
BRANCH   3   8
HETATM    8  C   UNL     4      -8.664   5.021  68.582  1.00  0.00    -0.093 C  
HETATM    9  O   UNL     4      -8.650   4.744  69.995  1.00  0.00    -0.080 OA 
HETATM   10  H   UNL     4      -8.873   5.532  70.477  1.00  0.00     0.000 HD 
BRANCH   8  11
HETATM   11  C   UNL     4      -7.797   6.297  68.375  1.00  0.00    -0.105 C  
HETATM   12  O   UNL     4      -6.899   6.195  67.274  1.00  0.00    -0.059 OA 
HETATM   13  H   UNL     4      -6.370   6.974  67.148  1.00  0.00     0.000 HD 
BRANCH  11  14
HETATM   14  C   UNL     4      -8.512   7.676  68.397  1.00  0.00    -0.125 C  
HETATM   15  H   UNL     4     -10.060   8.432  67.477  1.00  0.00     0.000 HD 
HETATM   16  O   UNL     4      -9.623   7.588  67.463  1.00  0.00    -0.135 OA 
BRANCH  14  17
HETATM   17  C   UNL     4      -7.698   8.980  68.158  1.00  0.00    -0.096 C  
HETATM   18  C   UNL     4      -7.202   9.645  69.508  1.00  0.00    -0.080 C  
HETATM   19  H   UNL     4      -7.871  10.675  67.113  1.00  0.00     0.000 HD 
HETATM   20  O   UNL     4      -8.367   9.878  67.259  1.00  0.00    -0.120 OA 
HETATM   21  O   UNL     4      -6.832   8.783  70.412  1.00  0.00    -0.039 OA 
HETATM   22  O   UNL     4      -7.285  10.898  69.638  1.00  0.00    -0.140 OA 
ENDBRANCH  14  17
ENDBRANCH  11  14
ENDBRANCH   8  11
ENDBRANCH   3   8
BRANCH   7  23
HETATM   23  C   UNL     5      -8.061  13.612  67.285  1.00  0.00    -0.139 C  
HETATM   24  O   UNL     5      -7.695  12.254  67.029  1.00  0.00    -0.260 OA 
HETATM   25  H   UNL     5      -8.129  11.974  66.232  1.00  0.00     0.000 HD 
BRANCH  23  26
HETATM   26  C   UNL     5      -9.594  13.765  67.386  1.00  0.00    -0.229 C  
HETATM   27  O   UNL     5      -9.909  14.872  68.261  1.00  0.00    -0.209 OA 
HETATM   28  H   UNL     5     -10.852  14.966  68.323  1.00  0.00     0.000 HD 
BRANCH  26  29
HETATM   29  C   UNL     5     -10.403  13.877  66.063  1.00  0.00    -0.305 C  
HETATM   30  O   UNL     5      -9.688  13.382  64.932  1.00  0.00    -0.563 OA 
HETATM   31  H   UNL     5     -10.182  13.451  64.123  1.00  0.00     0.000 HD 
BRANCH  29  32
HETATM   32  C   UNL     5     -11.086  15.218  65.751  1.00  0.00    -0.301 C  
HETATM   33  C   UNL     5     -11.815  15.306  64.393  1.00  0.00    -0.281 C  
HETATM   34  O   UNL     5     -10.128  16.328  65.885  1.00  0.00    -0.323 OA 
HETATM   35  O   UNL     5     -12.374  14.252  63.968  1.00  0.00    -0.641 OA 
HETATM   36  O   UNL     5     -11.697  16.449  63.824  1.00  0.00    -1.049 OA 
HETATM   37  H   UNL     5     -10.550  17.156  65.692  1.00  0.00     0.000 HD 
ENDBRANCH  29  32
ENDBRANCH  26  29
ENDBRANCH  23  26
ENDBRANCH   7  23
TORSDOF 8
ENDMDL
MODEL      413
REMARK 921   NORMALIZED FREE ENERGY PREDICTED BY IDOCK:   -3.59 KCAL/MOL
REMARK 922        TOTAL FREE ENERGY PREDICTED BY IDOCK:   -7.52 KCAL/MOL
REMARK 923 INTER-LIGAND FREE ENERGY PREDICTED BY IDOCK:   -5.96 KCAL/MOL
REMARK 924 INTRA-LIGAND FREE ENERGY PREDICTED BY IDOCK:   -1.56 KCAL/MOL
REMARK 927      BINDING AFFINITY PREDICTED BY RF-SCORE:    0.00 PKD
ROOT
HETATM    1 MG   UNL     3      -9.080  11.070  69.819  1.00  0.00    -0.342 Mg 
HETATM    2  O   UNL     4     -14.234  13.559  72.219  1.00  0.00    -0.539 OA 
HETATM    3  C   UNL     4     -13.162  12.645  72.357  1.00  0.00    -0.243 C  
HETATM    4  H   UNL     4     -14.125  14.340  72.750  1.00  0.00     0.000 HD 
HETATM    5  O   UNL     5      -7.455   4.261  66.622  1.00  0.00    -0.079 OA 
HETATM    6  H   UNL     5      -7.611   4.268  65.685  1.00  0.00     0.000 HD 
HETATM    7  C   UNL     5      -8.566   4.787  67.348  1.00  0.00    -0.104 C  
ENDROOT
BRANCH   3   8
HETATM    8  C   UNL     4     -13.338  11.384  71.499  1.00  0.00    -0.083 C  
HETATM    9  O   UNL     4     -12.504  11.474  70.328  1.00  0.00    -0.267 OA 
HETATM   10  H   UNL     4     -12.613  10.694  69.798  1.00  0.00     0.000 HD 
BRANCH   8  11
HETATM   11  C   UNL     4     -13.048   9.995  72.140  1.00  0.00    -0.386 C  
HETATM   12  O   UNL     4     -14.046   9.585  73.070  1.00  0.00    -0.802 OA 
HETATM   13  H   UNL     4     -13.869   8.738  73.460  1.00  0.00     0.000 HD 
BRANCH  11  14
HETATM   14  C   UNL     4     -12.638   8.830  71.199  1.00  0.00    -0.168 C  
HETATM   15  H   UNL     4     -13.175   6.960  71.017  1.00  0.00     0.000 HD 
HETATM   16  O   UNL     4     -13.427   7.673  71.593  1.00  0.00    -0.354 OA 
BRANCH  14  17
HETATM   17  C   UNL     4     -11.139   8.443  71.045  1.00  0.00    -0.258 C  
HETATM   18  C   UNL     4     -10.368   8.424  72.429  1.00  0.00    -0.329 C  
HETATM   19  H   UNL     4      -9.575   8.959  69.913  1.00  0.00     0.000 HD 
HETATM   20  O   UNL     4     -10.490   9.195  70.008  1.00  0.00    -0.201 OA 
HETATM   21  O   UNL     4     -11.079   7.963  73.418  1.00  0.00    -0.277 OA 
HETATM   22  O   UNL     4      -9.209   8.920  72.489  1.00  0.00    -0.334 OA 
ENDBRANCH  14  17
ENDBRANCH  11  14
ENDBRANCH   8  11
ENDBRANCH   3   8
BRANCH   7  23
HETATM   23  C   UNL     5      -8.312   4.776  68.869  1.00  0.00    -0.082 C  
HETATM   24  O   UNL     5      -8.991   5.894  69.444  1.00  0.00    -0.120 OA 
HETATM   25  H   UNL     5      -8.835   5.887  70.381  1.00  0.00     0.000 HD 
BRANCH  23  26
HETATM   26  C   UNL     5      -8.774   3.452  69.515  1.00  0.00    -0.076 C  
HETATM   27  O   UNL     5      -8.322   2.341  68.707  1.00  0.00    -0.055 OA 
HETATM   28  H   UNL     5      -8.606   1.526  69.105  1.00  0.00     0.000 HD 
BRANCH  26  29
HETATM   29  C   UNL     5      -8.421   3.210  71.009  1.00  0.00    -0.066 C  
HETATM   30  O   UNL     5      -7.280   2.370  71.181  1.00  0.00    -0.032 OA 
HETATM   31  H   UNL     5      -7.064   2.222  72.095  1.00  0.00     0.000 HD 
BRANCH  29  32
HETATM   32  C   UNL     5      -9.560   2.809  71.961  1.00  0.00    -0.139 C  
HETATM   33  C   UNL     5     -10.332   3.972  72.619  1.00  0.00    -0.158 C  
HETATM   34  O   UNL     5      -9.066   1.882  72.992  1.00  0.00    -0.068 OA 
HETATM   35  O   UNL     5     -10.488   5.024  71.930  1.00  0.00    -0.209 OA 
HETATM   36  O   UNL     5     -10.665   3.741  73.835  1.00  0.00    -0.192 OA 
HETATM   37  H   UNL     5      -9.769   1.634  73.580  1.00  0.00     0.000 HD 
ENDBRANCH  29  32
ENDBRANCH  26  29
ENDBRANCH  23  26
ENDBRANCH   7  23
TORSDOF 8
ENDMDL
MODEL      414
REMARK 921   NORMALIZED FREE ENERGY PREDICTED BY IDOCK:   -3.59 KCAL/MOL
REMARK 922        TOTAL FREE ENERGY PREDICTED BY IDOCK:   -7.52 KCAL/MOL
REMARK 923 INTER-LIGAND FREE ENERGY PREDICTED BY IDOCK:   -6.11 KCAL/MOL
REMARK 924 INTRA-LIGAND FREE ENERGY PREDICTED BY IDOCK:   -1.40 KCAL/MOL
REMARK 927      BINDING AFFINITY PREDICTED BY RF-SCORE:    0.00 PKD
ROOT
HETATM    1 MG   UNL     3      -9.257  13.479  64.337  1.00  0.00    -0.512 Mg 
HETATM    2  O   UNL     4      -7.546  19.264  65.794  1.00  0.00    -0.406 OA 
HETATM    3  C   UNL     4      -7.210  17.892  65.724  1.00  0.00    -0.145 C  
HETATM    4  H   UNL     4      -7.146  19.779  65.103  1.00  0.00     0.000 HD 
HETATM    5  O   UNL     5     -11.216   7.308  68.496  1.00  0.00    -0.449 OA 
HETATM    6  H   UNL     5     -12.147   7.291  68.680  1.00  0.00     0.000 HD 
HETATM    7  C   UNL     5     -10.640   8.578  68.800  1.00  0.00    -0.133 C  
ENDROOT
BRANCH   3   8
HETATM    8  C   UNL     4      -7.857  17.060  66.841  1.00  0.00    -0.213 C  
HETATM    9  O   UNL     4      -7.513  17.619  68.122  1.00  0.00    -0.215 OA 
HETATM   10  H   UNL     4      -7.913  17.104  68.813  1.00  0.00     0.000 HD 
BRANCH   8  11
HETATM   11  C   UNL     4      -9.403  16.876  66.840  1.00  0.00    -0.241 C  
HETATM   12  O   UNL     4     -10.113  18.090  66.620  1.00  0.00    -0.334 OA 
HETATM   13  H   UNL     4     -11.056  17.978  66.620  1.00  0.00     0.000 HD 
BRANCH  11  14
HETATM   14  C   UNL     4      -9.998  15.712  66.003  1.00  0.00    -0.333 C  
HETATM   15  H   UNL     4     -11.228  15.600  64.489  1.00  0.00     0.000 HD 
HETATM   16  O   UNL     4     -10.863  16.313  65.001  1.00  0.00    -0.558 OA 
BRANCH  14  17
HETATM   17  C   UNL     4     -10.720  14.531  66.712  1.00  0.00    -0.291 C  
HETATM   18  C   UNL     4     -11.248  14.918  68.156  1.00  0.00    -0.299 C  
HETATM   19  H   UNL     4     -10.395  12.596  67.094  1.00  0.00     0.000 HD 
HETATM   20  O   UNL     4      -9.954  13.318  66.661  1.00  0.00    -0.258 OA 
HETATM   21  O   UNL     4     -11.714  16.131  68.236  1.00  0.00    -0.281 OA 
HETATM   22  O   UNL     4     -11.100  14.094  69.101  1.00  0.00    -0.251 OA 
ENDBRANCH  14  17
ENDBRANCH  11  14
ENDBRANCH   8  11
ENDBRANCH   3   8
BRANCH   7  23
HETATM   23  C   UNL     5      -9.127   8.606  68.501  1.00  0.00    -0.138 C  
HETATM   24  O   UNL     5      -8.474   7.720  69.413  1.00  0.00    -0.131 OA 
HETATM   25  H   UNL     5      -7.542   7.738  69.229  1.00  0.00     0.000 HD 
BRANCH  23  26
HETATM   26  C   UNL     5      -8.826   8.218  67.037  1.00  0.00    -0.135 C  
HETATM   27  O   UNL     5      -8.361   9.383  66.319  1.00  0.00    -0.113 OA 
HETATM   28  H   UNL     5      -8.176   9.145  65.418  1.00  0.00     0.000 HD 
BRANCH  26  29
HETATM   29  C   UNL     5      -7.876   7.015  66.784  1.00  0.00    -0.107 C  
HETATM   30  O   UNL     5      -6.510   7.317  67.064  1.00  0.00    -0.051 OA 
HETATM   31  H   UNL     5      -5.929   6.581  66.910  1.00  0.00     0.000 HD 
BRANCH  29  32
HETATM   32  C   UNL     5      -8.020   6.252  65.456  1.00  0.00    -0.115 C  
HETATM   33  C   UNL     5      -6.874   5.279  65.108  1.00  0.00    -0.049 C  
HETATM   34  O   UNL     5      -8.243   7.192  64.345  1.00  0.00    -0.285 OA 
HETATM   35  O   UNL     5      -6.316   4.675  66.072  1.00  0.00    -0.034 OA 
HETATM   36  O   UNL     5      -6.583   5.259  63.859  1.00  0.00    -0.035 OA 
HETATM   37  H   UNL     5      -8.331   6.722  63.525  1.00  0.00     0.000 HD 
ENDBRANCH  29  32
ENDBRANCH  26  29
ENDBRANCH  23  26
ENDBRANCH   7  23
TORSDOF 8
ENDMDL
MODEL      415
REMARK 921   NORMALIZED FREE ENERGY PREDICTED BY IDOCK:   -3.58 KCAL/MOL
REMARK 922        TOTAL FREE ENERGY PREDICTED BY IDOCK:   -7.50 KCAL/MOL
REMARK 923 INTER-LIGAND FREE ENERGY PREDICTED BY IDOCK:   -4.66 KCAL/MOL
REMARK 924 INTRA-LIGAND FREE ENERGY PREDICTED BY IDOCK:   -2.84 KCAL/MOL
REMARK 927      BINDING AFFINITY PREDICTED BY RF-SCORE:    0.00 PKD
ROOT
HETATM    1 MG   UNL     3      -7.544   8.157  68.389  1.00  0.00    -0.083 Mg 
HETATM    2  O   UNL     4      -8.482   8.204  74.524  1.00  0.00    -0.420 OA 
HETATM    3  C   UNL     4      -7.942   7.545  73.395  1.00  0.00    -0.118 C  
HETATM    4  H   UNL     4      -7.819   8.630  75.056  1.00  0.00     0.000 HD 
HETATM    5  O   UNL     5     -10.642   4.193  62.567  1.00  0.00    -0.306 OA 
HETATM    6  H   UNL     5     -11.407   4.630  62.214  1.00  0.00     0.000 HD 
HETATM    7  C   UNL     5     -10.699   4.092  63.990  1.00  0.00    -0.144 C  
ENDROOT
BRANCH   3   8
HETATM    8  C   UNL     4      -9.013   6.856  72.536  1.00  0.00    -0.129 C  
HETATM    9  O   UNL     4      -9.511   5.693  73.224  1.00  0.00    -0.142 OA 
HETATM   10  H   UNL     4     -10.174   5.267  72.692  1.00  0.00     0.000 HD 
BRANCH   8  11
HETATM   11  C   UNL     4     -10.261   7.675  72.094  1.00  0.00    -0.207 C  
HETATM   12  O   UNL     4     -10.065   9.083  72.167  1.00  0.00    -0.296 OA 
HETATM   13  H   UNL     4     -10.827   9.582  71.897  1.00  0.00     0.000 HD 
BRANCH  11  14
HETATM   14  C   UNL     4     -10.968   7.269  70.772  1.00  0.00    -0.251 C  
HETATM   15  H   UNL     4     -11.875   5.658  70.141  1.00  0.00     0.000 HD 
HETATM   16  O   UNL     4     -11.443   5.906  70.950  1.00  0.00    -0.234 OA 
BRANCH  14  17
HETATM   17  C   UNL     4     -10.226   7.417  69.414  1.00  0.00    -0.201 C  
HETATM   18  C   UNL     4     -10.621   8.745  68.644  1.00  0.00    -0.139 C  
HETATM   19  H   UNL     4      -9.849   6.312  67.792  1.00  0.00     0.000 HD 
HETATM   20  O   UNL     4     -10.303   6.222  68.622  1.00  0.00    -0.168 OA 
HETATM   21  O   UNL     4     -10.794   9.772  69.426  1.00  0.00    -0.226 OA 
HETATM   22  O   UNL     4     -10.821   8.693  67.399  1.00  0.00    -0.211 OA 
ENDBRANCH  14  17
ENDBRANCH  11  14
ENDBRANCH   8  11
ENDBRANCH   3   8
BRANCH   7  23
HETATM   23  C   UNL     5      -9.455   3.382  64.563  1.00  0.00    -0.149 C  
HETATM   24  O   UNL     5      -8.370   3.577  63.654  1.00  0.00    -0.089 OA 
HETATM   25  H   UNL     5      -7.604   3.140  64.007  1.00  0.00     0.000 HD 
BRANCH  23  26
HETATM   26  C   UNL     5      -9.101   3.901  65.973  1.00  0.00    -0.148 C  
HETATM   27  O   UNL     5      -8.758   2.783  66.824  1.00  0.00    -0.107 OA 
HETATM   28  H   UNL     5      -8.540   3.103  67.691  1.00  0.00     0.000 HD 
BRANCH  26  29
HETATM   29  C   UNL     5      -8.023   5.015  66.089  1.00  0.00    -0.107 C  
HETATM   30  O   UNL     5      -7.529   5.174  67.418  1.00  0.00    -0.081 OA 
HETATM   31  H   UNL     5      -6.870   5.855  67.489  1.00  0.00     0.000 HD 
BRANCH  29  32
HETATM   32  C   UNL     5      -8.321   6.374  65.435  1.00  0.00    -0.141 C  
HETATM   33  C   UNL     5      -7.283   7.488  65.687  1.00  0.00    -0.066 C  
HETATM   34  O   UNL     5      -9.666   6.841  65.809  1.00  0.00    -0.362 OA 
HETATM   35  O   UNL     5      -6.069   7.136  65.779  1.00  0.00    -0.035 OA 
HETATM   36  O   UNL     5      -7.806   8.648  65.844  1.00  0.00    -0.097 OA 
HETATM   37  H   UNL     5      -9.850   7.680  65.405  1.00  0.00     0.000 HD 
ENDBRANCH  29  32
ENDBRANCH  26  29
ENDBRANCH  23  26
ENDBRANCH   7  23
TORSDOF 8
ENDMDL
MODEL      416
REMARK 921   NORMALIZED FREE ENERGY PREDICTED BY IDOCK:   -3.56 KCAL/MOL
REMARK 922        TOTAL FREE ENERGY PREDICTED BY IDOCK:   -7.47 KCAL/MOL
REMARK 923 INTER-LIGAND FREE ENERGY PREDICTED BY IDOCK:   -5.36 KCAL/MOL
REMARK 924 INTRA-LIGAND FREE ENERGY PREDICTED BY IDOCK:   -2.11 KCAL/MOL
REMARK 927      BINDING AFFINITY PREDICTED BY RF-SCORE:    0.00 PKD
ROOT
HETATM    1 MG   UNL     3      -7.624   9.258  68.984  1.00  0.00    -0.065 Mg 
HETATM    2  O   UNL     4     -12.271  13.369  68.851  1.00  0.00    -0.294 OA 
HETATM    3  C   UNL     4     -11.538  12.406  69.583  1.00  0.00    -0.260 C  
HETATM    4  H   UNL     4     -12.061  14.262  69.099  1.00  0.00     0.000 HD 
HETATM    5  O   UNL     5      -7.319   1.571  68.835  1.00  0.00    -0.039 OA 
HETATM    6  H   UNL     5      -7.280   1.239  67.946  1.00  0.00     0.000 HD 
HETATM    7  C   UNL     5      -8.365   2.528  68.997  1.00  0.00    -0.056 C  
ENDROOT
BRANCH   3   8
HETATM    8  C   UNL     4     -11.878  10.963  69.182  1.00  0.00    -0.317 C  
HETATM    9  O   UNL     4     -11.647  10.786  67.771  1.00  0.00    -0.546 OA 
HETATM   10  H   UNL     4     -11.858   9.893  67.523  1.00  0.00     0.000 HD 
BRANCH   8  11
HETATM   11  C   UNL     4     -11.146   9.792  69.899  1.00  0.00    -0.254 C  
HETATM   12  O   UNL     4      -9.790   9.641  69.490  1.00  0.00    -0.182 OA 
HETATM   13  H   UNL     4      -9.344   8.926  69.929  1.00  0.00     0.000 HD 
BRANCH  11  14
HETATM   14  C   UNL     4     -11.288   9.679  71.441  1.00  0.00    -0.374 C  
HETATM   15  H   UNL     4     -10.137   9.032  72.881  1.00  0.00     0.000 HD 
HETATM   16  O   UNL     4     -10.050   9.100  71.938  1.00  0.00    -0.322 OA 
BRANCH  14  17
HETATM   17  C   UNL     4     -12.517   8.954  72.060  1.00  0.00    -0.392 C  
HETATM   18  C   UNL     4     -12.825   7.568  71.357  1.00  0.00    -0.342 C  
HETATM   19  H   UNL     4     -14.403   9.383  72.566  1.00  0.00     0.000 HD 
HETATM   20  O   UNL     4     -13.652   9.825  72.188  1.00  0.00    -0.419 OA 
HETATM   21  O   UNL     4     -11.757   6.903  71.020  1.00  0.00    -0.307 OA 
HETATM   22  O   UNL     4     -14.024   7.265  71.103  1.00  0.00    -0.325 OA 
ENDBRANCH  14  17
ENDBRANCH  11  14
ENDBRANCH   8  11
ENDBRANCH   3   8
BRANCH   7  23
HETATM   23  C   UNL     5      -8.428   3.067  70.441  1.00  0.00    -0.060 C  
HETATM   24  O   UNL     5      -7.213   2.714  71.104  1.00  0.00    -0.032 OA 
HETATM   25  H   UNL     5      -7.252   3.046  71.993  1.00  0.00     0.000 HD 
BRANCH  23  26
HETATM   26  C   UNL     5      -8.656   4.594  70.471  1.00  0.00    -0.094 C  
HETATM   27  O   UNL     5      -9.862   4.884  71.215  1.00  0.00    -0.167 OA 
HETATM   28  H   UNL     5     -10.002   5.824  71.233  1.00  0.00     0.000 HD 
BRANCH  26  29
HETATM   29  C   UNL     5      -7.489   5.494  70.966  1.00  0.00    -0.089 C  
HETATM   30  O   UNL     5      -7.427   5.591  72.388  1.00  0.00    -0.093 OA 
HETATM   31  H   UNL     5      -6.714   6.141  72.691  1.00  0.00     0.000 HD 
BRANCH  29  32
HETATM   32  C   UNL     5      -7.311   6.869  70.302  1.00  0.00    -0.084 C  
HETATM   33  C   UNL     5      -6.171   7.746  70.859  1.00  0.00    -0.034 C  
HETATM   34  O   UNL     5      -8.580   7.616  70.318  1.00  0.00    -0.139 OA 
HETATM   35  O   UNL     5      -5.127   7.151  71.260  1.00  0.00    -0.026 OA 
HETATM   36  O   UNL     5      -6.464   8.994  70.909  1.00  0.00    -0.049 OA 
HETATM   37  H   UNL     5      -8.470   8.465  69.908  1.00  0.00     0.000 HD 
ENDBRANCH  29  32
ENDBRANCH  26  29
ENDBRANCH  23  26
ENDBRANCH   7  23
TORSDOF 8
ENDMDL
MODEL      417
REMARK 921   NORMALIZED FREE ENERGY PREDICTED BY IDOCK:   -3.56 KCAL/MOL
REMARK 922        TOTAL FREE ENERGY PREDICTED BY IDOCK:   -7.46 KCAL/MOL
REMARK 923 INTER-LIGAND FREE ENERGY PREDICTED BY IDOCK:   -5.61 KCAL/MOL
REMARK 924 INTRA-LIGAND FREE ENERGY PREDICTED BY IDOCK:   -1.86 KCAL/MOL
REMARK 927      BINDING AFFINITY PREDICTED BY RF-SCORE:    0.00 PKD
ROOT
HETATM    1 MG   UNL     3     -12.096   9.365  68.217  1.00  0.00    -0.298 Mg 
HETATM    2  O   UNL     4     -11.059  14.541  64.955  1.00  0.00    -0.357 OA 
HETATM    3  C   UNL     4     -10.741  13.183  65.189  1.00  0.00    -0.315 C  
HETATM    4  H   UNL     4     -11.587  14.669  64.174  1.00  0.00     0.000 HD 
HETATM    5  O   UNL     5      -8.202   5.697  73.749  1.00  0.00    -0.111 OA 
HETATM    6  H   UNL     5      -8.439   6.013  74.612  1.00  0.00     0.000 HD 
HETATM    7  C   UNL     5      -7.902   6.770  72.856  1.00  0.00    -0.098 C  
ENDROOT
BRANCH   3   8
HETATM    8  C   UNL     4      -9.889  12.978  66.450  1.00  0.00    -0.270 C  
HETATM    9  O   UNL     4     -10.748  12.825  67.595  1.00  0.00    -0.215 OA 
HETATM   10  H   UNL     4     -10.221  12.698  68.376  1.00  0.00     0.000 HD 
BRANCH   8  11
HETATM   11  C   UNL     4      -8.884  11.790  66.491  1.00  0.00    -0.183 C  
HETATM   12  O   UNL     4      -7.525  12.205  66.584  1.00  0.00    -0.370 OA 
HETATM   13  H   UNL     4      -6.912  11.479  66.610  1.00  0.00     0.000 HD 
BRANCH  11  14
HETATM   14  C   UNL     4      -9.185  10.614  67.460  1.00  0.00    -0.143 C  
HETATM   15  H   UNL     4     -10.597   9.270  67.588  1.00  0.00     0.000 HD 
HETATM   16  O   UNL     4     -10.413   9.989  66.995  1.00  0.00    -0.237 OA 
BRANCH  14  17
HETATM   17  C   UNL     4      -9.246  10.863  68.994  1.00  0.00    -0.115 C  
HETATM   18  C   UNL     4      -7.989  10.273  69.758  1.00  0.00    -0.126 C  
HETATM   19  H   UNL     4     -10.552  10.644  70.490  1.00  0.00     0.000 HD 
HETATM   20  O   UNL     4     -10.515  10.491  69.553  1.00  0.00    -0.227 OA 
HETATM   21  O   UNL     4      -6.870  10.402  69.104  1.00  0.00    -0.055 OA 
HETATM   22  O   UNL     4      -8.168   9.667  70.851  1.00  0.00    -0.290 OA 
ENDBRANCH  14  17
ENDBRANCH  11  14
ENDBRANCH   8  11
ENDBRANCH   3   8
BRANCH   7  23
HETATM   23  C   UNL     5      -7.518   6.256  71.454  1.00  0.00    -0.090 C  
HETATM   24  O   UNL     5      -7.020   4.923  71.586  1.00  0.00    -0.049 OA 
HETATM   25  H   UNL     5      -6.783   4.607  70.722  1.00  0.00     0.000 HD 
BRANCH  23  26
HETATM   26  C   UNL     5      -8.713   6.310  70.478  1.00  0.00    -0.143 C  
HETATM   27  O   UNL     5      -8.537   5.310  69.449  1.00  0.00    -0.099 OA 
HETATM   28  H   UNL     5      -9.273   5.343  68.849  1.00  0.00     0.000 HD 
BRANCH  26  29
HETATM   29  C   UNL     5     -10.145   6.221  71.076  1.00  0.00    -0.185 C  
HETATM   30  O   UNL     5     -10.614   4.879  71.197  1.00  0.00    -0.151 OA 
HETATM   31  H   UNL     5     -11.490   4.824  71.562  1.00  0.00     0.000 HD 
BRANCH  29  32
HETATM   32  C   UNL     5     -11.227   7.142  70.491  1.00  0.00    -0.290 C  
HETATM   33  C   UNL     5     -11.997   8.013  71.506  1.00  0.00    -0.297 C  
HETATM   34  O   UNL     5     -12.171   6.368  69.668  1.00  0.00    -0.278 OA 
HETATM   35  O   UNL     5     -11.351   8.435  72.511  1.00  0.00    -0.375 OA 
HETATM   36  O   UNL     5     -13.242   8.143  71.227  1.00  0.00    -0.245 OA 
HETATM   37  H   UNL     5     -12.840   6.937  69.306  1.00  0.00     0.000 HD 
ENDBRANCH  29  32
ENDBRANCH  26  29
ENDBRANCH  23  26
ENDBRANCH   7  23
TORSDOF 8
ENDMDL
MODEL      418
REMARK 921   NORMALIZED FREE ENERGY PREDICTED BY IDOCK:   -3.55 KCAL/MOL
REMARK 922        TOTAL FREE ENERGY PREDICTED BY IDOCK:   -7.45 KCAL/MOL
REMARK 923 INTER-LIGAND FREE ENERGY PREDICTED BY IDOCK:   -5.93 KCAL/MOL
REMARK 924 INTRA-LIGAND FREE ENERGY PREDICTED BY IDOCK:   -1.53 KCAL/MOL
REMARK 927      BINDING AFFINITY PREDICTED BY RF-SCORE:    0.00 PKD
ROOT
HETATM    1 MG   UNL     3      -7.617   5.010  70.406  1.00  0.00    -0.051 Mg 
HETATM    2  O   UNL     4      -6.515   1.887  65.157  1.00  0.00    -0.022 OA 
HETATM    3  C   UNL     4      -6.437   3.105  65.871  1.00  0.00    -0.032 C  
HETATM    4  H   UNL     4      -5.678   1.441  65.091  1.00  0.00     0.000 HD 
HETATM    5  O   UNL     5     -12.800  10.320  72.444  1.00  0.00    -0.364 OA 
HETATM    6  H   UNL     5     -13.592   9.923  72.786  1.00  0.00     0.000 HD 
HETATM    7  C   UNL     5     -12.404   9.731  71.206  1.00  0.00    -0.371 C  
ENDROOT
BRANCH   3   8
HETATM    8  C   UNL     4      -7.789   3.825  65.977  1.00  0.00    -0.090 C  
HETATM    9  O   UNL     4      -8.844   2.935  65.567  1.00  0.00    -0.120 OA 
HETATM   10  H   UNL     4      -9.681   3.380  65.632  1.00  0.00     0.000 HD 
BRANCH   8  11
HETATM   11  C   UNL     4      -8.219   4.415  67.352  1.00  0.00    -0.100 C  
HETATM   12  O   UNL     4      -7.453   5.549  67.742  1.00  0.00    -0.078 OA 
HETATM   13  H   UNL     4      -7.716   5.908  68.581  1.00  0.00     0.000 HD 
BRANCH  11  14
HETATM   14  C   UNL     4      -9.734   4.640  67.606  1.00  0.00    -0.161 C  
HETATM   15  H   UNL     4     -11.128   5.700  66.738  1.00  0.00     0.000 HD 
HETATM   16  O   UNL     4     -10.201   5.562  66.582  1.00  0.00    -0.188 OA 
BRANCH  14  17
HETATM   17  C   UNL     4     -10.232   5.086  69.011  1.00  0.00    -0.137 C  
HETATM   18  C   UNL     4      -9.815   6.574  69.361  1.00  0.00    -0.146 C  
HETATM   19  H   UNL     4     -10.222   4.394  70.886  1.00  0.00     0.000 HD 
HETATM   20  O   UNL     4      -9.918   4.122  70.028  1.00  0.00    -0.213 OA 
HETATM   21  O   UNL     4      -9.868   7.387  68.345  1.00  0.00    -0.151 OA 
HETATM   22  O   UNL     4      -9.392   6.833  70.522  1.00  0.00    -0.162 OA 
ENDBRANCH  14  17
ENDBRANCH  11  14
ENDBRANCH   8  11
ENDBRANCH   3   8
BRANCH   7  23
HETATM   23  C   UNL     5     -11.118  10.375  70.651  1.00  0.00    -0.204 C  
HETATM   24  O   UNL     5     -10.029   9.483  70.893  1.00  0.00    -0.284 OA 
HETATM   25  H   UNL     5      -9.237   9.880  70.551  1.00  0.00     0.000 HD 
BRANCH  23  26
HETATM   26  C   UNL     5     -11.246  10.702  69.147  1.00  0.00    -0.265 C  
HETATM   27  O   UNL     5     -12.636  10.628  68.757  1.00  0.00    -0.733 OA 
HETATM   28  H   UNL     5     -12.715  10.829  67.831  1.00  0.00     0.000 HD 
BRANCH  26  29
HETATM   29  C   UNL     5     -10.612  12.025  68.633  1.00  0.00    -0.229 C  
HETATM   30  O   UNL     5     -11.030  13.168  69.380  1.00  0.00    -0.429 OA 
HETATM   31  H   UNL     5     -10.643  13.977  69.066  1.00  0.00     0.000 HD 
BRANCH  29  32
HETATM   32  C   UNL     5     -10.649  12.300  67.121  1.00  0.00    -0.225 C  
HETATM   33  C   UNL     5      -9.580  13.276  66.585  1.00  0.00    -0.262 C  
HETATM   34  O   UNL     5     -11.991  12.742  66.711  1.00  0.00    -0.399 OA 
HETATM   35  O   UNL     5      -8.446  13.258  67.149  1.00  0.00    -0.201 OA 
HETATM   36  O   UNL     5     -10.014  14.049  65.658  1.00  0.00    -0.311 OA 
HETATM   37  H   UNL     5     -12.014  12.912  65.777  1.00  0.00     0.000 HD 
ENDBRANCH  29  32
ENDBRANCH  26  29
ENDBRANCH  23  26
ENDBRANCH   7  23
TORSDOF 8
ENDMDL
MODEL      419
REMARK 921   NORMALIZED FREE ENERGY PREDICTED BY IDOCK:   -3.54 KCAL/MOL
REMARK 922        TOTAL FREE ENERGY PREDICTED BY IDOCK:   -7.43 KCAL/MOL
REMARK 923 INTER-LIGAND FREE ENERGY PREDICTED BY IDOCK:   -5.24 KCAL/MOL
REMARK 924 INTRA-LIGAND FREE ENERGY PREDICTED BY IDOCK:   -2.19 KCAL/MOL
REMARK 927      BINDING AFFINITY PREDICTED BY RF-SCORE:    0.00 PKD
ROOT
HETATM    1 MG   UNL     3      -7.684   7.548  68.966  1.00  0.00    -0.091 Mg 
HETATM    2  O   UNL     4     -10.719   7.084  74.359  1.00  0.00    -0.482 OA 
HETATM    3  C   UNL     4      -9.737   6.566  73.483  1.00  0.00    -0.179 C  
HETATM    4  H   UNL     4     -10.346   7.546  75.102  1.00  0.00     0.000 HD 
HETATM    5  O   UNL     5      -7.998   3.652  62.337  1.00  0.00    -0.061 OA 
HETATM    6  H   UNL     5      -8.640   4.023  61.743  1.00  0.00     0.000 HD 
HETATM    7  C   UNL     5      -8.539   3.452  63.643  1.00  0.00    -0.090 C  
ENDROOT
BRANCH   3   8
HETATM    8  C   UNL     4     -10.339   5.819  72.284  1.00  0.00    -0.202 C  
HETATM    9  O   UNL     4     -10.673   4.473  72.670  1.00  0.00    -0.200 OA 
HETATM   10  H   UNL     4     -11.046   4.011  71.928  1.00  0.00     0.000 HD 
BRANCH   8  11
HETATM   11  C   UNL     4     -11.604   6.407  71.593  1.00  0.00    -0.310 C  
HETATM   12  O   UNL     4     -12.757   6.397  72.428  1.00  0.00    -0.547 OA 
HETATM   13  H   UNL     4     -13.529   6.756  72.006  1.00  0.00     0.000 HD 
BRANCH  11  14
HETATM   14  C   UNL     4     -11.462   7.757  70.839  1.00  0.00    -0.279 C  
HETATM   15  H   UNL     4     -10.208   8.464  69.518  1.00  0.00     0.000 HD 
HETATM   16  O   UNL     4     -10.296   7.638  69.979  1.00  0.00    -0.212 OA 
BRANCH  14  17
HETATM   17  C   UNL     4     -11.421   9.093  71.634  1.00  0.00    -0.381 C  
HETATM   18  C   UNL     4     -12.749   9.943  71.467  1.00  0.00    -0.415 C  
HETATM   19  H   UNL     4     -10.183  10.642  71.884  1.00  0.00     0.000 HD 
HETATM   20  O   UNL     4     -10.208   9.826  71.398  1.00  0.00    -0.082 OA 
HETATM   21  O   UNL     4     -13.832   9.220  71.430  1.00  0.00    -0.350 OA 
HETATM   22  O   UNL     4     -12.658  11.190  71.297  1.00  0.00    -0.387 OA 
ENDBRANCH  14  17
ENDBRANCH  11  14
ENDBRANCH   8  11
ENDBRANCH   3   8
BRANCH   7  23
HETATM   23  C   UNL     5      -7.496   2.850  64.607  1.00  0.00    -0.075 C  
HETATM   24  O   UNL     5      -6.589   2.052  63.844  1.00  0.00    -0.024 OA 
HETATM   25  H   UNL     5      -5.947   1.681  64.438  1.00  0.00     0.000 HD 
BRANCH  23  26
HETATM   26  C   UNL     5      -6.747   3.947  65.394  1.00  0.00    -0.052 C  
HETATM   27  O   UNL     5      -6.915   5.217  64.725  1.00  0.00    -0.048 OA 
HETATM   28  H   UNL     5      -6.454   5.892  65.209  1.00  0.00     0.000 HD 
BRANCH  26  29
HETATM   29  C   UNL     5      -7.054   4.092  66.911  1.00  0.00    -0.067 C  
HETATM   30  O   UNL     5      -7.260   2.838  67.559  1.00  0.00    -0.052 OA 
HETATM   31  H   UNL     5      -7.447   2.926  68.486  1.00  0.00     0.000 HD 
BRANCH  29  32
HETATM   32  C   UNL     5      -8.114   5.122  67.334  1.00  0.00    -0.100 C  
HETATM   33  C   UNL     5      -9.571   4.791  66.946  1.00  0.00    -0.172 C  
HETATM   34  O   UNL     5      -7.752   6.463  66.847  1.00  0.00    -0.097 OA 
HETATM   35  O   UNL     5      -9.907   3.570  66.951  1.00  0.00    -0.105 OA 
HETATM   36  O   UNL     5     -10.251   5.819  66.593  1.00  0.00    -0.182 OA 
HETATM   37  H   UNL     5      -8.407   7.099  67.108  1.00  0.00     0.000 HD 
ENDBRANCH  29  32
ENDBRANCH  26  29
ENDBRANCH  23  26
ENDBRANCH   7  23
TORSDOF 8
ENDMDL
MODEL      420
REMARK 921   NORMALIZED FREE ENERGY PREDICTED BY IDOCK:   -3.51 KCAL/MOL
REMARK 922        TOTAL FREE ENERGY PREDICTED BY IDOCK:   -7.39 KCAL/MOL
REMARK 923 INTER-LIGAND FREE ENERGY PREDICTED BY IDOCK:   -5.43 KCAL/MOL
REMARK 924 INTRA-LIGAND FREE ENERGY PREDICTED BY IDOCK:   -1.95 KCAL/MOL
REMARK 927      BINDING AFFINITY PREDICTED BY RF-SCORE:    0.00 PKD
ROOT
HETATM    1 MG   UNL     3     -11.331   7.514  72.550  1.00  0.00    -0.231 Mg 
HETATM    2  O   UNL     4     -12.865  13.414  71.384  1.00  0.00    -0.347 OA 
HETATM    3  C   UNL     4     -12.988  12.048  71.037  1.00  0.00    -0.084 C  
HETATM    4  H   UNL     4     -13.632  13.753  71.831  1.00  0.00     0.000 HD 
HETATM    5  O   UNL     5      -6.655   2.458  69.117  1.00  0.00    -0.029 OA 
HETATM    6  H   UNL     5      -5.770   2.513  69.456  1.00  0.00     0.000 HD 
HETATM    7  C   UNL     5      -7.170   3.743  68.768  1.00  0.00    -0.051 C  
ENDROOT
BRANCH   3   8
HETATM    8  C   UNL     4     -11.748  11.499  70.316  1.00  0.00    -0.289 C  
HETATM    9  O   UNL     4     -11.235  10.361  71.033  1.00  0.00    -0.318 OA 
HETATM   10  H   UNL     4     -10.468  10.021  70.586  1.00  0.00     0.000 HD 
BRANCH   8  11
HETATM   11  C   UNL     4     -11.879  11.061  68.828  1.00  0.00    -0.282 C  
HETATM   12  O   UNL     4     -12.142  12.145  67.943  1.00  0.00    -0.502 OA 
HETATM   13  H   UNL     4     -12.222  11.877  67.035  1.00  0.00     0.000 HD 
BRANCH  11  14
HETATM   14  C   UNL     4     -10.796  10.109  68.251  1.00  0.00    -0.252 C  
HETATM   15  H   UNL     4      -8.893   9.830  68.592  1.00  0.00     0.000 HD 
HETATM   16  O   UNL     4      -9.556  10.412  68.945  1.00  0.00    -0.173 OA 
BRANCH  14  17
HETATM   17  C   UNL     4     -10.560  10.037  66.715  1.00  0.00    -0.159 C  
HETATM   18  C   UNL     4      -9.961   8.644  66.255  1.00  0.00    -0.217 C  
HETATM   19  H   UNL     4      -9.707  11.141  65.284  1.00  0.00     0.000 HD 
HETATM   20  O   UNL     4      -9.851  11.185  66.222  1.00  0.00    -0.202 OA 
HETATM   21  O   UNL     4     -10.446   7.625  66.905  1.00  0.00    -0.315 OA 
HETATM   22  O   UNL     4      -9.034   8.630  65.398  1.00  0.00    -0.189 OA 
ENDBRANCH  14  17
ENDBRANCH  11  14
ENDBRANCH   8  11
ENDBRANCH   3   8
BRANCH   7  23
HETATM   23  C   UNL     5      -8.607   3.653  68.217  1.00  0.00    -0.097 C  
HETATM   24  O   UNL     5      -8.996   4.951  67.765  1.00  0.00    -0.106 OA 
HETATM   25  H   UNL     5      -9.881   4.896  67.426  1.00  0.00     0.000 HD 
BRANCH  23  26
HETATM   26  C   UNL     5      -8.720   2.612  67.082  1.00  0.00    -0.119 C  
HETATM   27  O   UNL     5      -9.884   1.784  67.305  1.00  0.00    -0.342 OA 
HETATM   28  H   UNL     5      -9.953   1.143  66.607  1.00  0.00     0.000 HD 
BRANCH  26  29
HETATM   29  C   UNL     5      -8.699   3.128  65.616  1.00  0.00    -0.126 C  
HETATM   30  O   UNL     5      -7.633   4.043  65.365  1.00  0.00    -0.080 OA 
HETATM   31  H   UNL     5      -7.620   4.359  64.468  1.00  0.00     0.000 HD 
BRANCH  29  32
HETATM   32  C   UNL     5     -10.021   3.628  65.011  1.00  0.00    -0.110 C  
HETATM   33  C   UNL     5     -10.278   3.246  63.539  1.00  0.00    -0.199 C  
HETATM   34  O   UNL     5     -10.149   5.084  65.188  1.00  0.00    -0.388 OA 
HETATM   35  O   UNL     5      -9.846   2.121  63.150  1.00  0.00    -0.098 OA 
HETATM   36  O   UNL     5     -10.852   4.174  62.864  1.00  0.00    -0.129 OA 
HETATM   37  H   UNL     5     -10.966   5.393  64.815  1.00  0.00     0.000 HD 
ENDBRANCH  29  32
ENDBRANCH  26  29
ENDBRANCH  23  26
ENDBRANCH   7  23
TORSDOF 8
ENDMDL
MODEL      421
REMARK 921   NORMALIZED FREE ENERGY PREDICTED BY IDOCK:   -3.50 KCAL/MOL
REMARK 922        TOTAL FREE ENERGY PREDICTED BY IDOCK:   -7.38 KCAL/MOL
REMARK 923 INTER-LIGAND FREE ENERGY PREDICTED BY IDOCK:   -7.45 KCAL/MOL
REMARK 924 INTRA-LIGAND FREE ENERGY PREDICTED BY IDOCK:    0.07 KCAL/MOL
REMARK 927      BINDING AFFINITY PREDICTED BY RF-SCORE:    0.00 PKD
ROOT
HETATM    1 MG   UNL     3     -13.647  10.205  72.324  1.00  0.00    -0.364 Mg 
HETATM    2  O   UNL     4     -12.604  16.276  71.573  1.00  0.00    -0.535 OA 
HETATM    3  C   UNL     4     -13.022  15.049  71.008  1.00  0.00    -0.404 C  
HETATM    4  H   UNL     4     -13.328  16.862  71.763  1.00  0.00     0.000 HD 
HETATM    5  O   UNL     5      -9.933   3.854  70.069  1.00  0.00    -0.159 OA 
HETATM    6  H   UNL     5      -9.280   3.585  70.705  1.00  0.00     0.000 HD 
HETATM    7  C   UNL     5      -9.825   5.242  69.754  1.00  0.00    -0.211 C  
ENDROOT
BRANCH   3   8
HETATM    8  C   UNL     4     -11.852  14.102  70.701  1.00  0.00    -0.263 C  
HETATM    9  O   UNL     4     -12.247  12.743  70.966  1.00  0.00    -0.401 OA 
HETATM   10  H   UNL     4     -11.523  12.158  70.776  1.00  0.00     0.000 HD 
BRANCH   8  11
HETATM   11  C   UNL     4     -11.234  14.112  69.272  1.00  0.00    -0.269 C  
HETATM   12  O   UNL     4     -12.048  13.460  68.303  1.00  0.00    -0.343 OA 
HETATM   13  H   UNL     4     -11.670  13.466  67.431  1.00  0.00     0.000 HD 
BRANCH  11  14
HETATM   14  C   UNL     4     -10.674  15.455  68.730  1.00  0.00    -0.241 C  
HETATM   15  H   UNL     4     -11.468  17.162  68.211  1.00  0.00     0.000 HD 
HETATM   16  O   UNL     4     -11.811  16.341  68.542  1.00  0.00    -0.236 OA 
BRANCH  14  17
HETATM   17  C   UNL     4      -9.758  15.467  67.473  1.00  0.00    -0.208 C  
HETATM   18  C   UNL     4     -10.453  14.818  66.206  1.00  0.00    -0.296 C  
HETATM   19  H   UNL     4      -7.882  14.972  66.990  1.00  0.00     0.000 HD 
HETATM   20  O   UNL     4      -8.442  14.965  67.757  1.00  0.00    -0.142 OA 
HETATM   21  O   UNL     4     -11.723  15.088  66.109  1.00  0.00    -0.242 OA 
HETATM   22  O   UNL     4      -9.779  14.047  65.468  1.00  0.00    -0.226 OA 
ENDBRANCH  14  17
ENDBRANCH  11  14
ENDBRANCH   8  11
ENDBRANCH   3   8
BRANCH   7  23
HETATM   23  C   UNL     5     -10.885   5.677  68.722  1.00  0.00    -0.140 C  
HETATM   24  O   UNL     5     -11.806   6.557  69.370  1.00  0.00    -0.636 OA 
HETATM   25  H   UNL     5     -12.458   6.825  68.734  1.00  0.00     0.000 HD 
BRANCH  23  26
HETATM   26  C   UNL     5     -10.240   6.354  67.492  1.00  0.00    -0.170 C  
HETATM   27  O   UNL     5     -11.108   6.193  66.347  1.00  0.00    -0.697 OA 
HETATM   28  H   UNL     5     -10.711   6.609  65.591  1.00  0.00     0.000 HD 
BRANCH  26  29
HETATM   29  C   UNL     5      -9.796   7.837  67.627  1.00  0.00    -0.163 C  
HETATM   30  O   UNL     5      -8.465   8.063  67.165  1.00  0.00    -0.121 OA 
HETATM   31  H   UNL     5      -8.194   8.970  67.247  1.00  0.00     0.000 HD 
BRANCH  29  32
HETATM   32  C   UNL     5     -10.051   8.544  68.968  1.00  0.00    -0.199 C  
HETATM   33  C   UNL     5     -10.661   9.959  68.881  1.00  0.00    -0.221 C  
HETATM   34  O   UNL     5      -8.821   8.571  69.777  1.00  0.00    -0.134 OA 
HETATM   35  O   UNL     5     -11.480  10.178  67.940  1.00  0.00    -0.283 OA 
HETATM   36  O   UNL     5     -10.195  10.771  69.758  1.00  0.00    -0.144 OA 
HETATM   37  H   UNL     5      -8.978   9.008  70.605  1.00  0.00     0.000 HD 
ENDBRANCH  29  32
ENDBRANCH  26  29
ENDBRANCH  23  26
ENDBRANCH   7  23
TORSDOF 8
ENDMDL
MODEL      422
REMARK 921   NORMALIZED FREE ENERGY PREDICTED BY IDOCK:   -3.49 KCAL/MOL
REMARK 922        TOTAL FREE ENERGY PREDICTED BY IDOCK:   -7.37 KCAL/MOL
REMARK 923 INTER-LIGAND FREE ENERGY PREDICTED BY IDOCK:   -6.54 KCAL/MOL
REMARK 924 INTRA-LIGAND FREE ENERGY PREDICTED BY IDOCK:   -0.83 KCAL/MOL
REMARK 927      BINDING AFFINITY PREDICTED BY RF-SCORE:    0.00 PKD
ROOT
HETATM    1 MG   UNL     3     -11.383  14.294  71.610  1.00  0.00    -0.420 Mg 
HETATM    2  O   UNL     4     -10.614  18.522  67.133  1.00  0.00    -0.402 OA 
HETATM    3  C   UNL     4     -11.202  17.305  67.550  1.00  0.00     0.205 C  
HETATM    4  H   UNL     4     -11.230  19.245  67.116  1.00  0.00     0.000 HD 
HETATM    5  O   UNL     5      -8.661   7.185  72.733  1.00  0.00    -0.113 OA 
HETATM    6  H   UNL     5      -7.836   7.196  73.205  1.00  0.00     0.000 HD 
HETATM    7  C   UNL     5      -8.656   8.097  71.636  1.00  0.00    -0.140 C  
ENDROOT
BRANCH   3   8
HETATM    8  C   UNL     4     -10.205  16.138  67.578  1.00  0.00    -0.267 C  
HETATM    9  O   UNL     4      -9.403  16.214  68.772  1.00  0.00    -0.207 OA 
HETATM   10  H   UNL     4      -8.786  15.491  68.789  1.00  0.00     0.000 HD 
BRANCH   8  11
HETATM   11  C   UNL     4     -10.752  14.682  67.506  1.00  0.00    -0.268 C  
HETATM   12  O   UNL     4     -12.139  14.587  67.812  1.00  0.00    -0.553 OA 
HETATM   13  H   UNL     4     -12.472  13.698  67.767  1.00  0.00     0.000 HD 
BRANCH  11  14
HETATM   14  C   UNL     4     -10.385  13.826  66.263  1.00  0.00    -0.294 C  
HETATM   15  H   UNL     4      -8.910  13.830  64.982  1.00  0.00     0.000 HD 
HETATM   16  O   UNL     4      -9.134  14.354  65.743  1.00  0.00     0.036 OA 
BRANCH  14  17
HETATM   17  C   UNL     4     -11.418  13.635  65.116  1.00  0.00    -0.316 C  
HETATM   18  C   UNL     4     -11.800  14.999  64.405  1.00  0.00    -0.339 C  
HETATM   19  H   UNL     4     -13.172  12.722  64.824  1.00  0.00     0.000 HD 
HETATM   20  O   UNL     4     -12.541  12.839  65.525  1.00  0.00    -0.611 OA 
HETATM   21  O   UNL     4     -10.796  15.819  64.271  1.00  0.00    -0.296 OA 
HETATM   22  O   UNL     4     -13.008  15.221  64.118  1.00  0.00    -0.436 OA 
ENDBRANCH  14  17
ENDBRANCH  11  14
ENDBRANCH   8  11
ENDBRANCH   3   8
BRANCH   7  23
HETATM   23  C   UNL     5      -9.994   8.079  70.871  1.00  0.00    -0.186 C  
HETATM   24  O   UNL     5      -9.846   8.866  69.688  1.00  0.00    -0.173 OA 
HETATM   25  H   UNL     5     -10.670   8.855  69.217  1.00  0.00     0.000 HD 
BRANCH  23  26
HETATM   26  C   UNL     5     -10.437   6.639  70.529  1.00  0.00    -0.203 C  
HETATM   27  O   UNL     5     -11.831   6.645  70.145  1.00  0.00    -0.553 OA 
HETATM   28  H   UNL     5     -12.104   5.760  69.935  1.00  0.00     0.000 HD 
BRANCH  26  29
HETATM   29  C   UNL     5      -9.596   5.847  69.489  1.00  0.00    -0.140 C  
HETATM   30  O   UNL     5      -8.211   6.187  69.520  1.00  0.00    -0.113 OA 
HETATM   31  H   UNL     5      -7.696   5.703  68.884  1.00  0.00     0.000 HD 
BRANCH  29  32
HETATM   32  C   UNL     5     -10.122   5.772  68.046  1.00  0.00    -0.161 C  
HETATM   33  C   UNL     5      -9.230   5.016  67.039  1.00  0.00    -0.120 C  
HETATM   34  O   UNL     5     -10.429   7.120  67.540  1.00  0.00    -0.208 OA 
HETATM   35  O   UNL     5      -8.580   4.021  67.478  1.00  0.00    -0.098 OA 
HETATM   36  O   UNL     5      -9.210   5.550  65.874  1.00  0.00    -0.160 OA 
HETATM   37  H   UNL     5     -10.754   7.074  66.649  1.00  0.00     0.000 HD 
ENDBRANCH  29  32
ENDBRANCH  26  29
ENDBRANCH  23  26
ENDBRANCH   7  23
TORSDOF 8
ENDMDL
MODEL      423
REMARK 921   NORMALIZED FREE ENERGY PREDICTED BY IDOCK:   -3.48 KCAL/MOL
REMARK 922        TOTAL FREE ENERGY PREDICTED BY IDOCK:   -7.35 KCAL/MOL
REMARK 923 INTER-LIGAND FREE ENERGY PREDICTED BY IDOCK:   -6.70 KCAL/MOL
REMARK 924 INTRA-LIGAND FREE ENERGY PREDICTED BY IDOCK:   -0.65 KCAL/MOL
REMARK 927      BINDING AFFINITY PREDICTED BY RF-SCORE:    0.00 PKD
ROOT
HETATM    1 MG   UNL     3      -5.836  10.965  71.014  1.00  0.00    -0.089 Mg 
HETATM    2  O   UNL     4      -5.237  16.875  69.218  1.00  0.00    -0.129 OA 
HETATM    3  C   UNL     4      -6.023  15.884  69.850  1.00  0.00    -0.170 C  
HETATM    4  H   UNL     4      -4.825  17.471  69.833  1.00  0.00     0.000 HD 
HETATM    5  O   UNL     5      -9.980   5.018  68.430  1.00  0.00    -0.160 OA 
HETATM    6  H   UNL     5      -9.511   4.527  67.766  1.00  0.00     0.000 HD 
HETATM    7  C   UNL     5      -9.965   6.419  68.162  1.00  0.00    -0.136 C  
ENDROOT
BRANCH   3   8
HETATM    8  C   UNL     4      -6.688  14.922  68.854  1.00  0.00    -0.100 C  
HETATM    9  O   UNL     4      -7.394  13.894  69.573  1.00  0.00    -0.325 OA 
HETATM   10  H   UNL     4      -7.805  13.298  68.957  1.00  0.00     0.000 HD 
BRANCH   8  11
HETATM   11  C   UNL     4      -7.689  15.497  67.810  1.00  0.00    -0.140 C  
HETATM   12  O   UNL     4      -8.832  14.672  67.613  1.00  0.00    -0.169 OA 
HETATM   13  H   UNL     4      -9.443  15.024  66.975  1.00  0.00     0.000 HD 
BRANCH  11  14
HETATM   14  C   UNL     4      -8.084  16.994  67.927  1.00  0.00    -0.195 C  
HETATM   15  H   UNL     4      -9.752  17.992  67.726  1.00  0.00     0.000 HD 
HETATM   16  O   UNL     4      -9.510  17.076  67.654  1.00  0.00    -0.232 OA 
BRANCH  14  17
HETATM   17  C   UNL     4      -7.309  18.072  67.116  1.00  0.00    -0.195 C  
HETATM   18  C   UNL     4      -7.632  19.547  67.596  1.00  0.00    -0.266 C  
HETATM   19  H   UNL     4      -6.947  18.523  65.203  1.00  0.00     0.000 HD 
HETATM   20  O   UNL     4      -7.421  17.866  65.699  1.00  0.00    -0.544 OA 
HETATM   21  O   UNL     4      -7.777  19.658  68.885  1.00  0.00    -0.350 OA 
HETATM   22  O   UNL     4      -7.809  20.446  66.729  1.00  0.00    -0.302 OA 
ENDBRANCH  14  17
ENDBRANCH  11  14
ENDBRANCH   8  11
ENDBRANCH   3   8
BRANCH   7  23
HETATM   23  C   UNL     5     -10.726   7.216  69.241  1.00  0.00    -0.215 C  
HETATM   24  O   UNL     5     -10.817   6.407  70.414  1.00  0.00    -0.243 OA 
HETATM   25  H   UNL     5     -11.286   6.898  71.079  1.00  0.00     0.000 HD 
BRANCH  23  26
HETATM   26  C   UNL     5     -10.037   8.564  69.547  1.00  0.00    -0.200 C  
HETATM   27  O   UNL     5     -10.095   9.409  68.375  1.00  0.00    -0.171 OA 
HETATM   28  H   UNL     5      -9.671  10.238  68.563  1.00  0.00     0.000 HD 
BRANCH  26  29
HETATM   29  C   UNL     5     -10.506   9.352  70.802  1.00  0.00    -0.304 C  
HETATM   30  O   UNL     5      -9.772   9.012  71.978  1.00  0.00    -0.290 OA 
HETATM   31  H   UNL     5     -10.058   9.493  72.745  1.00  0.00     0.000 HD 
BRANCH  29  32
HETATM   32  C   UNL     5     -12.015   9.422  71.084  1.00  0.00    -0.337 C  
HETATM   33  C   UNL     5     -12.592  10.831  71.335  1.00  0.00    -0.410 C  
HETATM   34  O   UNL     5     -12.373   8.523  72.194  1.00  0.00    -0.338 OA 
HETATM   35  O   UNL     5     -12.072  11.791  70.691  1.00  0.00    -0.368 OA 
HETATM   36  O   UNL     5     -13.502  10.857  72.238  1.00  0.00    -0.324 OA 
HETATM   37  H   UNL     5     -13.305   8.566  72.369  1.00  0.00     0.000 HD 
ENDBRANCH  29  32
ENDBRANCH  26  29
ENDBRANCH  23  26
ENDBRANCH   7  23
TORSDOF 8
ENDMDL
MODEL      424
REMARK 921   NORMALIZED FREE ENERGY PREDICTED BY IDOCK:   -3.48 KCAL/MOL
REMARK 922        TOTAL FREE ENERGY PREDICTED BY IDOCK:   -7.35 KCAL/MOL
REMARK 923 INTER-LIGAND FREE ENERGY PREDICTED BY IDOCK:   -7.01 KCAL/MOL
REMARK 924 INTRA-LIGAND FREE ENERGY PREDICTED BY IDOCK:   -0.34 KCAL/MOL
REMARK 927      BINDING AFFINITY PREDICTED BY RF-SCORE:    0.00 PKD
ROOT
HETATM    1 MG   UNL     3     -11.364  14.319  71.954  1.00  0.00    -0.401 Mg 
HETATM    2  O   UNL     4     -10.089  19.007  68.093  1.00  0.00    -0.356 OA 
HETATM    3  C   UNL     4     -10.744  17.773  68.311  1.00  0.00    -0.247 C  
HETATM    4  H   UNL     4     -10.682  19.750  68.110  1.00  0.00     0.000 HD 
HETATM    5  O   UNL     5      -8.945   7.031  72.450  1.00  0.00    -0.129 OA 
HETATM    6  H   UNL     5      -8.165   6.957  72.986  1.00  0.00     0.000 HD 
HETATM    7  C   UNL     5      -8.818   8.064  71.472  1.00  0.00    -0.143 C  
ENDROOT
BRANCH   3   8
HETATM    8  C   UNL     4      -9.785  16.573  68.283  1.00  0.00    -0.231 C  
HETATM    9  O   UNL     4     -10.531  15.354  68.460  1.00  0.00    -0.226 OA 
HETATM   10  H   UNL     4      -9.937  14.612  68.443  1.00  0.00     0.000 HD 
BRANCH   8  11
HETATM   11  C   UNL     4      -8.884  16.362  67.032  1.00  0.00    -0.199 C  
HETATM   12  O   UNL     4      -9.438  16.909  65.840  1.00  0.00    -0.478 OA 
HETATM   13  H   UNL     4      -8.887  16.780  65.077  1.00  0.00     0.000 HD 
BRANCH  11  14
HETATM   14  C   UNL     4      -7.372  16.695  67.159  1.00  0.00    -0.185 C  
HETATM   15  H   UNL     4      -6.065  16.604  68.608  1.00  0.00     0.000 HD 
HETATM   16  O   UNL     4      -6.990  16.400  68.531  1.00  0.00    -0.142 OA 
BRANCH  14  17
HETATM   17  C   UNL     4      -6.843  18.094  66.732  1.00  0.00    -0.194 C  
HETATM   18  C   UNL     4      -7.198  19.227  67.783  1.00  0.00    -0.245 C  
HETATM   19  H   UNL     4      -6.860  19.265  65.112  1.00  0.00     0.000 HD 
HETATM   20  O   UNL     4      -7.184  18.410  65.373  1.00  0.00    -0.534 OA 
HETATM   21  O   UNL     4      -7.123  18.834  69.022  1.00  0.00    -0.306 OA 
HETATM   22  O   UNL     4      -7.597  20.347  67.361  1.00  0.00    -0.298 OA 
ENDBRANCH  14  17
ENDBRANCH  11  14
ENDBRANCH   8  11
ENDBRANCH   3   8
BRANCH   7  23
HETATM   23  C   UNL     5     -10.085   8.184  70.601  1.00  0.00    -0.194 C  
HETATM   24  O   UNL     5      -9.684   8.525  69.273  1.00  0.00    -0.169 OA 
HETATM   25  H   UNL     5     -10.464   8.600  68.736  1.00  0.00     0.000 HD 
BRANCH  23  26
HETATM   26  C   UNL     5     -10.914   6.882  70.615  1.00  0.00    -0.264 C  
HETATM   27  O   UNL     5     -12.308   7.199  70.400  1.00  0.00    -0.589 OA 
HETATM   28  H   UNL     5     -12.818   6.397  70.409  1.00  0.00     0.000 HD 
BRANCH  26  29
HETATM   29  C   UNL     5     -10.473   5.728  69.671  1.00  0.00    -0.293 C  
HETATM   30  O   UNL     5      -9.092   5.396  69.808  1.00  0.00    -0.123 OA 
HETATM   31  H   UNL     5      -8.822   4.691  69.231  1.00  0.00     0.000 HD 
BRANCH  29  32
HETATM   32  C   UNL     5     -10.885   5.812  68.193  1.00  0.00    -0.162 C  
HETATM   33  C   UNL     5      -9.855   5.285  67.172  1.00  0.00    -0.164 C  
HETATM   34  O   UNL     5     -11.285   7.186  67.847  1.00  0.00    -0.512 OA 
HETATM   35  O   UNL     5      -9.144   4.298  67.526  1.00  0.00    -0.118 OA 
HETATM   36  O   UNL     5      -9.803   5.978  66.094  1.00  0.00    -0.102 OA 
HETATM   37  H   UNL     5     -11.540   7.238  66.934  1.00  0.00     0.000 HD 
ENDBRANCH  29  32
ENDBRANCH  26  29
ENDBRANCH  23  26
ENDBRANCH   7  23
TORSDOF 8
ENDMDL
MODEL      425
REMARK 921   NORMALIZED FREE ENERGY PREDICTED BY IDOCK:   -3.47 KCAL/MOL
REMARK 922        TOTAL FREE ENERGY PREDICTED BY IDOCK:   -7.34 KCAL/MOL
REMARK 923 INTER-LIGAND FREE ENERGY PREDICTED BY IDOCK:   -5.23 KCAL/MOL
REMARK 924 INTRA-LIGAND FREE ENERGY PREDICTED BY IDOCK:   -2.11 KCAL/MOL
REMARK 927      BINDING AFFINITY PREDICTED BY RF-SCORE:    0.00 PKD
ROOT
HETATM    1 MG   UNL     3     -11.344  10.613  66.681  1.00  0.00    -0.259 Mg 
HETATM    2  O   UNL     4     -13.453  12.304  72.267  1.00  0.00    -0.573 OA 
HETATM    3  C   UNL     4     -12.414  11.733  71.496  1.00  0.00    -0.103 C  
HETATM    4  H   UNL     4     -13.263  13.192  72.546  1.00  0.00     0.000 HD 
HETATM    5  O   UNL     5     -10.441   3.826  63.170  1.00  0.00    -0.199 OA 
HETATM    6  H   UNL     5     -11.224   3.569  62.696  1.00  0.00     0.000 HD 
HETATM    7  C   UNL     5     -10.739   4.230  64.506  1.00  0.00    -0.070 C  
ENDROOT
BRANCH   3   8
HETATM    8  C   UNL     4     -12.722  10.298  71.045  1.00  0.00    -0.396 C  
HETATM    9  O   UNL     4     -13.720  10.320  70.008  1.00  0.00    -0.261 OA 
HETATM   10  H   UNL     4     -13.911   9.432  69.730  1.00  0.00     0.000 HD 
BRANCH   8  11
HETATM   11  C   UNL     4     -11.557   9.411  70.517  1.00  0.00    -0.235 C  
HETATM   12  O   UNL     4     -10.268   9.945  70.803  1.00  0.00    -0.340 OA 
HETATM   13  H   UNL     4      -9.558   9.404  70.481  1.00  0.00     0.000 HD 
BRANCH  11  14
HETATM   14  C   UNL     4     -11.614   7.886  70.803  1.00  0.00    -0.247 C  
HETATM   15  H   UNL     4     -13.042   6.626  71.239  1.00  0.00     0.000 HD 
HETATM   16  O   UNL     4     -13.006   7.559  71.064  1.00  0.00    -0.234 OA 
BRANCH  14  17
HETATM   17  C   UNL     4     -10.693   7.261  71.890  1.00  0.00    -0.215 C  
HETATM   18  C   UNL     4     -10.610   5.682  71.785  1.00  0.00    -0.238 C  
HETATM   19  H   UNL     4     -10.428   7.377  73.868  1.00  0.00     0.000 HD 
HETATM   20  O   UNL     4     -10.991   7.759  73.204  1.00  0.00    -0.396 OA 
HETATM   21  O   UNL     4     -10.595   5.239  70.560  1.00  0.00    -0.262 OA 
HETATM   22  O   UNL     4     -10.656   4.996  72.843  1.00  0.00    -0.200 OA 
ENDBRANCH  14  17
ENDBRANCH  11  14
ENDBRANCH   8  11
ENDBRANCH   3   8
BRANCH   7  23
HETATM   23  C   UNL     5      -9.469   4.646  65.274  1.00  0.00    -0.158 C  
HETATM   24  O   UNL     5      -8.685   5.485  64.423  1.00  0.00    -0.307 OA 
HETATM   25  H   UNL     5      -7.903   5.742  64.897  1.00  0.00     0.000 HD 
BRANCH  23  26
HETATM   26  C   UNL     5      -9.811   5.361  66.599  1.00  0.00    -0.174 C  
HETATM   27  O   UNL     5     -10.489   4.437  67.481  1.00  0.00     0.087 OA 
HETATM   28  H   UNL     5     -10.700   4.877  68.296  1.00  0.00     0.000 HD 
BRANCH  26  29
HETATM   29  C   UNL     5      -8.660   6.081  67.356  1.00  0.00    -0.102 C  
HETATM   30  O   UNL     5      -8.191   7.245  66.677  1.00  0.00    -0.113 OA 
HETATM   31  H   UNL     5      -7.488   7.686  67.139  1.00  0.00     0.000 HD 
BRANCH  29  32
HETATM   32  C   UNL     5      -7.492   5.224  67.870  1.00  0.00    -0.076 C  
HETATM   33  C   UNL     5      -6.371   4.928  66.852  1.00  0.00    -0.036 C  
HETATM   34  O   UNL     5      -7.992   3.969  68.453  1.00  0.00    -0.072 OA 
HETATM   35  O   UNL     5      -6.104   5.833  66.007  1.00  0.00    -0.027 OA 
HETATM   36  O   UNL     5      -5.888   3.744  66.955  1.00  0.00    -0.022 OA 
HETATM   37  H   UNL     5      -7.271   3.439  68.771  1.00  0.00     0.000 HD 
ENDBRANCH  29  32
ENDBRANCH  26  29
ENDBRANCH  23  26
ENDBRANCH   7  23
TORSDOF 8
ENDMDL
MODEL      426
REMARK 921   NORMALIZED FREE ENERGY PREDICTED BY IDOCK:   -3.46 KCAL/MOL
REMARK 922        TOTAL FREE ENERGY PREDICTED BY IDOCK:   -7.32 KCAL/MOL
REMARK 923 INTER-LIGAND FREE ENERGY PREDICTED BY IDOCK:   -4.96 KCAL/MOL
REMARK 924 INTRA-LIGAND FREE ENERGY PREDICTED BY IDOCK:   -2.36 KCAL/MOL
REMARK 927      BINDING AFFINITY PREDICTED BY RF-SCORE:    0.00 PKD
ROOT
HETATM    1 MG   UNL     3     -10.084   2.415  68.804  1.00  0.00    -0.154 Mg 
HETATM    2  O   UNL     4     -11.140   2.729  62.696  1.00  0.00    -0.177 OA 
HETATM    3  C   UNL     4     -10.232   2.886  63.770  1.00  0.00    -0.176 C  
HETATM    4  H   UNL     4     -10.986   1.938  62.193  1.00  0.00     0.000 HD 
HETATM    5  O   UNL     5      -9.257   7.700  74.335  1.00  0.00    -0.427 OA 
HETATM    6  H   UNL     5     -10.092   7.932  74.725  1.00  0.00     0.000 HD 
HETATM    7  C   UNL     5      -9.309   7.742  72.909  1.00  0.00    -0.219 C  
ENDROOT
BRANCH   3   8
HETATM    8  C   UNL     4     -10.482   4.165  64.582  1.00  0.00    -0.168 C  
HETATM    9  O   UNL     4     -11.898   4.359  64.756  1.00  0.00    -0.805 OA 
HETATM   10  H   UNL     4     -12.052   5.151  65.259  1.00  0.00     0.000 HD 
BRANCH   8  11
HETATM   11  C   UNL     4      -9.841   4.294  65.995  1.00  0.00    -0.222 C  
HETATM   12  O   UNL     4      -9.831   3.070  66.721  1.00  0.00    -0.390 OA 
HETATM   13  H   UNL     4      -9.440   3.148  67.584  1.00  0.00     0.000 HD 
BRANCH  11  14
HETATM   14  C   UNL     4      -8.482   5.035  66.114  1.00  0.00    -0.114 C  
HETATM   15  H   UNL     4      -7.953   6.902  66.341  1.00  0.00     0.000 HD 
HETATM   16  O   UNL     4      -8.785   6.448  66.268  1.00  0.00    -0.133 OA 
BRANCH  14  17
HETATM   17  C   UNL     4      -7.382   4.825  65.034  1.00  0.00    -0.072 C  
HETATM   18  C   UNL     4      -6.419   3.613  65.371  1.00  0.00    -0.032 C  
HETATM   19  H   UNL     4      -6.037   5.922  64.043  1.00  0.00     0.000 HD 
HETATM   20  O   UNL     4      -6.709   6.050  64.703  1.00  0.00    -0.044 OA 
HETATM   21  O   UNL     4      -7.027   2.595  65.911  1.00  0.00    -0.049 OA 
HETATM   22  O   UNL     4      -5.178   3.749  65.186  1.00  0.00    -0.008 OA 
ENDBRANCH  14  17
ENDBRANCH  11  14
ENDBRANCH   8  11
ENDBRANCH   3   8
BRANCH   7  23
HETATM   23  C   UNL     5      -7.954   7.365  72.277  1.00  0.00    -0.100 C  
HETATM   24  O   UNL     5      -6.938   7.520  73.269  1.00  0.00    -0.065 OA 
HETATM   25  H   UNL     5      -6.103   7.287  72.879  1.00  0.00     0.000 HD 
BRANCH  23  26
HETATM   26  C   UNL     5      -7.968   5.927  71.714  1.00  0.00    -0.111 C  
HETATM   27  O   UNL     5      -9.028   5.174  72.347  1.00  0.00    -0.130 OA 
HETATM   28  H   UNL     5      -9.036   4.290  72.001  1.00  0.00     0.000 HD 
BRANCH  26  29
HETATM   29  C   UNL     5      -8.030   5.750  70.171  1.00  0.00    -0.100 C  
HETATM   30  O   UNL     5      -7.338   6.779  69.466  1.00  0.00    -0.086 OA 
HETATM   31  H   UNL     5      -7.375   6.671  68.522  1.00  0.00     0.000 HD 
BRANCH  29  32
HETATM   32  C   UNL     5      -9.399   5.458  69.535  1.00  0.00    -0.124 C  
HETATM   33  C   UNL     5     -10.422   6.613  69.573  1.00  0.00    -0.218 C  
HETATM   34  O   UNL     5      -9.987   4.241  70.117  1.00  0.00    -0.220 OA 
HETATM   35  O   UNL     5      -9.967   7.791  69.468  1.00  0.00    -0.180 OA 
HETATM   36  O   UNL     5     -11.626   6.222  69.779  1.00  0.00    -0.436 OA 
HETATM   37  H   UNL     5     -10.833   4.060  69.724  1.00  0.00     0.000 HD 
ENDBRANCH  29  32
ENDBRANCH  26  29
ENDBRANCH  23  26
ENDBRANCH   7  23
TORSDOF 8
ENDMDL
MODEL      427
REMARK 921   NORMALIZED FREE ENERGY PREDICTED BY IDOCK:   -3.45 KCAL/MOL
REMARK 922        TOTAL FREE ENERGY PREDICTED BY IDOCK:   -7.31 KCAL/MOL
REMARK 923 INTER-LIGAND FREE ENERGY PREDICTED BY IDOCK:   -5.98 KCAL/MOL
REMARK 924 INTRA-LIGAND FREE ENERGY PREDICTED BY IDOCK:   -1.33 KCAL/MOL
REMARK 927      BINDING AFFINITY PREDICTED BY RF-SCORE:    0.00 PKD
ROOT
HETATM    1 MG   UNL     3      -9.253  13.473  64.340  1.00  0.00    -0.512 Mg 
HETATM    2  O   UNL     4      -7.546  19.302  65.616  1.00  0.00    -0.443 OA 
HETATM    3  C   UNL     4      -7.206  17.929  65.582  1.00  0.00    -0.013 C  
HETATM    4  H   UNL     4      -7.154  19.799  64.907  1.00  0.00     0.000 HD 
HETATM    5  O   UNL     5     -11.156   7.417  68.689  1.00  0.00    -0.435 OA 
HETATM    6  H   UNL     5     -12.086   7.403  68.882  1.00  0.00     0.000 HD 
HETATM    7  C   UNL     5     -10.581   8.697  68.952  1.00  0.00    -0.144 C  
ENDROOT
BRANCH   3   8
HETATM    8  C   UNL     4      -7.841  17.127  66.728  1.00  0.00    -0.242 C  
HETATM    9  O   UNL     4      -7.505  17.736  67.989  1.00  0.00    -0.214 OA 
HETATM   10  H   UNL     4      -7.897  17.239  68.698  1.00  0.00     0.000 HD 
BRANCH   8  11
HETATM   11  C   UNL     4      -9.384  16.922  66.735  1.00  0.00    -0.251 C  
HETATM   12  O   UNL     4     -10.112  18.115  66.464  1.00  0.00    -0.345 OA 
HETATM   13  H   UNL     4     -11.053  17.990  66.468  1.00  0.00     0.000 HD 
BRANCH  11  14
HETATM   14  C   UNL     4      -9.962  15.715  65.948  1.00  0.00    -0.351 C  
HETATM   15  H   UNL     4     -11.185  15.522  64.436  1.00  0.00     0.000 HD 
HETATM   16  O   UNL     4     -10.831  16.261  64.918  1.00  0.00    -0.625 OA 
BRANCH  14  17
HETATM   17  C   UNL     4     -10.673  14.558  66.706  1.00  0.00    -0.291 C  
HETATM   18  C   UNL     4     -11.219  15.004  68.126  1.00  0.00    -0.308 C  
HETATM   19  H   UNL     4     -10.322  12.648  67.181  1.00  0.00     0.000 HD 
HETATM   20  O   UNL     4      -9.888  13.355  66.718  1.00  0.00    -0.250 OA 
HETATM   21  O   UNL     4     -11.705  16.212  68.144  1.00  0.00    -0.228 OA 
HETATM   22  O   UNL     4     -11.067  14.228  69.109  1.00  0.00    -0.248 OA 
ENDBRANCH  14  17
ENDBRANCH  11  14
ENDBRANCH   8  11
ENDBRANCH   3   8
BRANCH   7  23
HETATM   23  C   UNL     5      -9.071   8.721  68.639  1.00  0.00    -0.141 C  
HETATM   24  O   UNL     5      -8.662  10.084  68.511  1.00  0.00    -0.118 OA 
HETATM   25  H   UNL     5      -7.732  10.098  68.319  1.00  0.00     0.000 HD 
BRANCH  23  26
HETATM   26  C   UNL     5      -8.251   7.994  69.727  1.00  0.00    -0.120 C  
HETATM   27  O   UNL     5      -7.727   6.759  69.187  1.00  0.00    -0.101 OA 
HETATM   28  H   UNL     5      -7.223   6.312  69.857  1.00  0.00     0.000 HD 
BRANCH  26  29
HETATM   29  C   UNL     5      -7.124   8.789  70.443  1.00  0.00    -0.048 C  
HETATM   30  O   UNL     5      -5.971   8.978  69.623  1.00  0.00    -0.032 OA 
HETATM   31  H   UNL     5      -5.282   9.464  70.060  1.00  0.00     0.000 HD 
BRANCH  29  32
HETATM   32  C   UNL     5      -6.735   8.362  71.867  1.00  0.00    -0.081 C  
HETATM   33  C   UNL     5      -6.092   6.966  72.003  1.00  0.00    -0.038 C  
HETATM   34  O   UNL     5      -7.890   8.479  72.773  1.00  0.00    -0.309 OA 
HETATM   35  O   UNL     5      -5.350   6.577  71.052  1.00  0.00    -0.021 OA 
HETATM   36  O   UNL     5      -6.458   6.336  73.058  1.00  0.00    -0.065 OA 
HETATM   37  H   UNL     5      -7.650   8.215  73.653  1.00  0.00     0.000 HD 
ENDBRANCH  29  32
ENDBRANCH  26  29
ENDBRANCH  23  26
ENDBRANCH   7  23
TORSDOF 8
ENDMDL
MODEL      428
REMARK 921   NORMALIZED FREE ENERGY PREDICTED BY IDOCK:   -3.44 KCAL/MOL
REMARK 922        TOTAL FREE ENERGY PREDICTED BY IDOCK:   -7.29 KCAL/MOL
REMARK 923 INTER-LIGAND FREE ENERGY PREDICTED BY IDOCK:   -6.79 KCAL/MOL
REMARK 924 INTRA-LIGAND FREE ENERGY PREDICTED BY IDOCK:   -0.50 KCAL/MOL
REMARK 927      BINDING AFFINITY PREDICTED BY RF-SCORE:    0.00 PKD
ROOT
HETATM    1 MG   UNL     3     -11.332  12.105  70.961  1.00  0.00    -0.430 Mg 
HETATM    2  O   UNL     4     -10.729  16.912  67.082  1.00  0.00    -0.282 OA 
HETATM    3  C   UNL     4     -10.866  15.515  67.254  1.00  0.00    -0.313 C  
HETATM    4  H   UNL     4     -11.531  17.330  66.790  1.00  0.00     0.000 HD 
HETATM    5  O   UNL     5      -6.561   6.548  73.322  1.00  0.00    -0.067 OA 
HETATM    6  H   UNL     5      -6.071   6.811  74.092  1.00  0.00     0.000 HD 
HETATM    7  C   UNL     5      -6.512   7.542  72.298  1.00  0.00    -0.050 C  
ENDROOT
BRANCH   3   8
HETATM    8  C   UNL     4      -9.570  14.841  67.727  1.00  0.00    -0.209 C  
HETATM    9  O   UNL     4      -9.537  14.812  69.166  1.00  0.00    -0.292 OA 
HETATM   10  H   UNL     4      -8.734  14.395  69.459  1.00  0.00     0.000 HD 
BRANCH   8  11
HETATM   11  C   UNL     4      -9.260  13.392  67.250  1.00  0.00    -0.222 C  
HETATM   12  O   UNL     4      -7.867  13.128  67.120  1.00  0.00    -0.323 OA 
HETATM   13  H   UNL     4      -7.679  12.243  66.829  1.00  0.00     0.000 HD 
BRANCH  11  14
HETATM   14  C   UNL     4      -9.996  12.220  67.954  1.00  0.00    -0.202 C  
HETATM   15  H   UNL     4      -9.426  10.553  68.799  1.00  0.00     0.000 HD 
HETATM   16  O   UNL     4      -8.976  11.270  68.368  1.00  0.00    -0.156 OA 
BRANCH  14  17
HETATM   17  C   UNL     4     -11.165  11.488  67.235  1.00  0.00    -0.301 C  
HETATM   18  C   UNL     4     -11.544  12.158  65.849  1.00  0.00    -0.364 C  
HETATM   19  H   UNL     4     -12.993  10.809  67.672  1.00  0.00     0.000 HD 
HETATM   20  O   UNL     4     -12.279  11.256  68.111  1.00  0.00    -0.622 OA 
HETATM   21  O   UNL     4     -10.515  12.593  65.179  1.00  0.00    -0.284 OA 
HETATM   22  O   UNL     4     -12.762  12.299  65.552  1.00  0.00    -0.438 OA 
ENDBRANCH  14  17
ENDBRANCH  11  14
ENDBRANCH   8  11
ENDBRANCH   3   8
BRANCH   7  23
HETATM   23  C   UNL     5      -7.307   7.115  71.048  1.00  0.00    -0.075 C  
HETATM   24  O   UNL     5      -7.635   5.730  71.177  1.00  0.00    -0.094 OA 
HETATM   25  H   UNL     5      -8.124   5.467  70.407  1.00  0.00     0.000 HD 
BRANCH  23  26
HETATM   26  C   UNL     5      -8.578   7.972  70.860  1.00  0.00    -0.133 C  
HETATM   27  O   UNL     5      -8.229   9.208  70.196  1.00  0.00    -0.120 OA 
HETATM   28  H   UNL     5      -9.011   9.735  70.080  1.00  0.00     0.000 HD 
BRANCH  26  29
HETATM   29  C   UNL     5      -9.802   7.314  70.164  1.00  0.00    -0.179 C  
HETATM   30  O   UNL     5      -9.984   7.761  68.820  1.00  0.00    -0.166 OA 
HETATM   31  H   UNL     5     -10.732   7.359  68.395  1.00  0.00     0.000 HD 
BRANCH  29  32
HETATM   32  C   UNL     5     -11.135   7.286  70.929  1.00  0.00    -0.261 C  
HETATM   33  C   UNL     5     -11.196   6.340  72.147  1.00  0.00    -0.282 C  
HETATM   34  O   UNL     5     -12.250   7.002  70.011  1.00  0.00    -0.610 OA 
HETATM   35  O   UNL     5     -10.132   6.196  72.820  1.00  0.00    -0.175 OA 
HETATM   36  O   UNL     5     -12.329   5.755  72.283  1.00  0.00    -0.136 OA 
HETATM   37  H   UNL     5     -13.073   6.985  70.483  1.00  0.00     0.000 HD 
ENDBRANCH  29  32
ENDBRANCH  26  29
ENDBRANCH  23  26
ENDBRANCH   7  23
TORSDOF 8
ENDMDL
MODEL      429
REMARK 921   NORMALIZED FREE ENERGY PREDICTED BY IDOCK:   -3.43 KCAL/MOL
REMARK 922        TOTAL FREE ENERGY PREDICTED BY IDOCK:   -7.28 KCAL/MOL
REMARK 923 INTER-LIGAND FREE ENERGY PREDICTED BY IDOCK:   -5.80 KCAL/MOL
REMARK 924 INTRA-LIGAND FREE ENERGY PREDICTED BY IDOCK:   -1.48 KCAL/MOL
REMARK 927      BINDING AFFINITY PREDICTED BY RF-SCORE:    0.00 PKD
ROOT
HETATM    1 MG   UNL     3      -7.603  12.509  69.984  1.00  0.00    -0.314 Mg 
HETATM    2  O   UNL     4      -5.401   7.217  72.365  1.00  0.00    -0.036 OA 
HETATM    3  C   UNL     4      -5.525   8.073  71.245  1.00  0.00    -0.034 C  
HETATM    4  H   UNL     4      -4.540   7.253  72.765  1.00  0.00     0.000 HD 
HETATM    5  O   UNL     5     -13.380  14.182  65.184  1.00  0.00    -0.684 OA 
HETATM    6  H   UNL     5     -14.194  14.324  65.652  1.00  0.00     0.000 HD 
HETATM    7  C   UNL     5     -12.736  12.976  65.594  1.00  0.00    -0.132 C  
ENDROOT
BRANCH   3   8
HETATM    8  C   UNL     4      -6.917   8.015  70.598  1.00  0.00    -0.041 C  
HETATM    9  O   UNL     4      -7.838   7.358  71.490  1.00  0.00    -0.086 OA 
HETATM   10  H   UNL     4      -8.699   7.322  71.089  1.00  0.00     0.000 HD 
BRANCH   8  11
HETATM   11  C   UNL     4      -7.597   9.345  70.162  1.00  0.00    -0.130 C  
HETATM   12  O   UNL     4      -6.695  10.445  70.100  1.00  0.00    -0.127 OA 
HETATM   13  H   UNL     4      -7.111  11.256  69.834  1.00  0.00     0.000 HD 
BRANCH  11  14
HETATM   14  C   UNL     4      -8.535   9.312  68.925  1.00  0.00    -0.129 C  
HETATM   15  H   UNL     4     -10.372   9.882  68.582  1.00  0.00     0.000 HD 
HETATM   16  O   UNL     4      -9.798   9.903  69.338  1.00  0.00    -0.191 OA 
BRANCH  14  17
HETATM   17  C   UNL     4      -8.779   7.975  68.167  1.00  0.00    -0.126 C  
HETATM   18  C   UNL     4      -9.758   8.145  66.932  1.00  0.00    -0.226 C  
HETATM   19  H   UNL     4      -9.269   6.086  68.595  1.00  0.00     0.000 HD 
HETATM   20  O   UNL     4      -9.121   6.902  69.058  1.00  0.00    -0.139 OA 
HETATM   21  O   UNL     4      -9.593   9.261  66.282  1.00  0.00    -0.205 OA 
HETATM   22  O   UNL     4     -10.646   7.271  66.732  1.00  0.00    -0.298 OA 
ENDBRANCH  14  17
ENDBRANCH  11  14
ENDBRANCH   8  11
ENDBRANCH   3   8
BRANCH   7  23
HETATM   23  C   UNL     5     -11.414  12.746  64.835  1.00  0.00    -0.320 C  
HETATM   24  O   UNL     5     -11.676  12.864  63.435  1.00  0.00    -0.572 OA 
HETATM   25  H   UNL     5     -10.861  12.722  62.967  1.00  0.00     0.000 HD 
BRANCH  23  26
HETATM   26  C   UNL     5     -10.319  13.739  65.281  1.00  0.00    -0.361 C  
HETATM   27  O   UNL     5     -10.047  14.668  64.207  1.00  0.00    -0.397 OA 
HETATM   28  H   UNL     5      -9.373  15.279  64.482  1.00  0.00     0.000 HD 
BRANCH  26  29
HETATM   29  C   UNL     5     -10.534  14.507  66.615  1.00  0.00    -0.274 C  
HETATM   30  O   UNL     5     -10.303  15.910  66.492  1.00  0.00    -0.284 OA 
HETATM   31  H   UNL     5     -10.435  16.380  67.307  1.00  0.00     0.000 HD 
BRANCH  29  32
HETATM   32  C   UNL     5      -9.877  13.942  67.885  1.00  0.00    -0.228 C  
HETATM   33  C   UNL     5      -9.786  14.905  69.086  1.00  0.00    -0.183 C  
HETATM   34  O   UNL     5      -8.547  13.391  67.574  1.00  0.00    -0.176 OA 
HETATM   35  O   UNL     5     -10.734  15.731  69.237  1.00  0.00    -0.213 OA 
HETATM   36  O   UNL     5      -8.698  14.787  69.755  1.00  0.00     0.108 OA 
HETATM   37  H   UNL     5      -8.141  13.042  68.358  1.00  0.00     0.000 HD 
ENDBRANCH  29  32
ENDBRANCH  26  29
ENDBRANCH  23  26
ENDBRANCH   7  23
TORSDOF 8
ENDMDL
MODEL      430
REMARK 921   NORMALIZED FREE ENERGY PREDICTED BY IDOCK:   -3.43 KCAL/MOL
REMARK 922        TOTAL FREE ENERGY PREDICTED BY IDOCK:   -7.28 KCAL/MOL
REMARK 923 INTER-LIGAND FREE ENERGY PREDICTED BY IDOCK:   -6.02 KCAL/MOL
REMARK 924 INTRA-LIGAND FREE ENERGY PREDICTED BY IDOCK:   -1.26 KCAL/MOL
REMARK 927      BINDING AFFINITY PREDICTED BY RF-SCORE:    0.00 PKD
ROOT
HETATM    1 MG   UNL     3      -8.068  12.652  69.549  1.00  0.00    -0.323 Mg 
HETATM    2  O   UNL     4     -13.391  15.622  70.715  1.00  0.00    -0.727 OA 
HETATM    3  C   UNL     4     -12.420  14.683  71.136  1.00  0.00    -0.332 C  
HETATM    4  H   UNL     4     -13.327  16.452  71.174  1.00  0.00     0.000 HD 
HETATM    5  O   UNL     5      -6.348   5.462  67.411  1.00  0.00    -0.036 OA 
HETATM    6  H   UNL     5      -6.338   5.371  66.466  1.00  0.00     0.000 HD 
HETATM    7  C   UNL     5      -7.533   6.115  67.867  1.00  0.00    -0.085 C  
ENDROOT
BRANCH   3   8
HETATM    8  C   UNL     4     -12.524  13.342  70.394  1.00  0.00    -0.225 C  
HETATM    9  O   UNL     4     -11.421  13.209  69.478  1.00  0.00    -0.336 OA 
HETATM   10  H   UNL     4     -11.486  12.380  69.019  1.00  0.00     0.000 HD 
BRANCH   8  11
HETATM   11  C   UNL     4     -12.567  12.026  71.226  1.00  0.00    -0.252 C  
HETATM   12  O   UNL     4     -13.484  12.078  72.314  1.00  0.00    -0.593 OA 
HETATM   13  H   UNL     4     -13.510  11.275  72.820  1.00  0.00     0.000 HD 
BRANCH  11  14
HETATM   14  C   UNL     4     -12.675  10.682  70.457  1.00  0.00    -0.313 C  
HETATM   15  H   UNL     4     -13.784   9.084  70.639  1.00  0.00     0.000 HD 
HETATM   16  O   UNL     4     -13.717   9.906  71.109  1.00  0.00    -0.276 OA 
BRANCH  14  17
HETATM   17  C   UNL     4     -11.407   9.810  70.227  1.00  0.00    -0.272 C  
HETATM   18  C   UNL     4     -10.799   9.250  71.579  1.00  0.00    -0.372 C  
HETATM   19  H   UNL     4      -9.682   9.922  69.225  1.00  0.00     0.000 HD 
HETATM   20  O   UNL     4     -10.456  10.454  69.365  1.00  0.00    -0.211 OA 
HETATM   21  O   UNL     4     -11.699   8.903  72.454  1.00  0.00    -0.331 OA 
HETATM   22  O   UNL     4      -9.548   9.267  71.739  1.00  0.00    -0.291 OA 
ENDBRANCH  14  17
ENDBRANCH  11  14
ENDBRANCH   8  11
ENDBRANCH   3   8
BRANCH   7  23
HETATM   23  C   UNL     5      -7.549   6.263  69.402  1.00  0.00    -0.098 C  
HETATM   24  O   UNL     5      -8.323   7.418  69.732  1.00  0.00    -0.131 OA 
HETATM   25  H   UNL     5      -8.333   7.510  70.678  1.00  0.00     0.000 HD 
BRANCH  23  26
HETATM   26  C   UNL     5      -8.111   5.001  70.092  1.00  0.00    -0.081 C  
HETATM   27  O   UNL     5      -7.661   3.826  69.381  1.00  0.00    -0.052 OA 
HETATM   28  H   UNL     5      -8.007   3.049  69.805  1.00  0.00     0.000 HD 
BRANCH  26  29
HETATM   29  C   UNL     5      -7.864   4.835  71.617  1.00  0.00    -0.098 C  
HETATM   30  O   UNL     5      -6.506   4.529  71.930  1.00  0.00    -0.021 OA 
HETATM   31  H   UNL     5      -6.355   4.428  72.863  1.00  0.00     0.000 HD 
BRANCH  29  32
HETATM   32  C   UNL     5      -8.835   3.945  72.410  1.00  0.00    -0.105 C  
HETATM   33  C   UNL     5      -8.971   2.488  71.920  1.00  0.00    -0.080 C  
HETATM   34  O   UNL     5     -10.162   4.578  72.493  1.00  0.00    -0.175 OA 
HETATM   35  O   UNL     5      -7.934   1.940  71.441  1.00  0.00    -0.040 OA 
HETATM   36  O   UNL     5     -10.167   2.032  71.999  1.00  0.00    -0.161 OA 
HETATM   37  H   UNL     5     -10.762   4.028  72.982  1.00  0.00     0.000 HD 
ENDBRANCH  29  32
ENDBRANCH  26  29
ENDBRANCH  23  26
ENDBRANCH   7  23
TORSDOF 8
ENDMDL
MODEL      431
REMARK 921   NORMALIZED FREE ENERGY PREDICTED BY IDOCK:   -3.38 KCAL/MOL
REMARK 922        TOTAL FREE ENERGY PREDICTED BY IDOCK:   -7.21 KCAL/MOL
REMARK 923 INTER-LIGAND FREE ENERGY PREDICTED BY IDOCK:   -5.12 KCAL/MOL
REMARK 924 INTRA-LIGAND FREE ENERGY PREDICTED BY IDOCK:   -2.09 KCAL/MOL
REMARK 927      BINDING AFFINITY PREDICTED BY RF-SCORE:    0.00 PKD
ROOT
HETATM    1 MG   UNL     3      -6.327   7.963  67.508  1.00  0.00    -0.041 Mg 
HETATM    2  O   UNL     4      -6.743   1.835  68.403  1.00  0.00    -0.029 OA 
HETATM    3  C   UNL     4      -7.030   2.954  67.585  1.00  0.00    -0.049 C  
HETATM    4  H   UNL     4      -6.030   1.304  68.067  1.00  0.00     0.000 HD 
HETATM    5  O   UNL     5     -11.360  13.762  68.010  1.00  0.00    -0.260 OA 
HETATM    6  H   UNL     5     -11.389  14.125  68.887  1.00  0.00     0.000 HD 
HETATM    7  C   UNL     5     -11.468  12.339  68.022  1.00  0.00    -0.321 C  
ENDROOT
BRANCH   3   8
HETATM    8  C   UNL     4      -8.181   3.812  68.129  1.00  0.00    -0.083 C  
HETATM    9  O   UNL     4      -8.983   3.030  69.034  1.00  0.00    -0.097 OA 
HETATM   10  H   UNL     4      -9.695   3.561  69.370  1.00  0.00     0.000 HD 
BRANCH   8  11
HETATM   11  C   UNL     4      -7.843   5.138  68.872  1.00  0.00    -0.082 C  
HETATM   12  O   UNL     4      -6.748   5.842  68.296  1.00  0.00    -0.053 OA 
HETATM   13  H   UNL     4      -6.542   6.651  68.749  1.00  0.00     0.000 HD 
BRANCH  11  14
HETATM   14  C   UNL     4      -9.013   6.097  69.220  1.00  0.00    -0.123 C  
HETATM   15  H   UNL     4     -10.216   6.295  70.747  1.00  0.00     0.000 HD 
HETATM   16  O   UNL     4      -9.499   5.708  70.534  1.00  0.00    -0.157 OA 
BRANCH  14  17
HETATM   17  C   UNL     4     -10.199   6.273  68.229  1.00  0.00    -0.169 C  
HETATM   18  C   UNL     4      -9.921   7.388  67.137  1.00  0.00    -0.215 C  
HETATM   19  H   UNL     4     -12.183   6.508  68.302  1.00  0.00     0.000 HD 
HETATM   20  O   UNL     4     -11.458   6.401  68.908  1.00  0.00    -0.314 OA 
HETATM   21  O   UNL     4      -8.689   7.414  66.716  1.00  0.00    -0.124 OA 
HETATM   22  O   UNL     4     -10.846   8.192  66.837  1.00  0.00    -0.250 OA 
ENDBRANCH  14  17
ENDBRANCH  11  14
ENDBRANCH   8  11
ENDBRANCH   3   8
BRANCH   7  23
HETATM   23  C   UNL     5     -11.420  11.750  66.598  1.00  0.00    -0.267 C  
HETATM   24  O   UNL     5     -12.193  12.590  65.739  1.00  0.00    -0.578 OA 
HETATM   25  H   UNL     5     -12.164  12.227  64.862  1.00  0.00     0.000 HD 
BRANCH  23  26
HETATM   26  C   UNL     5      -9.969  11.614  66.085  1.00  0.00    -0.221 C  
HETATM   27  O   UNL     5      -9.841  12.308  64.822  1.00  0.00    -0.409 OA 
HETATM   28  H   UNL     5      -8.949  12.225  64.507  1.00  0.00     0.000 HD 
BRANCH  26  29
HETATM   29  C   UNL     5      -8.817  12.024  67.043  1.00  0.00    -0.197 C  
HETATM   30  O   UNL     5      -8.443  13.395  66.908  1.00  0.00    -0.367 OA 
HETATM   31  H   UNL     5      -7.738  13.646  67.495  1.00  0.00     0.000 HD 
BRANCH  29  32
HETATM   32  C   UNL     5      -7.582  11.111  67.115  1.00  0.00    -0.125 C  
HETATM   33  C   UNL     5      -6.217  11.802  66.913  1.00  0.00    -0.134 C  
HETATM   34  O   UNL     5      -7.723   9.982  66.181  1.00  0.00    -0.101 OA 
HETATM   35  O   UNL     5      -6.097  12.984  67.353  1.00  0.00    -0.242 OA 
HETATM   36  O   UNL     5      -5.381  11.095  66.245  1.00  0.00    -0.110 OA 
HETATM   37  H   UNL     5      -6.960   9.418  66.225  1.00  0.00     0.000 HD 
ENDBRANCH  29  32
ENDBRANCH  26  29
ENDBRANCH  23  26
ENDBRANCH   7  23
TORSDOF 8
ENDMDL
MODEL      432
REMARK 921   NORMALIZED FREE ENERGY PREDICTED BY IDOCK:   -3.36 KCAL/MOL
REMARK 922        TOTAL FREE ENERGY PREDICTED BY IDOCK:   -7.18 KCAL/MOL
REMARK 923 INTER-LIGAND FREE ENERGY PREDICTED BY IDOCK:   -5.70 KCAL/MOL
REMARK 924 INTRA-LIGAND FREE ENERGY PREDICTED BY IDOCK:   -1.47 KCAL/MOL
REMARK 927      BINDING AFFINITY PREDICTED BY RF-SCORE:    0.00 PKD
ROOT
HETATM    1 MG   UNL     3      -6.185  12.540  68.667  1.00  0.00    -0.058 Mg 
HETATM    2  O   UNL     4     -10.101  16.851  66.523  1.00  0.00    -0.290 OA 
HETATM    3  C   UNL     4      -9.869  15.768  67.403  1.00  0.00    -0.233 C  
HETATM    4  H   UNL     4     -10.093  17.693  66.962  1.00  0.00     0.000 HD 
HETATM    5  O   UNL     5      -5.603   4.929  67.693  1.00  0.00    -0.015 OA 
HETATM    6  H   UNL     5      -5.065   4.713  66.941  1.00  0.00     0.000 HD 
HETATM    7  C   UNL     5      -6.592   5.907  67.372  1.00  0.00    -0.056 C  
ENDROOT
BRANCH   3   8
HETATM    8  C   UNL     4      -9.882  14.406  66.693  1.00  0.00    -0.278 C  
HETATM    9  O   UNL     4      -9.582  14.586  65.296  1.00  0.00    -0.512 OA 
HETATM   10  H   UNL     4      -9.590  13.744  64.856  1.00  0.00     0.000 HD 
BRANCH   8  11
HETATM   11  C   UNL     4      -8.934  13.283  67.206  1.00  0.00    -0.217 C  
HETATM   12  O   UNL     4      -8.721  13.326  68.613  1.00  0.00    -0.340 OA 
HETATM   13  H   UNL     4      -8.143  12.640  68.926  1.00  0.00     0.000 HD 
BRANCH  11  14
HETATM   14  C   UNL     4      -9.190  11.833  66.715  1.00  0.00    -0.194 C  
HETATM   15  H   UNL     4     -10.219  11.041  65.256  1.00  0.00     0.000 HD 
HETATM   16  O   UNL     4     -10.063  11.928  65.556  1.00  0.00    -0.232 OA 
BRANCH  14  17
HETATM   17  C   UNL     4      -9.714  10.755  67.707  1.00  0.00    -0.162 C  
HETATM   18  C   UNL     4     -11.148  11.104  68.285  1.00  0.00    -0.251 C  
HETATM   19  H   UNL     4      -9.055   9.753  69.306  1.00  0.00     0.000 HD 
HETATM   20  O   UNL     4      -8.736  10.412  68.701  1.00  0.00    -0.124 OA 
HETATM   21  O   UNL     4     -11.945  11.653  67.413  1.00  0.00    -0.621 OA 
HETATM   22  O   UNL     4     -11.373  10.918  69.512  1.00  0.00    -0.236 OA 
ENDBRANCH  14  17
ENDBRANCH  11  14
ENDBRANCH   8  11
ENDBRANCH   3   8
BRANCH   7  23
HETATM   23  C   UNL     5      -7.466   6.259  68.594  1.00  0.00    -0.088 C  
HETATM   24  O   UNL     5      -6.731   7.160  69.425  1.00  0.00    -0.046 OA 
HETATM   25  H   UNL     5      -7.269   7.376  70.177  1.00  0.00     0.000 HD 
BRANCH  23  26
HETATM   26  C   UNL     5      -8.820   6.869  68.171  1.00  0.00    -0.125 C  
HETATM   27  O   UNL     5      -8.769   7.224  66.770  1.00  0.00    -0.121 OA 
HETATM   28  H   UNL     5      -9.602   7.600  66.510  1.00  0.00     0.000 HD 
BRANCH  26  29
HETATM   29  C   UNL     5     -10.110   6.058  68.474  1.00  0.00    -0.161 C  
HETATM   30  O   UNL     5      -9.929   5.093  69.510  1.00  0.00    -0.190 OA 
HETATM   31  H   UNL     5     -10.718   4.597  69.696  1.00  0.00     0.000 HD 
BRANCH  29  32
HETATM   32  C   UNL     5     -10.881   5.464  67.284  1.00  0.00     0.041 C  
HETATM   33  C   UNL     5     -10.099   4.474  66.397  1.00  0.00    -0.244 C  
HETATM   34  O   UNL     5     -11.460   6.537  66.459  1.00  0.00    -0.610 OA 
HETATM   35  O   UNL     5      -9.247   3.732  66.971  1.00  0.00    -0.153 OA 
HETATM   36  O   UNL     5     -10.370   4.582  65.148  1.00  0.00    -0.188 OA 
HETATM   37  H   UNL     5     -11.937   6.170  65.724  1.00  0.00     0.000 HD 
ENDBRANCH  29  32
ENDBRANCH  26  29
ENDBRANCH  23  26
ENDBRANCH   7  23
TORSDOF 8
ENDMDL
MODEL      433
REMARK 921   NORMALIZED FREE ENERGY PREDICTED BY IDOCK:   -3.36 KCAL/MOL
REMARK 922        TOTAL FREE ENERGY PREDICTED BY IDOCK:   -7.17 KCAL/MOL
REMARK 923 INTER-LIGAND FREE ENERGY PREDICTED BY IDOCK:   -5.76 KCAL/MOL
REMARK 924 INTRA-LIGAND FREE ENERGY PREDICTED BY IDOCK:   -1.41 KCAL/MOL
REMARK 927      BINDING AFFINITY PREDICTED BY RF-SCORE:    0.00 PKD
ROOT
HETATM    1 MG   UNL     3      -8.722   8.840  68.798  1.00  0.00    -0.121 Mg 
HETATM    2  O   UNL     4     -13.287  11.198  72.279  1.00  0.00    -0.633 OA 
HETATM    3  C   UNL     4     -12.343  10.165  72.072  1.00  0.00    -0.075 C  
HETATM    4  H   UNL     4     -13.033  11.800  72.969  1.00  0.00     0.000 HD 
HETATM    5  O   UNL     5      -8.293   2.937  63.881  1.00  0.00    -0.085 OA 
HETATM    6  H   UNL     5      -8.518   3.201  62.997  1.00  0.00     0.000 HD 
HETATM    7  C   UNL     5      -9.263   3.382  64.829  1.00  0.00    -0.142 C  
ENDROOT
BRANCH   3   8
HETATM    8  C   UNL     4     -12.755   9.193  70.957  1.00  0.00    -0.131 C  
HETATM    9  O   UNL     4     -12.113   9.571  69.725  1.00  0.00    -0.365 OA 
HETATM   10  H   UNL     4     -12.368   8.969  69.035  1.00  0.00     0.000 HD 
BRANCH   8  11
HETATM   11  C   UNL     4     -12.482   7.673  71.149  1.00  0.00    -0.247 C  
HETATM   12  O   UNL     4     -12.768   6.899  69.989  1.00  0.00    -0.267 OA 
HETATM   13  H   UNL     4     -12.601   5.971  70.107  1.00  0.00     0.000 HD 
BRANCH  11  14
HETATM   14  C   UNL     4     -11.133   7.250  71.793  1.00  0.00    -0.235 C  
HETATM   15  H   UNL     4      -9.253   7.581  71.379  1.00  0.00     0.000 HD 
HETATM   16  O   UNL     4     -10.078   7.839  70.985  1.00  0.00    -0.186 OA 
BRANCH  14  17
HETATM   17  C   UNL     4     -10.837   5.748  72.069  1.00  0.00    -0.251 C  
HETATM   18  C   UNL     4      -9.979   5.527  73.382  1.00  0.00    -0.176 C  
HETATM   19  H   UNL     4     -10.154   4.156  71.073  1.00  0.00     0.000 HD 
HETATM   20  O   UNL     4     -10.334   5.073  70.905  1.00  0.00    -0.230 OA 
HETATM   21  O   UNL     4     -10.291   6.335  74.355  1.00  0.00    -0.323 OA 
HETATM   22  O   UNL     4      -9.038   4.686  73.363  1.00  0.00    -0.114 OA 
ENDBRANCH  14  17
ENDBRANCH  11  14
ENDBRANCH   8  11
ENDBRANCH   3   8
BRANCH   7  23
HETATM   23  C   UNL     5      -8.897   2.954  66.265  1.00  0.00    -0.144 C  
HETATM   24  O   UNL     5      -7.482   3.074  66.421  1.00  0.00    -0.073 OA 
HETATM   25  H   UNL     5      -7.256   2.811  67.305  1.00  0.00     0.000 HD 
BRANCH  23  26
HETATM   26  C   UNL     5      -9.647   3.795  67.320  1.00  0.00    -0.169 C  
HETATM   27  O   UNL     5      -8.696   4.336  68.265  1.00  0.00    -0.093 OA 
HETATM   28  H   UNL     5      -9.158   4.854  68.915  1.00  0.00     0.000 HD 
BRANCH  26  29
HETATM   29  C   UNL     5     -10.601   4.913  66.815  1.00  0.00    -0.094 C  
HETATM   30  O   UNL     5     -11.119   4.655  65.511  1.00  0.00    -0.852 OA 
HETATM   31  H   UNL     5     -11.702   5.338  65.202  1.00  0.00     0.000 HD 
BRANCH  29  32
HETATM   32  C   UNL     5     -10.136   6.372  66.954  1.00  0.00    -0.187 C  
HETATM   33  C   UNL     5      -8.763   6.706  66.333  1.00  0.00    -0.141 C  
HETATM   34  O   UNL     5     -10.169   6.790  68.366  1.00  0.00    -0.161 OA 
HETATM   35  O   UNL     5      -8.443   6.088  65.275  1.00  0.00    -0.148 OA 
HETATM   36  O   UNL     5      -8.078   7.540  67.027  1.00  0.00    -0.113 OA 
HETATM   37  H   UNL     5      -9.882   7.691  68.452  1.00  0.00     0.000 HD 
ENDBRANCH  29  32
ENDBRANCH  26  29
ENDBRANCH  23  26
ENDBRANCH   7  23
TORSDOF 8
ENDMDL
MODEL      434
REMARK 921   NORMALIZED FREE ENERGY PREDICTED BY IDOCK:   -3.35 KCAL/MOL
REMARK 922        TOTAL FREE ENERGY PREDICTED BY IDOCK:   -7.16 KCAL/MOL
REMARK 923 INTER-LIGAND FREE ENERGY PREDICTED BY IDOCK:   -5.99 KCAL/MOL
REMARK 924 INTRA-LIGAND FREE ENERGY PREDICTED BY IDOCK:   -1.17 KCAL/MOL
REMARK 927      BINDING AFFINITY PREDICTED BY RF-SCORE:    0.00 PKD
ROOT
HETATM    1 MG   UNL     3      -7.940   5.562  70.260  1.00  0.00    -0.080 Mg 
HETATM    2  O   UNL     4      -5.227   5.621  64.678  1.00  0.00    -0.009 OA 
HETATM    3  C   UNL     4      -5.537   6.313  65.873  1.00  0.00    -0.014 C  
HETATM    4  H   UNL     4      -4.321   5.337  64.639  1.00  0.00     0.000 HD 
HETATM    5  O   UNL     5     -14.384   8.688  73.073  1.00  0.00    -1.043 OA 
HETATM    6  H   UNL     5     -15.131   8.113  72.959  1.00  0.00     0.000 HD 
HETATM    7  C   UNL     5     -13.643   8.840  71.862  1.00  0.00    -0.424 C  
ENDROOT
BRANCH   3   8
HETATM    8  C   UNL     4      -7.001   6.772  65.935  1.00  0.00    -0.064 C  
HETATM    9  O   UNL     4      -7.853   5.750  65.386  1.00  0.00    -0.097 OA 
HETATM   10  H   UNL     4      -8.759   6.034  65.425  1.00  0.00     0.000 HD 
BRANCH   8  11
HETATM   11  C   UNL     4      -7.608   7.157  67.316  1.00  0.00    -0.104 C  
HETATM   12  O   UNL     4      -6.989   6.487  68.409  1.00  0.00    -0.075 OA 
HETATM   13  H   UNL     4      -7.360   6.722  69.252  1.00  0.00     0.000 HD 
BRANCH  11  14
HETATM   14  C   UNL     4      -7.822   8.664  67.623  1.00  0.00    -0.103 C  
HETATM   15  H   UNL     4      -6.661  10.122  68.209  1.00  0.00     0.000 HD 
HETATM   16  O   UNL     4      -6.530   9.201  68.021  1.00  0.00    -0.058 OA 
BRANCH  14  17
HETATM   17  C   UNL     4      -8.929   9.107  68.622  1.00  0.00    -0.136 C  
HETATM   18  C   UNL     4     -10.390   8.898  68.045  1.00  0.00    -0.219 C  
HETATM   19  H   UNL     4      -9.356  10.686  69.771  1.00  0.00     0.000 HD 
HETATM   20  O   UNL     4      -8.680  10.415  69.161  1.00  0.00    -0.154 OA 
HETATM   21  O   UNL     4     -10.524   7.812  67.339  1.00  0.00    -0.252 OA 
HETATM   22  O   UNL     4     -11.253   9.800  68.226  1.00  0.00    -0.155 OA 
ENDBRANCH  14  17
ENDBRANCH  11  14
ENDBRANCH   8  11
ENDBRANCH   3   8
BRANCH   7  23
HETATM   23  C   UNL     5     -12.431   9.774  72.046  1.00  0.00    -0.308 C  
HETATM   24  O   UNL     5     -11.267   8.966  72.233  1.00  0.00    -0.340 OA 
HETATM   25  H   UNL     5     -10.520   9.542  72.347  1.00  0.00     0.000 HD 
BRANCH  23  26
HETATM   26  C   UNL     5     -12.258  10.730  70.846  1.00  0.00    -0.384 C  
HETATM   27  O   UNL     5     -13.215  10.385  69.818  1.00  0.00    -0.541 OA 
HETATM   28  H   UNL     5     -13.108  10.973  69.079  1.00  0.00     0.000 HD 
BRANCH  26  29
HETATM   29  C   UNL     5     -12.292  12.259  71.122  1.00  0.00    -0.147 C  
HETATM   30  O   UNL     5     -13.541  12.700  71.653  1.00  0.00    -0.205 OA 
HETATM   31  H   UNL     5     -13.562  13.635  71.822  1.00  0.00     0.000 HD 
BRANCH  29  32
HETATM   32  C   UNL     5     -11.790  13.200  70.015  1.00  0.00    -0.290 C  
HETATM   33  C   UNL     5     -12.317  14.650  70.070  1.00  0.00    -0.315 C  
HETATM   34  O   UNL     5     -12.046  12.617  68.688  1.00  0.00    -0.269 OA 
HETATM   35  O   UNL     5     -12.516  15.149  71.217  1.00  0.00    -0.294 OA 
HETATM   36  O   UNL     5     -12.556  15.150  68.914  1.00  0.00     0.086 OA 
HETATM   37  H   UNL     5     -11.736  13.199  68.005  1.00  0.00     0.000 HD 
ENDBRANCH  29  32
ENDBRANCH  26  29
ENDBRANCH  23  26
ENDBRANCH   7  23
TORSDOF 8
ENDMDL
MODEL      435
REMARK 921   NORMALIZED FREE ENERGY PREDICTED BY IDOCK:   -3.35 KCAL/MOL
REMARK 922        TOTAL FREE ENERGY PREDICTED BY IDOCK:   -7.16 KCAL/MOL
REMARK 923 INTER-LIGAND FREE ENERGY PREDICTED BY IDOCK:   -5.56 KCAL/MOL
REMARK 924 INTRA-LIGAND FREE ENERGY PREDICTED BY IDOCK:   -1.60 KCAL/MOL
REMARK 927      BINDING AFFINITY PREDICTED BY RF-SCORE:    0.00 PKD
ROOT
HETATM    1 MG   UNL     3     -12.965  10.081  69.499  1.00  0.00    -0.539 Mg 
HETATM    2  O   UNL     4     -11.340  15.514  66.979  1.00  0.00    -0.244 OA 
HETATM    3  C   UNL     4     -11.805  14.192  66.790  1.00  0.00    -0.425 C  
HETATM    4  H   UNL     4     -12.026  16.166  66.885  1.00  0.00     0.000 HD 
HETATM    5  O   UNL     5      -9.609   3.165  69.845  1.00  0.00    -0.157 OA 
HETATM    6  H   UNL     5      -9.045   3.086  70.605  1.00  0.00     0.000 HD 
HETATM    7  C   UNL     5      -9.353   4.366  69.118  1.00  0.00    -0.155 C  
ENDROOT
BRANCH   3   8
HETATM    8  C   UNL     4     -10.697  13.140  66.941  1.00  0.00    -0.263 C  
HETATM    9  O   UNL     4     -10.436  12.910  68.339  1.00  0.00    -0.241 OA 
HETATM   10  H   UNL     4      -9.749  12.259  68.432  1.00  0.00     0.000 HD 
BRANCH   8  11
HETATM   11  C   UNL     4     -10.898  11.739  66.293  1.00  0.00    -0.281 C  
HETATM   12  O   UNL     4     -10.862  11.767  64.870  1.00  0.00    -0.283 OA 
HETATM   13  H   UNL     4     -10.985  10.912  64.475  1.00  0.00     0.000 HD 
BRANCH  11  14
HETATM   14  C   UNL     4     -10.074  10.550  66.857  1.00  0.00    -0.216 C  
HETATM   15  H   UNL     4      -8.762   9.313  66.106  1.00  0.00     0.000 HD 
HETATM   16  O   UNL     4      -9.266  10.040  65.761  1.00  0.00    -0.156 OA 
BRANCH  14  17
HETATM   17  C   UNL     4     -10.792   9.385  67.596  1.00  0.00    -0.154 C  
HETATM   18  C   UNL     4     -10.376   9.281  69.122  1.00  0.00    -0.211 C  
HETATM   19  H   UNL     4     -11.147   7.437  67.319  1.00  0.00     0.000 HD 
HETATM   20  O   UNL     4     -10.708   8.149  66.868  1.00  0.00    -0.309 OA 
HETATM   21  O   UNL     4     -10.211  10.437  69.699  1.00  0.00    -0.232 OA 
HETATM   22  O   UNL     4     -10.155   8.143  69.618  1.00  0.00    -0.190 OA 
ENDBRANCH  14  17
ENDBRANCH  11  14
ENDBRANCH   8  11
ENDBRANCH   3   8
BRANCH   7  23
HETATM   23  C   UNL     5     -10.268   4.493  67.883  1.00  0.00     0.103 C  
HETATM   24  O   UNL     5     -10.708   5.850  67.789  1.00  0.00    -0.255 OA 
HETATM   25  H   UNL     5     -11.272   5.928  67.029  1.00  0.00     0.000 HD 
BRANCH  23  26
HETATM   26  C   UNL     5      -9.548   4.052  66.591  1.00  0.00    -0.209 C  
HETATM   27  O   UNL     5     -10.498   4.013  65.502  1.00  0.00    -0.456 OA 
HETATM   28  H   UNL     5     -10.055   3.741  64.707  1.00  0.00     0.000 HD 
BRANCH  26  29
HETATM   29  C   UNL     5      -8.273   4.832  66.165  1.00  0.00    -0.107 C  
HETATM   30  O   UNL     5      -7.236   4.778  67.144  1.00  0.00    -0.074 OA 
HETATM   31  H   UNL     5      -6.456   5.256  66.884  1.00  0.00     0.000 HD 
BRANCH  29  32
HETATM   32  C   UNL     5      -8.452   6.257  65.617  1.00  0.00    -0.148 C  
HETATM   33  C   UNL     5      -7.774   6.551  64.262  1.00  0.00    -0.105 C  
HETATM   34  O   UNL     5      -8.034   7.250  66.619  1.00  0.00    -0.109 OA 
HETATM   35  O   UNL     5      -7.725   5.603  63.423  1.00  0.00    -0.076 OA 
HETATM   36  O   UNL     5      -7.273   7.729  64.187  1.00  0.00    -0.071 OA 
HETATM   37  H   UNL     5      -8.145   8.131  66.281  1.00  0.00     0.000 HD 
ENDBRANCH  29  32
ENDBRANCH  26  29
ENDBRANCH  23  26
ENDBRANCH   7  23
TORSDOF 8
ENDMDL
MODEL      436
REMARK 921   NORMALIZED FREE ENERGY PREDICTED BY IDOCK:   -3.35 KCAL/MOL
REMARK 922        TOTAL FREE ENERGY PREDICTED BY IDOCK:   -7.15 KCAL/MOL
REMARK 923 INTER-LIGAND FREE ENERGY PREDICTED BY IDOCK:   -5.51 KCAL/MOL
REMARK 924 INTRA-LIGAND FREE ENERGY PREDICTED BY IDOCK:   -1.64 KCAL/MOL
REMARK 927      BINDING AFFINITY PREDICTED BY RF-SCORE:    0.00 PKD
ROOT
HETATM    1 MG   UNL     3     -11.263   6.397  66.272  1.00  0.00    -0.396 Mg 
HETATM    2  O   UNL     4     -11.038  12.422  64.801  1.00  0.00    -0.287 OA 
HETATM    3  C   UNL     4     -10.341  11.246  65.163  1.00  0.00    -0.295 C  
HETATM    4  H   UNL     4     -10.951  12.635  63.878  1.00  0.00     0.000 HD 
HETATM    5  O   UNL     5     -10.479   2.500  72.861  1.00  0.00    -0.145 OA 
HETATM    6  H   UNL     5     -11.310   2.405  73.312  1.00  0.00     0.000 HD 
HETATM    7  C   UNL     5     -10.246   3.851  72.462  1.00  0.00    -0.164 C  
ENDROOT
BRANCH   3   8
HETATM    8  C   UNL     4     -10.482  10.902  66.653  1.00  0.00    -0.254 C  
HETATM    9  O   UNL     4      -9.184  10.908  67.276  1.00  0.00    -0.150 OA 
HETATM   10  H   UNL     4      -9.272  10.695  68.198  1.00  0.00     0.000 HD 
BRANCH   8  11
HETATM   11  C   UNL     4     -11.403  11.787  67.543  1.00  0.00    -0.310 C  
HETATM   12  O   UNL     4     -12.280  11.032  68.372  1.00  0.00    -0.770 OA 
HETATM   13  H   UNL     4     -12.842  11.572  68.915  1.00  0.00     0.000 HD 
BRANCH  11  14
HETATM   14  C   UNL     4     -10.750  12.958  68.328  1.00  0.00    -0.244 C  
HETATM   15  H   UNL     4     -11.103  13.822  70.044  1.00  0.00     0.000 HD 
HETATM   16  O   UNL     4     -11.502  13.106  69.564  1.00  0.00    -0.264 OA 
BRANCH  14  17
HETATM   17  C   UNL     4     -10.547  14.339  67.642  1.00  0.00    -0.253 C  
HETATM   18  C   UNL     4      -9.031  14.622  67.279  1.00  0.00    -0.205 C  
HETATM   19  H   UNL     4     -11.075  16.244  67.939  1.00  0.00     0.000 HD 
HETATM   20  O   UNL     4     -11.199  15.400  68.358  1.00  0.00    -0.283 OA 
HETATM   21  O   UNL     4      -8.386  13.569  66.864  1.00  0.00    -0.124 OA 
HETATM   22  O   UNL     4      -8.555  15.771  67.494  1.00  0.00    -0.159 OA 
ENDBRANCH  14  17
ENDBRANCH  11  14
ENDBRANCH   8  11
ENDBRANCH   3   8
BRANCH   7  23
HETATM   23  C   UNL     5      -8.898   4.006  71.730  1.00  0.00    -0.112 C  
HETATM   24  O   UNL     5      -9.129   4.717  70.512  1.00  0.00    -0.111 OA 
HETATM   25  H   UNL     5      -8.299   4.813  70.061  1.00  0.00     0.000 HD 
BRANCH  23  26
HETATM   26  C   UNL     5      -7.852   4.729  72.606  1.00  0.00    -0.093 C  
HETATM   27  O   UNL     5      -6.527   4.278  72.241  1.00  0.00    -0.020 OA 
HETATM   28  H   UNL     5      -5.884   4.723  72.781  1.00  0.00     0.000 HD 
BRANCH  26  29
HETATM   29  C   UNL     5      -7.896   6.282  72.661  1.00  0.00    -0.105 C  
HETATM   30  O   UNL     5      -9.202   6.809  72.431  1.00  0.00    -0.136 OA 
HETATM   31  H   UNL     5      -9.229   7.758  72.465  1.00  0.00     0.000 HD 
BRANCH  29  32
HETATM   32  C   UNL     5      -6.831   7.059  71.870  1.00  0.00    -0.060 C  
HETATM   33  C   UNL     5      -6.729   8.568  72.177  1.00  0.00    -0.081 C  
HETATM   34  O   UNL     5      -7.007   6.846  70.424  1.00  0.00    -0.060 OA 
HETATM   35  O   UNL     5      -6.953   8.931  73.370  1.00  0.00    -0.349 OA 
HETATM   36  O   UNL     5      -6.490   9.285  71.141  1.00  0.00    -0.080 OA 
HETATM   37  H   UNL     5      -6.349   7.327  69.936  1.00  0.00     0.000 HD 
ENDBRANCH  29  32
ENDBRANCH  26  29
ENDBRANCH  23  26
ENDBRANCH   7  23
TORSDOF 8
ENDMDL
MODEL      437
REMARK 921   NORMALIZED FREE ENERGY PREDICTED BY IDOCK:   -3.34 KCAL/MOL
REMARK 922        TOTAL FREE ENERGY PREDICTED BY IDOCK:   -7.14 KCAL/MOL
REMARK 923 INTER-LIGAND FREE ENERGY PREDICTED BY IDOCK:   -5.12 KCAL/MOL
REMARK 924 INTRA-LIGAND FREE ENERGY PREDICTED BY IDOCK:   -2.02 KCAL/MOL
REMARK 927      BINDING AFFINITY PREDICTED BY RF-SCORE:    0.00 PKD
ROOT
HETATM    1 MG   UNL     3      -6.567   7.834  68.270  1.00  0.00    -0.043 Mg 
HETATM    2  O   UNL     4      -7.154   1.671  67.830  1.00  0.00    -0.038 OA 
HETATM    3  C   UNL     4      -7.386   2.945  67.261  1.00  0.00    -0.061 C  
HETATM    4  H   UNL     4      -6.443   1.202  67.410  1.00  0.00     0.000 HD 
HETATM    5  O   UNL     5     -11.479  13.544  69.844  1.00  0.00    -0.436 OA 
HETATM    6  H   UNL     5     -11.531  13.714  70.777  1.00  0.00     0.000 HD 
HETATM    7  C   UNL     5     -11.620  12.154  69.551  1.00  0.00    -0.315 C  
ENDROOT
BRANCH   3   8
HETATM    8  C   UNL     4      -8.536   3.703  67.940  1.00  0.00    -0.098 C  
HETATM    9  O   UNL     4      -9.451   2.763  68.536  1.00  0.00    -0.192 OA 
HETATM   10  H   UNL     4     -10.162   3.233  68.956  1.00  0.00     0.000 HD 
BRANCH   8  11
HETATM   11  C   UNL     4      -8.198   4.748  69.043  1.00  0.00    -0.081 C  
HETATM   12  O   UNL     4      -7.033   5.514  68.754  1.00  0.00    -0.057 OA 
HETATM   13  H   UNL     4      -6.827   6.152  69.427  1.00  0.00     0.000 HD 
BRANCH  11  14
HETATM   14  C   UNL     4      -9.348   5.646  69.574  1.00  0.00    -0.133 C  
HETATM   15  H   UNL     4     -10.544   5.572  71.118  1.00  0.00     0.000 HD 
HETATM   16  O   UNL     4      -9.840   5.023  70.793  1.00  0.00    -0.180 OA 
BRANCH  14  17
HETATM   17  C   UNL     4     -10.532   6.030  68.641  1.00  0.00    -0.241 C  
HETATM   18  C   UNL     4     -10.165   7.204  67.642  1.00  0.00    -0.198 C  
HETATM   19  H   UNL     4     -12.478   6.459  68.800  1.00  0.00     0.000 HD 
HETATM   20  O   UNL     4     -11.754   6.225  69.370  1.00  0.00    -0.319 OA 
HETATM   21  O   UNL     4      -8.947   7.141  67.185  1.00  0.00    -0.122 OA 
HETATM   22  O   UNL     4     -11.007   8.123  67.443  1.00  0.00    -0.138 OA 
ENDBRANCH  14  17
ENDBRANCH  11  14
ENDBRANCH   8  11
ENDBRANCH   3   8
BRANCH   7  23
HETATM   23  C   UNL     5     -11.536  11.878  68.036  1.00  0.00    -0.323 C  
HETATM   24  O   UNL     5     -12.504  12.696  67.377  1.00  0.00    -0.165 OA 
HETATM   25  H   UNL     5     -12.452  12.526  66.444  1.00  0.00     0.000 HD 
BRANCH  23  26
HETATM   26  C   UNL     5     -10.117  12.142  67.486  1.00  0.00    -0.196 C  
HETATM   27  O   UNL     5      -9.265  12.603  68.559  1.00  0.00    -0.337 OA 
HETATM   28  H   UNL     5      -8.392  12.765  68.220  1.00  0.00     0.000 HD 
BRANCH  26  29
HETATM   29  C   UNL     5      -9.419  11.000  66.696  1.00  0.00    -0.184 C  
HETATM   30  O   UNL     5      -8.486  10.266  67.490  1.00  0.00    -0.118 OA 
HETATM   31  H   UNL     5      -8.059   9.567  67.007  1.00  0.00     0.000 HD 
BRANCH  29  32
HETATM   32  C   UNL     5      -8.837  11.333  65.313  1.00  0.00    -0.008 C  
HETATM   33  C   UNL     5      -9.811  11.214  64.123  1.00  0.00    -0.291 C  
HETATM   34  O   UNL     5      -7.625  10.536  65.059  1.00  0.00    -0.267 OA 
HETATM   35  O   UNL     5     -11.023  11.516  64.335  1.00  0.00    -0.332 OA 
HETATM   36  O   UNL     5      -9.265  10.746  63.061  1.00  0.00    -0.244 OA 
HETATM   37  H   UNL     5      -7.265  10.742  64.205  1.00  0.00     0.000 HD 
ENDBRANCH  29  32
ENDBRANCH  26  29
ENDBRANCH  23  26
ENDBRANCH   7  23
TORSDOF 8
ENDMDL
MODEL      438
REMARK 921   NORMALIZED FREE ENERGY PREDICTED BY IDOCK:   -3.34 KCAL/MOL
REMARK 922        TOTAL FREE ENERGY PREDICTED BY IDOCK:   -7.14 KCAL/MOL
REMARK 923 INTER-LIGAND FREE ENERGY PREDICTED BY IDOCK:   -6.25 KCAL/MOL
REMARK 924 INTRA-LIGAND FREE ENERGY PREDICTED BY IDOCK:   -0.88 KCAL/MOL
REMARK 927      BINDING AFFINITY PREDICTED BY RF-SCORE:    0.00 PKD
ROOT
HETATM    1 MG   UNL     3      -9.096  10.909  64.389  1.00  0.00    -0.172 Mg 
HETATM    2  O   UNL     4     -11.803  16.485  64.075  1.00  0.00    -1.269 OA 
HETATM    3  C   UNL     4     -10.755  15.684  64.585  1.00  0.00    -0.137 C  
HETATM    4  H   UNL     4     -11.523  17.059  63.371  1.00  0.00     0.000 HD 
HETATM    5  O   UNL     5      -8.717   5.482  69.831  1.00  0.00    -0.119 OA 
HETATM    6  H   UNL     5      -9.442   4.871  69.767  1.00  0.00     0.000 HD 
HETATM    7  C   UNL     5      -9.164   6.837  69.798  1.00  0.00    -0.146 C  
ENDROOT
BRANCH   3   8
HETATM    8  C   UNL     4     -11.209  14.758  65.722  1.00  0.00    -0.337 C  
HETATM    9  O   UNL     4     -12.011  13.690  65.185  1.00  0.00    -0.340 OA 
HETATM   10  H   UNL     4     -12.292  13.116  65.889  1.00  0.00     0.000 HD 
BRANCH   8  11
HETATM   11  C   UNL     4     -10.128  14.088  66.621  1.00  0.00    -0.276 C  
HETATM   12  O   UNL     4      -8.797  14.427  66.248  1.00  0.00    -0.475 OA 
HETATM   13  H   UNL     4      -8.138  14.019  66.797  1.00  0.00     0.000 HD 
BRANCH  11  14
HETATM   14  C   UNL     4     -10.319  14.153  68.161  1.00  0.00    -0.239 C  
HETATM   15  H   UNL     4      -9.122  14.426  69.680  1.00  0.00     0.000 HD 
HETATM   16  O   UNL     4      -9.005  14.387  68.738  1.00  0.00    -0.185 OA 
BRANCH  14  17
HETATM   17  C   UNL     4     -11.046  12.998  68.906  1.00  0.00    -0.262 C  
HETATM   18  C   UNL     4     -11.079  11.655  68.065  1.00  0.00    -0.242 C  
HETATM   19  H   UNL     4     -12.765  12.702  69.883  1.00  0.00     0.000 HD 
HETATM   20  O   UNL     4     -12.320  13.407  69.428  1.00  0.00    -0.236 OA 
HETATM   21  O   UNL     4      -9.986  11.432  67.392  1.00  0.00    -0.184 OA 
HETATM   22  O   UNL     4     -12.143  10.978  68.037  1.00  0.00    -0.615 OA 
ENDBRANCH  14  17
ENDBRANCH  11  14
ENDBRANCH   8  11
ENDBRANCH   3   8
BRANCH   7  23
HETATM   23  C   UNL     5      -7.988   7.830  69.902  1.00  0.00    -0.110 C  
HETATM   24  O   UNL     5      -6.769   7.084  69.877  1.00  0.00    -0.046 OA 
HETATM   25  H   UNL     5      -6.045   7.695  69.941  1.00  0.00     0.000 HD 
BRANCH  23  26
HETATM   26  C   UNL     5      -8.023   8.877  68.768  1.00  0.00    -0.102 C  
HETATM   27  O   UNL     5      -8.850   9.992  69.171  1.00  0.00    -0.146 OA 
HETATM   28  H   UNL     5      -8.871  10.637  68.473  1.00  0.00     0.000 HD 
BRANCH  26  29
HETATM   29  C   UNL     5      -6.667   9.388  68.207  1.00  0.00    -0.059 C  
HETATM   30  O   UNL     5      -5.617   8.430  68.334  1.00  0.00    -0.033 OA 
HETATM   31  H   UNL     5      -4.787   8.742  67.992  1.00  0.00     0.000 HD 
BRANCH  29  32
HETATM   32  C   UNL     5      -6.198  10.791  68.626  1.00  0.00    -0.043 C  
HETATM   33  C   UNL     5      -5.761  10.947  70.098  1.00  0.00    -0.088 C  
HETATM   34  O   UNL     5      -7.221  11.796  68.292  1.00  0.00    -0.072 OA 
HETATM   35  O   UNL     5      -5.190   9.954  70.639  1.00  0.00    -0.036 OA 
HETATM   36  O   UNL     5      -6.104  12.069  70.616  1.00  0.00    -0.285 OA 
HETATM   37  H   UNL     5      -6.932  12.662  68.550  1.00  0.00     0.000 HD 
ENDBRANCH  29  32
ENDBRANCH  26  29
ENDBRANCH  23  26
ENDBRANCH   7  23
TORSDOF 8
ENDMDL
MODEL      439
REMARK 921   NORMALIZED FREE ENERGY PREDICTED BY IDOCK:   -3.31 KCAL/MOL
REMARK 922        TOTAL FREE ENERGY PREDICTED BY IDOCK:   -7.11 KCAL/MOL
REMARK 923 INTER-LIGAND FREE ENERGY PREDICTED BY IDOCK:   -5.70 KCAL/MOL
REMARK 924 INTRA-LIGAND FREE ENERGY PREDICTED BY IDOCK:   -1.41 KCAL/MOL
REMARK 927      BINDING AFFINITY PREDICTED BY RF-SCORE:    0.00 PKD
ROOT
HETATM    1 MG   UNL     3      -8.688   5.162  70.854  1.00  0.00    -0.107 Mg 
HETATM    2  O   UNL     4      -7.460   1.712  65.844  1.00  0.00    -0.059 OA 
HETATM    3  C   UNL     4      -7.276   2.929  66.541  1.00  0.00    -0.065 C  
HETATM    4  H   UNL     4      -6.704   1.139  65.893  1.00  0.00     0.000 HD 
HETATM    5  O   UNL     5     -13.166  11.290  72.122  1.00  0.00    -0.579 OA 
HETATM    6  H   UNL     5     -14.048  11.035  72.366  1.00  0.00     0.000 HD 
HETATM    7  C   UNL     5     -12.720  10.601  70.955  1.00  0.00    -0.404 C  
ENDROOT
BRANCH   3   8
HETATM    8  C   UNL     4      -8.499   3.855  66.461  1.00  0.00    -0.105 C  
HETATM    9  O   UNL     4      -9.167   3.886  67.736  1.00  0.00    -0.139 OA 
HETATM   10  H   UNL     4      -9.924   4.458  67.686  1.00  0.00     0.000 HD 
BRANCH   8  11
HETATM   11  C   UNL     4      -8.291   5.338  66.036  1.00  0.00    -0.118 C  
HETATM   12  O   UNL     4      -9.055   5.709  64.894  1.00  0.00    -0.363 OA 
HETATM   13  H   UNL     4      -8.927   6.614  64.635  1.00  0.00     0.000 HD 
BRANCH  11  14
HETATM   14  C   UNL     4      -8.356   6.428  67.140  1.00  0.00    -0.112 C  
HETATM   15  H   UNL     4      -9.322   8.114  67.347  1.00  0.00     0.000 HD 
HETATM   16  O   UNL     4      -9.282   7.447  66.672  1.00  0.00    -0.145 OA 
BRANCH  14  17
HETATM   17  C   UNL     4      -7.048   7.081  67.671  1.00  0.00    -0.085 C  
HETATM   18  C   UNL     4      -6.716   6.657  69.161  1.00  0.00    -0.052 C  
HETATM   19  H   UNL     4      -6.212   8.895  67.752  1.00  0.00     0.000 HD 
HETATM   20  O   UNL     4      -7.012   8.496  67.429  1.00  0.00    -0.076 OA 
HETATM   21  O   UNL     4      -6.998   5.414  69.428  1.00  0.00    -0.055 OA 
HETATM   22  O   UNL     4      -6.308   7.537  69.970  1.00  0.00    -0.030 OA 
ENDBRANCH  14  17
ENDBRANCH  11  14
ENDBRANCH   8  11
ENDBRANCH   3   8
BRANCH   7  23
HETATM   23  C   UNL     5     -11.289  11.015  70.558  1.00  0.00    -0.022 C  
HETATM   24  O   UNL     5     -10.374  10.095  71.157  1.00  0.00    -0.134 OA 
HETATM   25  H   UNL     5      -9.492  10.350  70.913  1.00  0.00     0.000 HD 
BRANCH  23  26
HETATM   26  C   UNL     5     -11.111  11.058  69.025  1.00  0.00    -0.244 C  
HETATM   27  O   UNL     5     -12.339  10.637  68.388  1.00  0.00    -0.776 OA 
HETATM   28  H   UNL     5     -12.229  10.664  67.444  1.00  0.00     0.000 HD 
BRANCH  26  29
HETATM   29  C   UNL     5     -10.600  12.381  68.388  1.00  0.00    -0.236 C  
HETATM   30  O   UNL     5     -10.488  13.445  69.333  1.00  0.00    -0.431 OA 
HETATM   31  H   UNL     5     -10.176  14.254  68.944  1.00  0.00     0.000 HD 
BRANCH  29  32
HETATM   32  C   UNL     5     -11.265  12.856  67.086  1.00  0.00    -0.289 C  
HETATM   33  C   UNL     5     -10.314  13.412  66.005  1.00  0.00    -0.297 C  
HETATM   34  O   UNL     5     -12.328  13.831  67.378  1.00  0.00    -0.427 OA 
HETATM   35  O   UNL     5      -9.167  12.882  65.917  1.00  0.00    -0.041 OA 
HETATM   36  O   UNL     5     -10.799  14.412  65.365  1.00  0.00    -0.309 OA 
HETATM   37  H   UNL     5     -12.739  14.125  66.573  1.00  0.00     0.000 HD 
ENDBRANCH  29  32
ENDBRANCH  26  29
ENDBRANCH  23  26
ENDBRANCH   7  23
TORSDOF 8
ENDMDL
MODEL      440
REMARK 921   NORMALIZED FREE ENERGY PREDICTED BY IDOCK:   -3.30 KCAL/MOL
REMARK 922        TOTAL FREE ENERGY PREDICTED BY IDOCK:   -7.09 KCAL/MOL
REMARK 923 INTER-LIGAND FREE ENERGY PREDICTED BY IDOCK:   -6.18 KCAL/MOL
REMARK 924 INTRA-LIGAND FREE ENERGY PREDICTED BY IDOCK:   -0.91 KCAL/MOL
REMARK 927      BINDING AFFINITY PREDICTED BY RF-SCORE:    0.00 PKD
ROOT
HETATM    1 MG   UNL     3      -5.789  11.261  68.725  1.00  0.00    -0.045 Mg 
HETATM    2  O   UNL     4      -7.644  17.182  68.852  1.00  0.00    -0.247 OA 
HETATM    3  C   UNL     4      -7.806  15.860  69.329  1.00  0.00    -0.226 C  
HETATM    4  H   UNL     4      -7.214  17.752  69.478  1.00  0.00     0.000 HD 
HETATM    5  O   UNL     5      -8.727   4.832  65.684  1.00  0.00    -0.123 OA 
HETATM    6  H   UNL     5      -8.434   4.702  64.789  1.00  0.00     0.000 HD 
HETATM    7  C   UNL     5      -9.218   6.156  65.892  1.00  0.00    -0.045 C  
ENDROOT
BRANCH   3   8
HETATM    8  C   UNL     4      -8.501  14.939  68.316  1.00  0.00    -0.151 C  
HETATM    9  O   UNL     4      -8.011  13.593  68.470  1.00  0.00    -0.142 OA 
HETATM   10  H   UNL     4      -8.441  13.023  67.843  1.00  0.00     0.000 HD 
BRANCH   8  11
HETATM   11  C   UNL     4     -10.054  14.846  68.328  1.00  0.00    -0.221 C  
HETATM   12  O   UNL     4     -10.614  14.944  69.633  1.00  0.00    -0.285 OA 
HETATM   13  H   UNL     4     -11.562  14.888  69.640  1.00  0.00     0.000 HD 
BRANCH  11  14
HETATM   14  C   UNL     4     -10.843  15.710  67.307  1.00  0.00    -0.298 C  
HETATM   15  H   UNL     4     -11.818  15.334  65.656  1.00  0.00     0.000 HD 
HETATM   16  O   UNL     4     -11.335  14.806  66.281  1.00  0.00    -0.343 OA 
BRANCH  14  17
HETATM   17  C   UNL     4     -10.177  16.959  66.662  1.00  0.00    -0.312 C  
HETATM   18  C   UNL     4     -10.322  18.259  67.556  1.00  0.00    -0.398 C  
HETATM   19  H   UNL     4     -10.156  17.893  64.895  1.00  0.00     0.000 HD 
HETATM   20  O   UNL     4     -10.563  17.130  65.289  1.00  0.00    -0.662 OA 
HETATM   21  O   UNL     4     -10.216  18.030  68.834  1.00  0.00    -0.379 OA 
HETATM   22  O   UNL     4     -10.609  19.354  66.999  1.00  0.00    -0.427 OA 
ENDBRANCH  14  17
ENDBRANCH  11  14
ENDBRANCH   8  11
ENDBRANCH   3   8
BRANCH   7  23
HETATM   23  C   UNL     5      -9.694   6.367  67.344  1.00  0.00    -0.121 C  
HETATM   24  O   UNL     5      -9.444   5.166  68.076  1.00  0.00    -0.117 OA 
HETATM   25  H   UNL     5      -9.737   5.296  68.971  1.00  0.00     0.000 HD 
BRANCH  23  26
HETATM   26  C   UNL     5      -8.995   7.576  68.004  1.00  0.00    -0.129 C  
HETATM   27  O   UNL     5      -7.588   7.556  67.673  1.00  0.00    -0.107 OA 
HETATM   28  H   UNL     5      -7.158   8.300  68.079  1.00  0.00     0.000 HD 
BRANCH  26  29
HETATM   29  C   UNL     5      -9.589   8.989  67.745  1.00  0.00    -0.150 C  
HETATM   30  O   UNL     5     -11.015   9.009  67.786  1.00  0.00    -0.499 OA 
HETATM   31  H   UNL     5     -11.378   9.873  67.628  1.00  0.00     0.000 HD 
BRANCH  29  32
HETATM   32  C   UNL     5      -9.052   9.785  66.544  1.00  0.00    -0.153 C  
HETATM   33  C   UNL     5      -8.411  11.150  66.869  1.00  0.00    -0.147 C  
HETATM   34  O   UNL     5     -10.102   9.948  65.525  1.00  0.00    -0.303 OA 
HETATM   35  O   UNL     5      -7.779  11.246  67.963  1.00  0.00    -0.100 OA 
HETATM   36  O   UNL     5      -8.666  12.056  65.997  1.00  0.00    -0.050 OA 
HETATM   37  H   UNL     5      -9.771  10.440  64.783  1.00  0.00     0.000 HD 
ENDBRANCH  29  32
ENDBRANCH  26  29
ENDBRANCH  23  26
ENDBRANCH   7  23
TORSDOF 8
ENDMDL
MODEL      441
REMARK 921   NORMALIZED FREE ENERGY PREDICTED BY IDOCK:   -3.28 KCAL/MOL
REMARK 922        TOTAL FREE ENERGY PREDICTED BY IDOCK:   -7.06 KCAL/MOL
REMARK 923 INTER-LIGAND FREE ENERGY PREDICTED BY IDOCK:   -6.83 KCAL/MOL
REMARK 924 INTRA-LIGAND FREE ENERGY PREDICTED BY IDOCK:   -0.23 KCAL/MOL
REMARK 927      BINDING AFFINITY PREDICTED BY RF-SCORE:    0.00 PKD
ROOT
HETATM    1 MG   UNL     3     -14.150   9.585  72.993  1.00  0.00    -0.586 Mg 
HETATM    2  O   UNL     4     -13.630  15.626  71.666  1.00  0.00    -0.485 OA 
HETATM    3  C   UNL     4     -13.871  14.310  71.207  1.00  0.00    -0.228 C  
HETATM    4  H   UNL     4     -14.421  16.148  71.728  1.00  0.00     0.000 HD 
HETATM    5  O   UNL     5      -9.642   3.468  71.781  1.00  0.00    -0.132 OA 
HETATM    6  H   UNL     5      -9.031   3.336  72.496  1.00  0.00     0.000 HD 
HETATM    7  C   UNL     5      -9.639   4.820  71.324  1.00  0.00    -0.168 C  
ENDROOT
BRANCH   3   8
HETATM    8  C   UNL     4     -12.591  13.466  71.108  1.00  0.00    -0.345 C  
HETATM    9  O   UNL     4     -12.875  12.109  71.495  1.00  0.00    -0.374 OA 
HETATM   10  H   UNL     4     -12.083  11.587  71.434  1.00  0.00     0.000 HD 
BRANCH   8  11
HETATM   11  C   UNL     4     -11.848  13.389  69.742  1.00  0.00    -0.326 C  
HETATM   12  O   UNL     4     -10.800  14.345  69.617  1.00  0.00    -0.384 OA 
HETATM   13  H   UNL     4     -10.347  14.297  68.784  1.00  0.00     0.000 HD 
BRANCH  11  14
HETATM   14  C   UNL     4     -11.404  11.991  69.233  1.00  0.00    -0.268 C  
HETATM   15  H   UNL     4     -11.942  10.837  67.751  1.00  0.00     0.000 HD 
HETATM   16  O   UNL     4     -12.213  11.693  68.063  1.00  0.00    -0.551 OA 
BRANCH  14  17
HETATM   17  C   UNL     4     -11.380  10.778  70.206  1.00  0.00    -0.290 C  
HETATM   18  C   UNL     4     -10.074   9.894  70.047  1.00  0.00    -0.260 C  
HETATM   19  H   UNL     4     -12.597   9.297  70.772  1.00  0.00     0.000 HD 
HETATM   20  O   UNL     4     -12.611  10.038  70.178  1.00  0.00    -0.083 OA 
HETATM   21  O   UNL     4      -8.996  10.588  69.818  1.00  0.00    -0.054 OA 
HETATM   22  O   UNL     4     -10.183   8.637  70.059  1.00  0.00    -0.186 OA 
ENDBRANCH  14  17
ENDBRANCH  11  14
ENDBRANCH   8  11
ENDBRANCH   3   8
BRANCH   7  23
HETATM   23  C   UNL     5     -10.631   5.034  70.163  1.00  0.00    -0.045 C  
HETATM   24  O   UNL     5     -11.434   6.177  70.465  1.00  0.00    -0.342 OA 
HETATM   25  H   UNL     5     -12.045   6.309  69.750  1.00  0.00     0.000 HD 
BRANCH  23  26
HETATM   26  C   UNL     5      -9.902   5.207  68.813  1.00  0.00    -0.168 C  
HETATM   27  O   UNL     5      -9.976   3.971  68.067  1.00  0.00    -0.056 OA 
HETATM   28  H   UNL     5      -9.527   4.078  67.236  1.00  0.00     0.000 HD 
BRANCH  26  29
HETATM   29  C   UNL     5     -10.314   6.405  67.912  1.00  0.00    -0.190 C  
HETATM   30  O   UNL     5     -11.348   6.074  66.987  1.00  0.00    -0.543 OA 
HETATM   31  H   UNL     5     -11.600   6.807  66.436  1.00  0.00     0.000 HD 
BRANCH  29  32
HETATM   32  C   UNL     5      -9.195   7.214  67.236  1.00  0.00    -0.130 C  
HETATM   33  C   UNL     5      -9.653   8.367  66.319  1.00  0.00    -0.216 C  
HETATM   34  O   UNL     5      -8.281   6.319  66.508  1.00  0.00    -0.108 OA 
HETATM   35  O   UNL     5     -10.704   8.990  66.655  1.00  0.00    -0.159 OA 
HETATM   36  O   UNL     5      -8.929   8.503  65.269  1.00  0.00    -0.154 OA 
HETATM   37  H   UNL     5      -7.590   6.818  66.090  1.00  0.00     0.000 HD 
ENDBRANCH  29  32
ENDBRANCH  26  29
ENDBRANCH  23  26
ENDBRANCH   7  23
TORSDOF 8
ENDMDL
MODEL      442
REMARK 921   NORMALIZED FREE ENERGY PREDICTED BY IDOCK:   -3.26 KCAL/MOL
REMARK 922        TOTAL FREE ENERGY PREDICTED BY IDOCK:   -7.03 KCAL/MOL
REMARK 923 INTER-LIGAND FREE ENERGY PREDICTED BY IDOCK:   -6.00 KCAL/MOL
REMARK 924 INTRA-LIGAND FREE ENERGY PREDICTED BY IDOCK:   -1.03 KCAL/MOL
REMARK 927      BINDING AFFINITY PREDICTED BY RF-SCORE:    0.00 PKD
ROOT
HETATM    1 MG   UNL     3      -8.742   7.724  69.548  1.00  0.00    -0.122 Mg 
HETATM    2  O   UNL     4      -5.928   3.865  65.584  1.00  0.00    -0.022 OA 
HETATM    3  C   UNL     4      -5.916   5.101  66.274  1.00  0.00    -0.023 C  
HETATM    4  H   UNL     4      -5.332   3.227  65.959  1.00  0.00     0.000 HD 
HETATM    5  O   UNL     5     -12.614  14.319  68.703  1.00  0.00    -0.506 OA 
HETATM    6  H   UNL     5     -13.540  14.166  68.555  1.00  0.00     0.000 HD 
HETATM    7  C   UNL     5     -11.801  13.519  67.845  1.00  0.00    -0.362 C  
ENDROOT
BRANCH   3   8
HETATM    8  C   UNL     4      -6.879   6.132  65.669  1.00  0.00    -0.053 C  
HETATM    9  O   UNL     4      -7.065   5.858  64.268  1.00  0.00    -0.049 OA 
HETATM   10  H   UNL     4      -7.661   6.497  63.893  1.00  0.00     0.000 HD 
BRANCH   8  11
HETATM   11  C   UNL     4      -8.303   6.279  66.282  1.00  0.00    -0.122 C  
HETATM   12  O   UNL     4      -9.205   6.994  65.444  1.00  0.00    -0.360 OA 
HETATM   13  H   UNL     4     -10.074   7.083  65.819  1.00  0.00     0.000 HD 
BRANCH  11  14
HETATM   14  C   UNL     4      -8.971   5.013  66.885  1.00  0.00    -0.112 C  
HETATM   15  H   UNL     4     -10.196   3.653  66.203  1.00  0.00     0.000 HD 
HETATM   16  O   UNL     4      -9.788   4.428  65.834  1.00  0.00    -0.189 OA 
BRANCH  14  17
HETATM   17  C   UNL     4      -9.776   5.113  68.212  1.00  0.00    -0.142 C  
HETATM   18  C   UNL     4     -10.825   6.301  68.201  1.00  0.00    -0.320 C  
HETATM   19  H   UNL     4      -9.413   5.140  70.177  1.00  0.00     0.000 HD 
HETATM   20  O   UNL     4      -8.922   5.080  69.367  1.00  0.00    -0.090 OA 
HETATM   21  O   UNL     4     -11.410   6.472  67.050  1.00  0.00    -0.342 OA 
HETATM   22  O   UNL     4     -10.944   7.019  69.232  1.00  0.00    -0.228 OA 
ENDBRANCH  14  17
ENDBRANCH  11  14
ENDBRANCH   8  11
ENDBRANCH   3   8
BRANCH   7  23
HETATM   23  C   UNL     5     -10.299  13.768  68.085  1.00  0.00    -0.252 C  
HETATM   24  O   UNL     5      -9.618  13.640  66.835  1.00  0.00    -0.245 OA 
HETATM   25  H   UNL     5      -8.693  13.794  66.983  1.00  0.00     0.000 HD 
BRANCH  23  26
HETATM   26  C   UNL     5     -10.043  15.154  68.718  1.00  0.00    -0.226 C  
HETATM   27  O   UNL     5      -9.898  15.008  70.149  1.00  0.00    -0.488 OA 
HETATM   28  H   UNL     5      -9.741  15.860  70.538  1.00  0.00     0.000 HD 
BRANCH  26  29
HETATM   29  C   UNL     5      -8.883  16.013  68.144  1.00  0.00    -0.178 C  
HETATM   30  O   UNL     5      -7.594  15.490  68.463  1.00  0.00    -0.119 OA 
HETATM   31  H   UNL     5      -6.884  16.015  68.112  1.00  0.00     0.000 HD 
BRANCH  29  32
HETATM   32  C   UNL     5      -8.939  17.534  68.359  1.00  0.00    -0.276 C  
HETATM   33  C   UNL     5      -9.615  18.352  67.239  1.00  0.00    -0.288 C  
HETATM   34  O   UNL     5      -7.594  18.065  68.634  1.00  0.00    -0.280 OA 
HETATM   35  O   UNL     5     -10.588  17.810  66.635  1.00  0.00    -0.314 OA 
HETATM   36  O   UNL     5      -9.043  19.477  67.012  1.00  0.00    -0.294 OA 
HETATM   37  H   UNL     5      -7.628  19.004  68.768  1.00  0.00     0.000 HD 
ENDBRANCH  29  32
ENDBRANCH  26  29
ENDBRANCH  23  26
ENDBRANCH   7  23
TORSDOF 8
ENDMDL
MODEL      443
REMARK 921   NORMALIZED FREE ENERGY PREDICTED BY IDOCK:   -3.24 KCAL/MOL
REMARK 922        TOTAL FREE ENERGY PREDICTED BY IDOCK:   -7.00 KCAL/MOL
REMARK 923 INTER-LIGAND FREE ENERGY PREDICTED BY IDOCK:   -5.86 KCAL/MOL
REMARK 924 INTRA-LIGAND FREE ENERGY PREDICTED BY IDOCK:   -1.14 KCAL/MOL
REMARK 927      BINDING AFFINITY PREDICTED BY RF-SCORE:    0.00 PKD
ROOT
HETATM    1 MG   UNL     3     -10.656  12.063  66.693  1.00  0.00    -0.209 Mg 
HETATM    2  O   UNL     4      -8.521  17.833  65.878  1.00  0.00    -0.522 OA 
HETATM    3  C   UNL     4      -8.258  16.443  65.885  1.00  0.00     0.215 C  
HETATM    4  H   UNL     4      -8.584  18.194  65.001  1.00  0.00     0.000 HD 
HETATM    5  O   UNL     5      -9.848   6.835  72.281  1.00  0.00    -0.157 OA 
HETATM    6  H   UNL     5     -10.517   6.930  72.949  1.00  0.00     0.000 HD 
HETATM    7  C   UNL     5      -9.222   8.082  71.979  1.00  0.00    -0.171 C  
ENDROOT
BRANCH   3   8
HETATM    8  C   UNL     4      -8.155  15.861  67.303  1.00  0.00    -0.184 C  
HETATM    9  O   UNL     4      -6.948  16.331  67.932  1.00  0.00    -0.126 OA 
HETATM   10  H   UNL     4      -6.885  15.970  68.809  1.00  0.00     0.000 HD 
BRANCH   8  11
HETATM   11  C   UNL     4      -9.312  16.130  68.309  1.00  0.00    -0.205 C  
HETATM   12  O   UNL     4      -8.968  17.068  69.324  1.00  0.00    -0.106 OA 
HETATM   13  H   UNL     4      -9.674  17.232  69.938  1.00  0.00     0.000 HD 
BRANCH  11  14
HETATM   14  C   UNL     4     -10.727  16.410  67.736  1.00  0.00    -0.328 C  
HETATM   15  H   UNL     4     -11.839  18.004  67.546  1.00  0.00     0.000 HD 
HETATM   16  O   UNL     4     -10.973  17.834  67.897  1.00  0.00    -0.308 OA 
BRANCH  14  17
HETATM   17  C   UNL     4     -11.948  15.584  68.233  1.00  0.00    -0.039 C  
HETATM   18  C   UNL     4     -11.962  15.405  69.808  1.00  0.00    -0.358 C  
HETATM   19  H   UNL     4     -12.861  13.861  67.795  1.00  0.00     0.000 HD 
HETATM   20  O   UNL     4     -12.116  14.365  67.491  1.00  0.00    -0.377 OA 
HETATM   21  O   UNL     4     -11.558  16.459  70.458  1.00  0.00    -0.281 OA 
HETATM   22  O   UNL     4     -12.260  14.278  70.292  1.00  0.00    -0.301 OA 
ENDBRANCH  14  17
ENDBRANCH  11  14
ENDBRANCH   8  11
ENDBRANCH   3   8
BRANCH   7  23
HETATM   23  C   UNL     5      -8.136   7.928  70.895  1.00  0.00    -0.101 C  
HETATM   24  O   UNL     5      -7.532   6.642  71.045  1.00  0.00    -0.081 OA 
HETATM   25  H   UNL     5      -6.863   6.548  70.378  1.00  0.00     0.000 HD 
BRANCH  23  26
HETATM   26  C   UNL     5      -8.716   8.109  69.475  1.00  0.00    -0.142 C  
HETATM   27  O   UNL     5      -9.580   6.991  69.165  1.00  0.00    -0.150 OA 
HETATM   28  H   UNL     5      -9.937   7.102  68.292  1.00  0.00     0.000 HD 
BRANCH  26  29
HETATM   29  C   UNL     5      -9.431   9.449  69.146  1.00  0.00    -0.163 C  
HETATM   30  O   UNL     5      -8.901  10.555  69.876  1.00  0.00    -0.377 OA 
HETATM   31  H   UNL     5      -9.338  11.374  69.675  1.00  0.00     0.000 HD 
BRANCH  29  32
HETATM   32  C   UNL     5     -10.968   9.463  69.145  1.00  0.00    -0.090 C  
HETATM   33  C   UNL     5     -11.632  10.829  69.415  1.00  0.00    -0.308 C  
HETATM   34  O   UNL     5     -11.492   8.451  70.077  1.00  0.00    -0.456 OA 
HETATM   35  O   UNL     5     -11.038  11.857  68.974  1.00  0.00    -0.229 OA 
HETATM   36  O   UNL     5     -12.694  10.748  70.129  1.00  0.00    -0.301 OA 
HETATM   37  H   UNL     5     -12.441   8.459  70.077  1.00  0.00     0.000 HD 
ENDBRANCH  29  32
ENDBRANCH  26  29
ENDBRANCH  23  26
ENDBRANCH   7  23
TORSDOF 8
ENDMDL
MODEL      444
REMARK 921   NORMALIZED FREE ENERGY PREDICTED BY IDOCK:   -3.22 KCAL/MOL
REMARK 922        TOTAL FREE ENERGY PREDICTED BY IDOCK:   -6.97 KCAL/MOL
REMARK 923 INTER-LIGAND FREE ENERGY PREDICTED BY IDOCK:   -5.72 KCAL/MOL
REMARK 924 INTRA-LIGAND FREE ENERGY PREDICTED BY IDOCK:   -1.26 KCAL/MOL
REMARK 927      BINDING AFFINITY PREDICTED BY RF-SCORE:    0.00 PKD
ROOT
HETATM    1 MG   UNL     3      -6.122   7.874  69.844  1.00  0.00    -0.025 Mg 
HETATM    2  O   UNL     4      -8.892   3.000  72.507  1.00  0.00    -0.081 OA 
HETATM    3  C   UNL     4      -8.803   3.877  71.401  1.00  0.00    -0.100 C  
HETATM    4  H   UNL     4      -8.514   2.145  72.334  1.00  0.00     0.000 HD 
HETATM    5  O   UNL     5      -8.203  15.190  68.680  1.00  0.00    -0.137 OA 
HETATM    6  H   UNL     5      -7.959  15.744  69.411  1.00  0.00     0.000 HD 
HETATM    7  C   UNL     5      -8.884  14.012  69.111  1.00  0.00     0.306 C  
ENDROOT
BRANCH   3   8
HETATM    8  C   UNL     4      -9.413   5.258  71.682  1.00  0.00    -0.149 C  
HETATM    9  O   UNL     4      -8.367   6.246  71.741  1.00  0.00    -0.120 OA 
HETATM   10  H   UNL     4      -8.744   7.100  71.916  1.00  0.00     0.000 HD 
BRANCH   8  11
HETATM   11  C   UNL     4     -10.490   5.815  70.706  1.00  0.00    -0.258 C  
HETATM   12  O   UNL     4     -11.397   6.720  71.327  1.00  0.00    -0.262 OA 
HETATM   13  H   UNL     4     -12.055   7.060  70.731  1.00  0.00     0.000 HD 
BRANCH  11  14
HETATM   14  C   UNL     4     -10.019   6.344  69.324  1.00  0.00    -0.153 C  
HETATM   15  H   UNL     4      -8.494   5.971  68.162  1.00  0.00     0.000 HD 
HETATM   16  O   UNL     4      -8.782   5.647  69.007  1.00  0.00    -0.104 OA 
BRANCH  14  17
HETATM   17  C   UNL     4      -9.862   7.873  69.086  1.00  0.00    -0.174 C  
HETATM   18  C   UNL     4      -9.892   8.257  67.549  1.00  0.00    -0.177 C  
HETATM   19  H   UNL     4      -8.661   9.358  69.675  1.00  0.00     0.000 HD 
HETATM   20  O   UNL     4      -8.757   8.424  69.819  1.00  0.00    -0.130 OA 
HETATM   21  O   UNL     4     -10.738   7.556  66.850  1.00  0.00    -0.352 OA 
HETATM   22  O   UNL     4      -9.068   9.109  67.117  1.00  0.00    -0.125 OA 
ENDBRANCH  14  17
ENDBRANCH  11  14
ENDBRANCH   8  11
ENDBRANCH   3   8
BRANCH   7  23
HETATM   23  C   UNL     5      -9.280  13.112  67.923  1.00  0.00    -0.207 C  
HETATM   24  O   UNL     5     -10.241  12.161  68.383  1.00  0.00    -0.203 OA 
HETATM   25  H   UNL     5     -10.485  11.607  67.651  1.00  0.00     0.000 HD 
BRANCH  23  26
HETATM   26  C   UNL     5      -9.834  13.938  66.742  1.00  0.00    -0.274 C  
HETATM   27  O   UNL     5      -8.936  15.035  66.460  1.00  0.00    -0.269 OA 
HETATM   28  H   UNL     5      -9.277  15.542  65.733  1.00  0.00     0.000 HD 
BRANCH  26  29
HETATM   29  C   UNL     5     -10.190  13.183  65.431  1.00  0.00    -0.290 C  
HETATM   30  O   UNL     5      -9.592  13.767  64.274  1.00  0.00    -0.352 OA 
HETATM   31  H   UNL     5      -9.810  13.305  63.472  1.00  0.00     0.000 HD 
BRANCH  29  32
HETATM   32  C   UNL     5     -11.666  12.832  65.182  1.00  0.00    -0.360 C  
HETATM   33  C   UNL     5     -12.625  14.027  64.999  1.00  0.00    -0.390 C  
HETATM   34  O   UNL     5     -12.167  11.936  66.237  1.00  0.00    -0.471 OA 
HETATM   35  O   UNL     5     -12.162  15.055  64.421  1.00  0.00    -0.469 OA 
HETATM   36  O   UNL     5     -13.776  13.845  65.533  1.00  0.00    -0.389 OA 
HETATM   37  H   UNL     5     -13.079  11.719  66.084  1.00  0.00     0.000 HD 
ENDBRANCH  29  32
ENDBRANCH  26  29
ENDBRANCH  23  26
ENDBRANCH   7  23
TORSDOF 8
ENDMDL
MODEL      445
REMARK 921   NORMALIZED FREE ENERGY PREDICTED BY IDOCK:   -3.21 KCAL/MOL
REMARK 922        TOTAL FREE ENERGY PREDICTED BY IDOCK:   -6.95 KCAL/MOL
REMARK 923 INTER-LIGAND FREE ENERGY PREDICTED BY IDOCK:   -5.23 KCAL/MOL
REMARK 924 INTRA-LIGAND FREE ENERGY PREDICTED BY IDOCK:   -1.73 KCAL/MOL
REMARK 927      BINDING AFFINITY PREDICTED BY RF-SCORE:    0.00 PKD
ROOT
HETATM    1 MG   UNL     3     -10.808  10.119  67.161  1.00  0.00    -0.198 Mg 
HETATM    2  O   UNL     4     -13.757  11.728  72.380  1.00  0.00    -0.487 OA 
HETATM    3  C   UNL     4     -12.583  11.232  71.765  1.00  0.00    -0.161 C  
HETATM    4  H   UNL     4     -13.676  12.634  72.655  1.00  0.00     0.000 HD 
HETATM    5  O   UNL     5      -8.911   3.369  63.991  1.00  0.00    -0.096 OA 
HETATM    6  H   UNL     5      -9.602   3.040  63.428  1.00  0.00     0.000 HD 
HETATM    7  C   UNL     5      -9.412   3.771  65.266  1.00  0.00    -0.168 C  
ENDROOT
BRANCH   3   8
HETATM    8  C   UNL     4     -12.713   9.768  71.320  1.00  0.00    -0.369 C  
HETATM    9  O   UNL     4     -13.791   9.644  70.373  1.00  0.00    -0.377 OA 
HETATM   10  H   UNL     4     -13.871   8.738  70.098  1.00  0.00     0.000 HD 
BRANCH   8  11
HETATM   11  C   UNL     4     -11.480   9.067  70.679  1.00  0.00    -0.248 C  
HETATM   12  O   UNL     4     -10.236   9.613  71.107  1.00  0.00    -0.272 OA 
HETATM   13  H   UNL     4      -9.484   9.184  70.715  1.00  0.00     0.000 HD 
BRANCH  11  14
HETATM   14  C   UNL     4     -11.446   7.514  70.674  1.00  0.00    -0.269 C  
HETATM   15  H   UNL     4     -12.804   6.113  70.763  1.00  0.00     0.000 HD 
HETATM   16  O   UNL     4     -12.825   7.062  70.766  1.00  0.00    -0.246 OA 
BRANCH  14  17
HETATM   17  C   UNL     4     -10.551   6.751  71.692  1.00  0.00    -0.214 C  
HETATM   18  C   UNL     4     -10.527   5.188  71.431  1.00  0.00    -0.179 C  
HETATM   19  H   UNL     4     -10.288   6.660  73.671  1.00  0.00     0.000 HD 
HETATM   20  O   UNL     4     -10.834   7.126  73.049  1.00  0.00    -0.280 OA 
HETATM   21  O   UNL     4     -10.525   4.868  70.168  1.00  0.00    -0.244 OA 
HETATM   22  O   UNL     4     -10.602   4.403  72.416  1.00  0.00    -0.177 OA 
ENDBRANCH  14  17
ENDBRANCH  11  14
ENDBRANCH   8  11
ENDBRANCH   3   8
BRANCH   7  23
HETATM   23  C   UNL     5      -8.291   4.305  66.178  1.00  0.00    -0.109 C  
HETATM   24  O   UNL     5      -7.062   3.691  65.785  1.00  0.00    -0.060 OA 
HETATM   25  H   UNL     5      -6.371   4.021  66.347  1.00  0.00     0.000 HD 
BRANCH  23  26
HETATM   26  C   UNL     5      -8.188   5.845  66.116  1.00  0.00    -0.116 C  
HETATM   27  O   UNL     5      -7.147   6.293  67.013  1.00  0.00    -0.069 OA 
HETATM   28  H   UNL     5      -7.084   7.240  66.974  1.00  0.00     0.000 HD 
BRANCH  26  29
HETATM   29  C   UNL     5      -8.017   6.506  64.720  1.00  0.00    -0.120 C  
HETATM   30  O   UNL     5      -6.981   5.906  63.944  1.00  0.00    -0.047 OA 
HETATM   31  H   UNL     5      -6.876   6.310  63.090  1.00  0.00     0.000 HD 
BRANCH  29  32
HETATM   32  C   UNL     5      -7.948   8.041  64.655  1.00  0.00    -0.151 C  
HETATM   33  C   UNL     5      -6.677   8.686  65.244  1.00  0.00    -0.067 C  
HETATM   34  O   UNL     5      -9.149   8.636  65.265  1.00  0.00    -0.377 OA 
HETATM   35  O   UNL     5      -5.591   8.046  65.115  1.00  0.00    -0.039 OA 
HETATM   36  O   UNL     5      -6.903   9.786  65.865  1.00  0.00    -0.088 OA 
HETATM   37  H   UNL     5      -9.106   9.583  65.225  1.00  0.00     0.000 HD 
ENDBRANCH  29  32
ENDBRANCH  26  29
ENDBRANCH  23  26
ENDBRANCH   7  23
TORSDOF 8
ENDMDL
MODEL      446
REMARK 921   NORMALIZED FREE ENERGY PREDICTED BY IDOCK:   -3.21 KCAL/MOL
REMARK 922        TOTAL FREE ENERGY PREDICTED BY IDOCK:   -6.95 KCAL/MOL
REMARK 923 INTER-LIGAND FREE ENERGY PREDICTED BY IDOCK:   -5.76 KCAL/MOL
REMARK 924 INTRA-LIGAND FREE ENERGY PREDICTED BY IDOCK:   -1.19 KCAL/MOL
REMARK 927      BINDING AFFINITY PREDICTED BY RF-SCORE:    0.00 PKD
ROOT
HETATM    1 MG   UNL     3      -8.801   7.660  69.298  1.00  0.00    -0.126 Mg 
HETATM    2  O   UNL     4      -5.836   3.686  65.566  1.00  0.00    -0.021 OA 
HETATM    3  C   UNL     4      -5.837   4.928  66.244  1.00  0.00    -0.022 C  
HETATM    4  H   UNL     4      -5.284   3.036  65.985  1.00  0.00     0.000 HD 
HETATM    5  O   UNL     5     -12.429  14.346  68.136  1.00  0.00    -0.579 OA 
HETATM    6  H   UNL     5     -13.347  14.215  67.929  1.00  0.00     0.000 HD 
HETATM    7  C   UNL     5     -11.583  13.515  67.342  1.00  0.00    -0.356 C  
ENDROOT
BRANCH   3   8
HETATM    8  C   UNL     4      -6.730   5.978  65.567  1.00  0.00    -0.048 C  
HETATM    9  O   UNL     4      -6.666   5.818  64.137  1.00  0.00    -0.042 OA 
HETATM   10  H   UNL     4      -7.219   6.468  63.718  1.00  0.00     0.000 HD 
BRANCH   8  11
HETATM   11  C   UNL     4      -8.240   6.030  65.938  1.00  0.00    -0.129 C  
HETATM   12  O   UNL     4      -9.025   6.762  65.003  1.00  0.00    -0.347 OA 
HETATM   13  H   UNL     4      -9.947   6.793  65.230  1.00  0.00     0.000 HD 
BRANCH  11  14
HETATM   14  C   UNL     4      -8.937   4.703  66.345  1.00  0.00    -0.114 C  
HETATM   15  H   UNL     4     -10.202   3.495  65.476  1.00  0.00     0.000 HD 
HETATM   16  O   UNL     4      -9.776   4.307  65.226  1.00  0.00    -0.174 OA 
BRANCH  14  17
HETATM   17  C   UNL     4      -9.729   4.616  67.681  1.00  0.00    -0.161 C  
HETATM   18  C   UNL     4     -10.756   5.809  67.860  1.00  0.00    -0.213 C  
HETATM   19  H   UNL     4      -9.350   4.340  69.625  1.00  0.00     0.000 HD 
HETATM   20  O   UNL     4      -8.867   4.394  68.809  1.00  0.00    -0.092 OA 
HETATM   21  O   UNL     4     -11.347   6.162  66.755  1.00  0.00    -0.188 OA 
HETATM   22  O   UNL     4     -10.854   6.367  68.988  1.00  0.00    -0.261 OA 
ENDBRANCH  14  17
ENDBRANCH  11  14
ENDBRANCH   8  11
ENDBRANCH   3   8
BRANCH   7  23
HETATM   23  C   UNL     5     -10.094  13.728  67.679  1.00  0.00    -0.242 C  
HETATM   24  O   UNL     5      -9.883  13.346  69.040  1.00  0.00    -0.413 OA 
HETATM   25  H   UNL     5      -8.965  13.477  69.247  1.00  0.00     0.000 HD 
BRANCH  23  26
HETATM   26  C   UNL     5      -9.174  12.930  66.729  1.00  0.00    -0.230 C  
HETATM   27  O   UNL     5      -7.830  12.919  67.261  1.00  0.00    -0.211 OA 
HETATM   28  H   UNL     5      -7.264  12.428  66.676  1.00  0.00     0.000 HD 
BRANCH  26  29
HETATM   29  C   UNL     5      -9.608  11.491  66.334  1.00  0.00    -0.209 C  
HETATM   30  O   UNL     5      -9.280  10.519  67.326  1.00  0.00    -0.143 OA 
HETATM   31  H   UNL     5      -9.546   9.639  67.084  1.00  0.00     0.000 HD 
BRANCH  29  32
HETATM   32  C   UNL     5      -9.252  10.994  64.923  1.00  0.00    -0.188 C  
HETATM   33  C   UNL     5     -10.059  11.614  63.763  1.00  0.00    -0.381 C  
HETATM   34  O   UNL     5      -9.323   9.525  64.862  1.00  0.00    -0.306 OA 
HETATM   35  O   UNL     5     -10.408  12.826  63.885  1.00  0.00    -0.420 OA 
HETATM   36  O   UNL     5     -10.337  10.778  62.831  1.00  0.00    -0.139 OA 
HETATM   37  H   UNL     5      -9.103   9.218  63.991  1.00  0.00     0.000 HD 
ENDBRANCH  29  32
ENDBRANCH  26  29
ENDBRANCH  23  26
ENDBRANCH   7  23
TORSDOF 8
ENDMDL
MODEL      447
REMARK 921   NORMALIZED FREE ENERGY PREDICTED BY IDOCK:   -3.16 KCAL/MOL
REMARK 922        TOTAL FREE ENERGY PREDICTED BY IDOCK:   -6.88 KCAL/MOL
REMARK 923 INTER-LIGAND FREE ENERGY PREDICTED BY IDOCK:   -5.71 KCAL/MOL
REMARK 924 INTRA-LIGAND FREE ENERGY PREDICTED BY IDOCK:   -1.18 KCAL/MOL
REMARK 927      BINDING AFFINITY PREDICTED BY RF-SCORE:    0.00 PKD
ROOT
HETATM    1 MG   UNL     3     -11.136   6.506  66.145  1.00  0.00    -0.454 Mg 
HETATM    2  O   UNL     4     -10.360  11.738  62.900  1.00  0.00    -0.641 OA 
HETATM    3  C   UNL     4      -9.804  10.762  63.759  1.00  0.00    -0.339 C  
HETATM    4  H   UNL     4     -10.074  11.645  61.998  1.00  0.00     0.000 HD 
HETATM    5  O   UNL     5     -11.903   4.966  73.646  1.00  0.00    -0.372 OA 
HETATM    6  H   UNL     5     -12.812   4.997  73.918  1.00  0.00     0.000 HD 
HETATM    7  C   UNL     5     -11.536   6.122  72.893  1.00  0.00    -0.113 C  
ENDROOT
BRANCH   3   8
HETATM    8  C   UNL     4     -10.266  10.913  65.215  1.00  0.00    -0.288 C  
HETATM    9  O   UNL     4     -10.336   9.617  65.838  1.00  0.00    -0.207 OA 
HETATM   10  H   UNL     4     -10.623   9.710  66.739  1.00  0.00     0.000 HD 
BRANCH   8  11
HETATM   11  C   UNL     4      -9.439  11.819  66.175  1.00  0.00    -0.226 C  
HETATM   12  O   UNL     4     -10.241  12.508  67.128  1.00  0.00    -0.216 OA 
HETATM   13  H   UNL     4      -9.736  13.060  67.713  1.00  0.00     0.000 HD 
BRANCH  11  14
HETATM   14  C   UNL     4      -8.169  11.215  66.833  1.00  0.00    -0.149 C  
HETATM   15  H   UNL     4      -7.050  11.705  68.357  1.00  0.00     0.000 HD 
HETATM   16  O   UNL     4      -7.827  12.074  67.954  1.00  0.00    -0.124 OA 
BRANCH  14  17
HETATM   17  C   UNL     4      -6.910  10.916  65.969  1.00  0.00    -0.072 C  
HETATM   18  C   UNL     4      -6.516   9.381  65.977  1.00  0.00    -0.069 C  
HETATM   19  H   UNL     4      -5.059  11.631  65.733  1.00  0.00     0.000 HD 
HETATM   20  O   UNL     4      -5.828  11.813  66.261  1.00  0.00    -0.192 OA 
HETATM   21  O   UNL     4      -7.541   8.577  65.965  1.00  0.00    -0.086 OA 
HETATM   22  O   UNL     4      -5.299   9.063  66.082  1.00  0.00    -0.033 OA 
ENDBRANCH  14  17
ENDBRANCH  11  14
ENDBRANCH   8  11
ENDBRANCH   3   8
BRANCH   7  23
HETATM   23  C   UNL     5     -10.059   6.071  72.451  1.00  0.00    -0.175 C  
HETATM   24  O   UNL     5     -10.023   5.945  71.028  1.00  0.00    -0.180 OA 
HETATM   25  H   UNL     5      -9.113   5.914  70.755  1.00  0.00     0.000 HD 
BRANCH  23  26
HETATM   26  C   UNL     5      -9.279   7.319  72.919  1.00  0.00    -0.147 C  
HETATM   27  O   UNL     5      -7.867   7.014  72.959  1.00  0.00    -0.093 OA 
HETATM   28  H   UNL     5      -7.387   7.781  73.247  1.00  0.00     0.000 HD 
BRANCH  26  29
HETATM   29  C   UNL     5      -9.520   8.654  72.162  1.00  0.00    -0.303 C  
HETATM   30  O   UNL     5     -10.902   9.001  72.072  1.00  0.00    -0.352 OA 
HETATM   31  H   UNL     5     -11.049   9.818  71.610  1.00  0.00     0.000 HD 
BRANCH  29  32
HETATM   32  C   UNL     5      -8.804   8.858  70.817  1.00  0.00    -0.208 C  
HETATM   33  C   UNL     5      -9.700   9.261  69.627  1.00  0.00    -0.182 C  
HETATM   34  O   UNL     5      -8.008   7.668  70.473  1.00  0.00    -0.097 OA 
HETATM   35  O   UNL     5     -10.693  10.005  69.879  1.00  0.00    -0.245 OA 
HETATM   36  O   UNL     5      -9.351   8.719  68.519  1.00  0.00    -0.141 OA 
HETATM   37  H   UNL     5      -7.566   7.793  69.643  1.00  0.00     0.000 HD 
ENDBRANCH  29  32
ENDBRANCH  26  29
ENDBRANCH  23  26
ENDBRANCH   7  23
TORSDOF 8
ENDMDL
MODEL      448
REMARK 921   NORMALIZED FREE ENERGY PREDICTED BY IDOCK:   -3.16 KCAL/MOL
REMARK 922        TOTAL FREE ENERGY PREDICTED BY IDOCK:   -6.88 KCAL/MOL
REMARK 923 INTER-LIGAND FREE ENERGY PREDICTED BY IDOCK:   -5.57 KCAL/MOL
REMARK 924 INTRA-LIGAND FREE ENERGY PREDICTED BY IDOCK:   -1.31 KCAL/MOL
REMARK 927      BINDING AFFINITY PREDICTED BY RF-SCORE:    0.00 PKD
ROOT
HETATM    1 MG   UNL     3      -6.116   7.828  69.083  1.00  0.00    -0.027 Mg 
HETATM    2  O   UNL     4      -9.571   3.450  71.806  1.00  0.00    -0.133 OA 
HETATM    3  C   UNL     4      -9.412   4.368  70.742  1.00  0.00    -0.173 C  
HETATM    4  H   UNL     4      -9.404   2.550  71.548  1.00  0.00     0.000 HD 
HETATM    5  O   UNL     5      -6.697  15.481  68.532  1.00  0.00    -0.108 OA 
HETATM    6  H   UNL     5      -6.266  15.918  69.257  1.00  0.00     0.000 HD 
HETATM    7  C   UNL     5      -7.565  14.441  68.981  1.00  0.00    -0.106 C  
ENDROOT
BRANCH   3   8
HETATM    8  C   UNL     4      -9.681   5.821  71.160  1.00  0.00    -0.169 C  
HETATM    9  O   UNL     4      -8.431   6.496  71.394  1.00  0.00    -0.124 OA 
HETATM   10  H   UNL     4      -8.597   7.395  71.653  1.00  0.00     0.000 HD 
BRANCH   8  11
HETATM   11  C   UNL     4     -10.504   6.736  70.207  1.00  0.00    -0.207 C  
HETATM   12  O   UNL     4     -11.287   7.705  70.895  1.00  0.00    -0.268 OA 
HETATM   13  H   UNL     4     -11.789   8.264  70.313  1.00  0.00     0.000 HD 
BRANCH  11  14
HETATM   14  C   UNL     4      -9.776   7.358  68.985  1.00  0.00    -0.160 C  
HETATM   15  H   UNL     4      -9.562   9.174  68.295  1.00  0.00     0.000 HD 
HETATM   16  O   UNL     4     -10.008   8.793  69.043  1.00  0.00    -0.181 OA 
BRANCH  14  17
HETATM   17  C   UNL     4     -10.051   6.817  67.553  1.00  0.00    -0.170 C  
HETATM   18  C   UNL     4      -8.762   6.188  66.880  1.00  0.00    -0.109 C  
HETATM   19  H   UNL     4     -10.916   7.442  65.863  1.00  0.00     0.000 HD 
HETATM   20  O   UNL     4     -10.747   7.773  66.737  1.00  0.00    -0.311 OA 
HETATM   21  O   UNL     4      -8.007   5.527  67.710  1.00  0.00    -0.099 OA 
HETATM   22  O   UNL     4      -8.523   6.439  65.667  1.00  0.00    -0.143 OA 
ENDBRANCH  14  17
ENDBRANCH  11  14
ENDBRANCH   8  11
ENDBRANCH   3   8
BRANCH   7  23
HETATM   23  C   UNL     5      -8.265  13.731  67.804  1.00  0.00    -0.174 C  
HETATM   24  O   UNL     5      -8.622  12.413  68.225  1.00  0.00    -0.177 OA 
HETATM   25  H   UNL     5      -9.053  11.976  67.500  1.00  0.00     0.000 HD 
BRANCH  23  26
HETATM   26  C   UNL     5      -9.503  14.516  67.319  1.00  0.00    -0.217 C  
HETATM   27  O   UNL     5      -9.313  15.924  67.585  1.00  0.00    -0.214 OA 
HETATM   28  H   UNL     5     -10.075  16.407  67.287  1.00  0.00     0.000 HD 
BRANCH  26  29
HETATM   29  C   UNL     5      -9.969  14.304  65.852  1.00  0.00    -0.319 C  
HETATM   30  O   UNL     5     -10.974  15.233  65.448  1.00  0.00    -0.338 OA 
HETATM   31  H   UNL     5     -11.260  15.104  64.551  1.00  0.00     0.000 HD 
BRANCH  29  32
HETATM   32  C   UNL     5     -10.318  12.874  65.407  1.00  0.00    -0.296 C  
HETATM   33  C   UNL     5     -11.380  12.142  66.255  1.00  0.00    -0.357 C  
HETATM   34  O   UNL     5      -9.099  12.055  65.305  1.00  0.00    -0.421 OA 
HETATM   35  O   UNL     5     -12.312  12.846  66.747  1.00  0.00    -0.405 OA 
HETATM   36  O   UNL     5     -11.135  10.893  66.413  1.00  0.00    -0.158 OA 
HETATM   37  H   UNL     5      -9.314  11.172  65.030  1.00  0.00     0.000 HD 
ENDBRANCH  29  32
ENDBRANCH  26  29
ENDBRANCH  23  26
ENDBRANCH   7  23
TORSDOF 8
ENDMDL
MODEL      449
REMARK 921   NORMALIZED FREE ENERGY PREDICTED BY IDOCK:   -3.14 KCAL/MOL
REMARK 922        TOTAL FREE ENERGY PREDICTED BY IDOCK:   -6.85 KCAL/MOL
REMARK 923 INTER-LIGAND FREE ENERGY PREDICTED BY IDOCK:   -5.16 KCAL/MOL
REMARK 924 INTRA-LIGAND FREE ENERGY PREDICTED BY IDOCK:   -1.69 KCAL/MOL
REMARK 927      BINDING AFFINITY PREDICTED BY RF-SCORE:    0.00 PKD
ROOT
HETATM    1 MG   UNL     3      -8.943  12.162  65.420  1.00  0.00    -0.327 Mg 
HETATM    2  O   UNL     4      -7.906  18.275  65.677  1.00  0.00    -0.515 OA 
HETATM    3  C   UNL     4      -7.531  16.973  66.084  1.00  0.00    -0.220 C  
HETATM    4  H   UNL     4      -7.325  18.639  65.019  1.00  0.00     0.000 HD 
HETATM    5  O   UNL     5     -11.937   7.066  70.348  1.00  0.00    -0.523 OA 
HETATM    6  H   UNL     5     -12.880   6.996  70.250  1.00  0.00     0.000 HD 
HETATM    7  C   UNL     5     -11.514   8.425  70.447  1.00  0.00    -0.125 C  
ENDROOT
BRANCH   3   8
HETATM    8  C   UNL     4      -8.471  16.386  67.147  1.00  0.00    -0.183 C  
HETATM    9  O   UNL     4      -9.760  17.021  67.059  1.00  0.00    -0.248 OA 
HETATM   10  H   UNL     4     -10.341  16.658  67.717  1.00  0.00     0.000 HD 
BRANCH   8  11
HETATM   11  C   UNL     4      -8.734  14.851  67.150  1.00  0.00    -0.219 C  
HETATM   12  O   UNL     4      -9.351  14.385  65.955  1.00  0.00    -0.505 OA 
HETATM   13  H   UNL     4      -9.512  13.448  65.956  1.00  0.00     0.000 HD 
BRANCH  11  14
HETATM   14  C   UNL     4      -7.579  13.914  67.594  1.00  0.00    -0.178 C  
HETATM   15  H   UNL     4      -7.437  12.007  67.992  1.00  0.00     0.000 HD 
HETATM   16  O   UNL     4      -8.143  12.580  67.720  1.00  0.00    -0.140 OA 
BRANCH  14  17
HETATM   17  C   UNL     4      -6.727  14.267  68.847  1.00  0.00    -0.100 C  
HETATM   18  C   UNL     4      -5.728  13.105  69.252  1.00  0.00    -0.084 C  
HETATM   19  H   UNL     4      -7.011  14.984  70.691  1.00  0.00     0.000 HD 
HETATM   20  O   UNL     4      -7.531  14.768  69.926  1.00  0.00    -0.111 OA 
HETATM   21  O   UNL     4      -5.197  12.492  68.234  1.00  0.00    -0.054 OA 
HETATM   22  O   UNL     4      -5.597  12.811  70.472  1.00  0.00    -0.147 OA 
ENDBRANCH  14  17
ENDBRANCH  11  14
ENDBRANCH   8  11
ENDBRANCH   3   8
BRANCH   7  23
HETATM   23  C   UNL     5      -9.985   8.538  70.606  1.00  0.00    -0.189 C  
HETATM   24  O   UNL     5      -9.711   9.255  71.811  1.00  0.00    -0.269 OA 
HETATM   25  H   UNL     5      -8.768   9.324  71.908  1.00  0.00     0.000 HD 
BRANCH  23  26
HETATM   26  C   UNL     5      -9.308   7.150  70.617  1.00  0.00    -0.158 C  
HETATM   27  O   UNL     5      -9.149   6.683  69.258  1.00  0.00    -0.138 OA 
HETATM   28  H   UNL     5      -8.733   5.829  69.266  1.00  0.00     0.000 HD 
BRANCH  26  29
HETATM   29  C   UNL     5      -7.973   6.998  71.398  1.00  0.00    -0.103 C  
HETATM   30  O   UNL     5      -6.922   6.454  70.601  1.00  0.00    -0.061 OA 
HETATM   31  H   UNL     5      -6.105   6.362  71.078  1.00  0.00     0.000 HD 
BRANCH  29  32
HETATM   32  C   UNL     5      -8.022   6.338  72.786  1.00  0.00    -0.105 C  
HETATM   33  C   UNL     5      -8.473   4.863  72.817  1.00  0.00    -0.115 C  
HETATM   34  O   UNL     5      -8.844   7.140  73.707  1.00  0.00    -0.150 OA 
HETATM   35  O   UNL     5      -8.139   4.136  71.835  1.00  0.00    -0.084 OA 
HETATM   36  O   UNL     5      -9.206   4.575  73.829  1.00  0.00    -0.108 OA 
HETATM   37  H   UNL     5      -8.875   6.732  74.564  1.00  0.00     0.000 HD 
ENDBRANCH  29  32
ENDBRANCH  26  29
ENDBRANCH  23  26
ENDBRANCH   7  23
TORSDOF 8
ENDMDL
MODEL      450
REMARK 921   NORMALIZED FREE ENERGY PREDICTED BY IDOCK:   -3.07 KCAL/MOL
REMARK 922        TOTAL FREE ENERGY PREDICTED BY IDOCK:   -6.75 KCAL/MOL
REMARK 923 INTER-LIGAND FREE ENERGY PREDICTED BY IDOCK:   -5.84 KCAL/MOL
REMARK 924 INTRA-LIGAND FREE ENERGY PREDICTED BY IDOCK:   -0.91 KCAL/MOL
REMARK 927      BINDING AFFINITY PREDICTED BY RF-SCORE:    0.00 PKD
ROOT
HETATM    1 MG   UNL     3     -10.001  11.513  65.410  1.00  0.00    -0.200 Mg 
HETATM    2  O   UNL     4      -9.421   5.815  67.803  1.00  0.00    -0.111 OA 
HETATM    3  C   UNL     4     -10.124   7.043  67.776  1.00  0.00    -0.165 C  
HETATM    4  H   UNL     4      -9.883   5.114  67.357  1.00  0.00     0.000 HD 
HETATM    5  O   UNL     5      -8.470  18.573  68.060  1.00  0.00    -0.270 OA 
HETATM    6  H   UNL     5      -7.577  18.833  67.867  1.00  0.00     0.000 HD 
HETATM    7  C   UNL     5      -8.527  17.273  68.648  1.00  0.00    -0.260 C  
ENDROOT
BRANCH   3   8
HETATM    8  C   UNL     4      -9.377   8.175  68.496  1.00  0.00    -0.138 C  
HETATM    9  O   UNL     4      -9.204   9.288  67.599  1.00  0.00    -0.125 OA 
HETATM   10  H   UNL     4      -8.742   9.989  68.045  1.00  0.00     0.000 HD 
BRANCH   8  11
HETATM   11  C   UNL     4      -9.982   8.757  69.808  1.00  0.00    -0.190 C  
HETATM   12  O   UNL     4     -11.379   9.012  69.718  1.00  0.00    -0.428 OA 
HETATM   13  H   UNL     4     -11.748   9.366  70.519  1.00  0.00     0.000 HD 
BRANCH  11  14
HETATM   14  C   UNL     4      -9.617   8.063  71.148  1.00  0.00    -0.160 C  
HETATM   15  H   UNL     4      -9.642   8.606  73.024  1.00  0.00     0.000 HD 
HETATM   16  O   UNL     4      -9.865   9.030  72.204  1.00  0.00    -0.273 OA 
BRANCH  14  17
HETATM   17  C   UNL     4      -8.221   7.402  71.329  1.00  0.00    -0.105 C  
HETATM   18  C   UNL     4      -7.038   8.324  70.818  1.00  0.00    -0.044 C  
HETATM   19  H   UNL     4      -7.337   5.652  70.938  1.00  0.00     0.000 HD 
HETATM   20  O   UNL     4      -8.189   6.056  70.827  1.00  0.00    -0.120 OA 
HETATM   21  O   UNL     4      -7.215   9.590  71.069  1.00  0.00    -0.269 OA 
HETATM   22  O   UNL     4      -6.099   7.803  70.156  1.00  0.00    -0.029 OA 
ENDBRANCH  14  17
ENDBRANCH  11  14
ENDBRANCH   8  11
ENDBRANCH   3   8
BRANCH   7  23
HETATM   23  C   UNL     5      -9.977  16.851  68.961  1.00  0.00    -0.265 C  
HETATM   24  O   UNL     5     -10.844  17.496  68.026  1.00  0.00    -0.378 OA 
HETATM   25  H   UNL     5     -11.736  17.236  68.218  1.00  0.00     0.000 HD 
BRANCH  23  26
HETATM   26  C   UNL     5     -10.148  15.317  68.911  1.00  0.00    -0.225 C  
HETATM   27  O   UNL     5     -10.778  14.865  70.131  1.00  0.00    -0.413 OA 
HETATM   28  H   UNL     5     -10.883  13.921  70.100  1.00  0.00     0.000 HD 
BRANCH  26  29
HETATM   29  C   UNL     5     -10.866  14.704  67.676  1.00  0.00    -0.284 C  
HETATM   30  O   UNL     5     -11.992  13.903  68.029  1.00  0.00    -0.361 OA 
HETATM   31  H   UNL     5     -12.431  13.528  67.273  1.00  0.00     0.000 HD 
BRANCH  29  32
HETATM   32  C   UNL     5      -9.999  14.014  66.610  1.00  0.00    -0.278 C  
HETATM   33  C   UNL     5      -9.218  12.768  67.076  1.00  0.00    -0.221 C  
HETATM   34  O   UNL     5      -9.083  14.983  65.986  1.00  0.00    -0.451 OA 
HETATM   35  O   UNL     5      -9.771  12.032  67.946  1.00  0.00    -0.183 OA 
HETATM   36  O   UNL     5      -8.049  12.675  66.557  1.00  0.00     0.104 OA 
HETATM   37  H   UNL     5      -8.548  14.557  65.327  1.00  0.00     0.000 HD 
ENDBRANCH  29  32
ENDBRANCH  26  29
ENDBRANCH  23  26
ENDBRANCH   7  23
TORSDOF 8
ENDMDL
MODEL      451
REMARK 921   NORMALIZED FREE ENERGY PREDICTED BY IDOCK:   -3.07 KCAL/MOL
REMARK 922        TOTAL FREE ENERGY PREDICTED BY IDOCK:   -6.75 KCAL/MOL
REMARK 923 INTER-LIGAND FREE ENERGY PREDICTED BY IDOCK:   -5.08 KCAL/MOL
REMARK 924 INTRA-LIGAND FREE ENERGY PREDICTED BY IDOCK:   -1.66 KCAL/MOL
REMARK 927      BINDING AFFINITY PREDICTED BY RF-SCORE:    0.00 PKD
ROOT
HETATM    1 MG   UNL     3      -8.879  12.183  65.054  1.00  0.00    -0.399 Mg 
HETATM    2  O   UNL     4      -8.574  18.380  65.233  1.00  0.00     0.588 OA 
HETATM    3  C   UNL     4      -8.111  17.138  65.728  1.00  0.00     0.273 C  
HETATM    4  H   UNL     4      -7.957  18.795  64.641  1.00  0.00     0.000 HD 
HETATM    5  O   UNL     5     -11.893   6.872  69.736  1.00  0.00    -0.613 OA 
HETATM    6  H   UNL     5     -12.801   6.692  69.524  1.00  0.00     0.000 HD 
HETATM    7  C   UNL     5     -11.641   8.273  69.842  1.00  0.00     0.299 C  
ENDROOT
BRANCH   3   8
HETATM    8  C   UNL     4      -9.108  16.466  66.684  1.00  0.00    -0.250 C  
HETATM    9  O   UNL     4      -9.549  17.418  67.670  1.00  0.00    -0.254 OA 
HETATM   10  H   UNL     4     -10.166  17.002  68.262  1.00  0.00     0.000 HD 
BRANCH   8  11
HETATM   11  C   UNL     4     -10.392  15.815  66.093  1.00  0.00    -0.320 C  
HETATM   12  O   UNL     4     -10.415  15.808  64.670  1.00  0.00    -0.650 OA 
HETATM   13  H   UNL     4     -11.199  15.410  64.309  1.00  0.00     0.000 HD 
BRANCH  11  14
HETATM   14  C   UNL     4     -10.850  14.450  66.674  1.00  0.00    -0.304 C  
HETATM   15  H   UNL     4     -12.424  13.318  66.437  1.00  0.00     0.000 HD 
HETATM   16  O   UNL     4     -12.144  14.153  66.081  1.00  0.00    -0.405 OA 
BRANCH  14  17
HETATM   17  C   UNL     4     -10.890  14.231  68.213  1.00  0.00    -0.246 C  
HETATM   18  C   UNL     4     -10.916  12.697  68.611  1.00  0.00    -0.256 C  
HETATM   19  H   UNL     4     -11.926  14.897  69.788  1.00  0.00     0.000 HD 
HETATM   20  O   UNL     4     -11.901  15.030  68.847  1.00  0.00    -0.320 OA 
HETATM   21  O   UNL     4     -10.174  11.946  67.849  1.00  0.00    -0.185 OA 
HETATM   22  O   UNL     4     -11.688  12.319  69.535  1.00  0.00    -0.302 OA 
ENDBRANCH  14  17
ENDBRANCH  11  14
ENDBRANCH   8  11
ENDBRANCH   3   8
BRANCH   7  23
HETATM   23  C   UNL     5     -10.166   8.564  70.187  1.00  0.00    -0.195 C  
HETATM   24  O   UNL     5     -10.130   9.643  71.123  1.00  0.00    -0.262 OA 
HETATM   25  H   UNL     5      -9.221   9.822  71.336  1.00  0.00     0.000 HD 
BRANCH  23  26
HETATM   26  C   UNL     5      -9.454   7.315  70.750  1.00  0.00    -0.164 C  
HETATM   27  O   UNL     5      -8.937   6.524  69.655  1.00  0.00    -0.140 OA 
HETATM   28  H   UNL     5      -8.499   5.755  70.001  1.00  0.00     0.000 HD 
BRANCH  26  29
HETATM   29  C   UNL     5      -8.353   7.528  71.826  1.00  0.00    -0.107 C  
HETATM   30  O   UNL     5      -7.099   6.952  71.460  1.00  0.00    -0.072 OA 
HETATM   31  H   UNL     5      -6.426   7.083  72.118  1.00  0.00     0.000 HD 
BRANCH  29  32
HETATM   32  C   UNL     5      -8.708   7.214  73.289  1.00  0.00    -0.134 C  
HETATM   33  C   UNL     5      -9.010   5.735  73.609  1.00  0.00    -0.127 C  
HETATM   34  O   UNL     5      -9.817   8.068  73.743  1.00  0.00    -0.235 OA 
HETATM   35  O   UNL     5      -8.359   4.860  72.965  1.00  0.00    -0.101 OA 
HETATM   36  O   UNL     5      -9.955   5.580  74.462  1.00  0.00    -0.203 OA 
HETATM   37  H   UNL     5     -10.036   7.874  74.647  1.00  0.00     0.000 HD 
ENDBRANCH  29  32
ENDBRANCH  26  29
ENDBRANCH  23  26
ENDBRANCH   7  23
TORSDOF 8
ENDMDL
MODEL      452
REMARK 921   NORMALIZED FREE ENERGY PREDICTED BY IDOCK:   -3.06 KCAL/MOL
REMARK 922        TOTAL FREE ENERGY PREDICTED BY IDOCK:   -6.73 KCAL/MOL
REMARK 923 INTER-LIGAND FREE ENERGY PREDICTED BY IDOCK:   -5.31 KCAL/MOL
REMARK 924 INTRA-LIGAND FREE ENERGY PREDICTED BY IDOCK:   -1.43 KCAL/MOL
REMARK 927      BINDING AFFINITY PREDICTED BY RF-SCORE:    0.00 PKD
ROOT
HETATM    1 MG   UNL     3      -9.091  10.905  64.371  1.00  0.00    -0.172 Mg 
HETATM    2  O   UNL     4     -11.434  16.650  64.192  1.00  0.00    -1.375 OA 
HETATM    3  C   UNL     4     -10.444  15.769  64.689  1.00  0.00     0.202 C  
HETATM    4  H   UNL     4     -11.109  17.224  63.508  1.00  0.00     0.000 HD 
HETATM    5  O   UNL     5      -9.122   5.313  69.657  1.00  0.00    -0.111 OA 
HETATM    6  H   UNL     5      -9.883   4.752  69.568  1.00  0.00     0.000 HD 
HETATM    7  C   UNL     5      -9.481   6.695  69.659  1.00  0.00    -0.142 C  
ENDROOT
BRANCH   3   8
HETATM    8  C   UNL     4     -10.970  14.842  65.794  1.00  0.00    -0.334 C  
HETATM    9  O   UNL     4     -11.866  13.869  65.225  1.00  0.00    -0.330 OA 
HETATM   10  H   UNL     4     -12.191  13.295  65.909  1.00  0.00     0.000 HD 
BRANCH   8  11
HETATM   11  C   UNL     4      -9.945  14.047  66.656  1.00  0.00    -0.278 C  
HETATM   12  O   UNL     4      -8.592  14.292  66.289  1.00  0.00    -0.398 OA 
HETATM   13  H   UNL     4      -7.967  13.807  66.816  1.00  0.00     0.000 HD 
BRANCH  11  14
HETATM   14  C   UNL     4     -10.126  14.060  68.198  1.00  0.00    -0.244 C  
HETATM   15  H   UNL     4      -8.903  14.067  69.722  1.00  0.00     0.000 HD 
HETATM   16  O   UNL     4      -8.793  14.059  68.778  1.00  0.00    -0.140 OA 
BRANCH  14  17
HETATM   17  C   UNL     4     -11.022  12.991  68.887  1.00  0.00    -0.230 C  
HETATM   18  C   UNL     4     -11.320  11.748  67.950  1.00  0.00    -0.292 C  
HETATM   19  H   UNL     4     -12.733  12.920  69.919  1.00  0.00     0.000 HD 
HETATM   20  O   UNL     4     -12.185  13.572  69.498  1.00  0.00    -0.304 OA 
HETATM   21  O   UNL     4     -10.307  11.395  67.212  1.00  0.00    -0.189 OA 
HETATM   22  O   UNL     4     -12.488  11.272  67.921  1.00  0.00    -0.042 OA 
ENDBRANCH  14  17
ENDBRANCH  11  14
ENDBRANCH   8  11
ENDBRANCH   3   8
BRANCH   7  23
HETATM   23  C   UNL     5      -8.245   7.606  69.802  1.00  0.00    -0.131 C  
HETATM   24  O   UNL     5      -7.079   6.781  69.818  1.00  0.00    -0.064 OA 
HETATM   25  H   UNL     5      -6.318   7.342  69.907  1.00  0.00     0.000 HD 
BRANCH  23  26
HETATM   26  C   UNL     5      -8.172   8.652  68.668  1.00  0.00    -0.121 C  
HETATM   27  O   UNL     5      -8.884   9.844  69.069  1.00  0.00    -0.138 OA 
HETATM   28  H   UNL     5      -8.839  10.488  68.371  1.00  0.00     0.000 HD 
BRANCH  26  29
HETATM   29  C   UNL     5      -6.769   9.024  68.112  1.00  0.00    -0.065 C  
HETATM   30  O   UNL     5      -6.556  10.433  68.041  1.00  0.00    -0.060 OA 
HETATM   31  H   UNL     5      -5.698  10.661  67.701  1.00  0.00     0.000 HD 
BRANCH  29  32
HETATM   32  C   UNL     5      -6.295   8.321  66.830  1.00  0.00    -0.056 C  
HETATM   33  C   UNL     5      -7.003   8.742  65.525  1.00  0.00    -0.076 C  
HETATM   34  O   UNL     5      -6.358   6.859  66.992  1.00  0.00    -0.041 OA 
HETATM   35  O   UNL     5      -7.364   9.953  65.429  1.00  0.00    -0.115 OA 
HETATM   36  O   UNL     5      -7.201   7.768  64.714  1.00  0.00    -0.062 OA 
HETATM   37  H   UNL     5      -6.064   6.424  66.200  1.00  0.00     0.000 HD 
ENDBRANCH  29  32
ENDBRANCH  26  29
ENDBRANCH  23  26
ENDBRANCH   7  23
TORSDOF 8
ENDMDL
MODEL      453
REMARK 921   NORMALIZED FREE ENERGY PREDICTED BY IDOCK:   -3.05 KCAL/MOL
REMARK 922        TOTAL FREE ENERGY PREDICTED BY IDOCK:   -6.71 KCAL/MOL
REMARK 923 INTER-LIGAND FREE ENERGY PREDICTED BY IDOCK:   -5.76 KCAL/MOL
REMARK 924 INTRA-LIGAND FREE ENERGY PREDICTED BY IDOCK:   -0.95 KCAL/MOL
REMARK 927      BINDING AFFINITY PREDICTED BY RF-SCORE:    0.00 PKD
ROOT
HETATM    1 MG   UNL     3     -11.382  14.643  64.951  1.00  0.00    -0.307 Mg 
HETATM    2  O   UNL     4     -11.026   9.214  67.937  1.00  0.00    -0.483 OA 
HETATM    3  C   UNL     4     -11.325  10.596  67.985  1.00  0.00    -0.278 C  
HETATM    4  H   UNL     4     -11.803   8.667  67.925  1.00  0.00     0.000 HD 
HETATM    5  O   UNL     5      -7.072  21.018  64.976  1.00  0.00    -0.493 OA 
HETATM    6  H   UNL     5      -6.375  20.972  64.332  1.00  0.00     0.000 HD 
HETATM    7  C   UNL     5      -7.124  19.842  65.783  1.00  0.00    -0.306 C  
ENDROOT
BRANCH   3   8
HETATM    8  C   UNL     4     -10.069  11.480  68.004  1.00  0.00    -0.186 C  
HETATM    9  O   UNL     4     -10.432  12.829  68.353  1.00  0.00    -0.233 OA 
HETATM   10  H   UNL     4      -9.655  13.376  68.365  1.00  0.00     0.000 HD 
BRANCH   8  11
HETATM   11  C   UNL     4      -8.888  11.085  68.937  1.00  0.00    -0.113 C  
HETATM   12  O   UNL     4      -9.266  10.187  69.974  1.00  0.00    -0.376 OA 
HETATM   13  H   UNL     4      -8.545   9.946  70.544  1.00  0.00     0.000 HD 
BRANCH  11  14
HETATM   14  C   UNL     4      -7.550  10.656  68.276  1.00  0.00    -0.097 C  
HETATM   15  H   UNL     4      -6.694  11.010  66.556  1.00  0.00     0.000 HD 
HETATM   16  O   UNL     4      -7.513  11.273  66.960  1.00  0.00    -0.124 OA 
BRANCH  14  17
HETATM   17  C   UNL     4      -7.173   9.149  68.184  1.00  0.00    -0.079 C  
HETATM   18  C   UNL     4      -8.180   8.322  67.283  1.00  0.00    -0.120 C  
HETATM   19  H   UNL     4      -6.686   7.656  69.420  1.00  0.00     0.000 HD 
HETATM   20  O   UNL     4      -6.916   8.576  69.476  1.00  0.00    -0.047 OA 
HETATM   21  O   UNL     4      -8.599   8.971  66.234  1.00  0.00    -0.120 OA 
HETATM   22  O   UNL     4      -8.559   7.184  67.677  1.00  0.00    -0.122 OA 
ENDBRANCH  14  17
ENDBRANCH  11  14
ENDBRANCH   8  11
ENDBRANCH   3   8
BRANCH   7  23
HETATM   23  C   UNL     5      -8.255  19.916  66.829  1.00  0.00    -0.319 C  
HETATM   24  O   UNL     5      -9.385  20.547  66.223  1.00  0.00    -0.619 OA 
HETATM   25  H   UNL     5     -10.082  20.593  66.867  1.00  0.00     0.000 HD 
BRANCH  23  26
HETATM   26  C   UNL     5      -8.624  18.518  67.372  1.00  0.00    -0.258 C  
HETATM   27  O   UNL     5      -8.172  17.508  66.441  1.00  0.00    -0.254 OA 
HETATM   28  H   UNL     5      -8.399  16.648  66.775  1.00  0.00     0.000 HD 
BRANCH  26  29
HETATM   29  C   UNL     5      -8.176  18.157  68.816  1.00  0.00    -0.225 C  
HETATM   30  O   UNL     5      -9.004  18.748  69.818  1.00  0.00     0.584 OA 
HETATM   31  H   UNL     5      -8.730  18.528  70.701  1.00  0.00     0.000 HD 
BRANCH  29  32
HETATM   32  C   UNL     5      -6.686  18.302  69.164  1.00  0.00    -0.249 C  
HETATM   33  C   UNL     5      -6.060  17.134  69.954  1.00  0.00    -0.189 C  
HETATM   34  O   UNL     5      -6.441  19.575  69.862  1.00  0.00    -0.305 OA 
HETATM   35  O   UNL     5      -6.492  15.969  69.703  1.00  0.00    -0.184 OA 
HETATM   36  O   UNL     5      -5.208  17.512  70.835  1.00  0.00    -0.259 OA 
HETATM   37  H   UNL     5      -5.521  19.664  70.077  1.00  0.00     0.000 HD 
ENDBRANCH  29  32
ENDBRANCH  26  29
ENDBRANCH  23  26
ENDBRANCH   7  23
TORSDOF 8
ENDMDL
MODEL      454
REMARK 921   NORMALIZED FREE ENERGY PREDICTED BY IDOCK:   -3.02 KCAL/MOL
REMARK 922        TOTAL FREE ENERGY PREDICTED BY IDOCK:   -6.67 KCAL/MOL
REMARK 923 INTER-LIGAND FREE ENERGY PREDICTED BY IDOCK:   -4.87 KCAL/MOL
REMARK 924 INTRA-LIGAND FREE ENERGY PREDICTED BY IDOCK:   -1.80 KCAL/MOL
REMARK 927      BINDING AFFINITY PREDICTED BY RF-SCORE:    0.00 PKD
ROOT
HETATM    1 MG   UNL     3      -7.806   5.534  67.279  1.00  0.00    -0.089 Mg 
HETATM    2  O   UNL     4      -7.166  10.362  63.432  1.00  0.00    -0.248 OA 
HETATM    3  C   UNL     4      -6.837   9.756  64.667  1.00  0.00    -0.123 C  
HETATM    4  H   UNL     4      -6.461  10.312  62.796  1.00  0.00     0.000 HD 
HETATM    5  O   UNL     5     -11.651   4.450  73.856  1.00  0.00    -0.184 OA 
HETATM    6  H   UNL     5     -12.537   4.146  73.698  1.00  0.00     0.000 HD 
HETATM    7  C   UNL     5     -11.332   5.591  73.059  1.00  0.00    -0.266 C  
ENDROOT
BRANCH   3   8
HETATM    8  C   UNL     4      -7.976   9.836  65.694  1.00  0.00    -0.117 C  
HETATM    9  O   UNL     4      -7.430  10.072  67.005  1.00  0.00    -0.091 OA 
HETATM   10  H   UNL     4      -8.135  10.121  67.641  1.00  0.00     0.000 HD 
BRANCH   8  11
HETATM   11  C   UNL     4      -9.100  10.893  65.487  1.00  0.00    -0.201 C  
HETATM   12  O   UNL     4     -10.007  10.553  64.445  1.00  0.00    -0.321 OA 
HETATM   13  H   UNL     4     -10.693  11.198  64.319  1.00  0.00     0.000 HD 
BRANCH  11  14
HETATM   14  C   UNL     4      -9.849  11.415  66.743  1.00  0.00    -0.206 C  
HETATM   15  H   UNL     4     -11.594  11.056  67.547  1.00  0.00     0.000 HD 
HETATM   16  O   UNL     4     -11.135  10.737  66.778  1.00  0.00    -0.212 OA 
BRANCH  14  17
HETATM   17  C   UNL     4     -10.032  12.944  66.964  1.00  0.00    -0.244 C  
HETATM   18  C   UNL     4     -10.828  13.278  68.292  1.00  0.00    -0.256 C  
HETATM   19  H   UNL     4     -10.635  14.539  65.922  1.00  0.00     0.000 HD 
HETATM   20  O   UNL     4     -10.524  13.605  65.788  1.00  0.00    -0.280 OA 
HETATM   21  O   UNL     4     -10.541  12.489  69.288  1.00  0.00    -0.038 OA 
HETATM   22  O   UNL     4     -11.709  14.181  68.265  1.00  0.00    -0.310 OA 
ENDBRANCH  14  17
ENDBRANCH  11  14
ENDBRANCH   8  11
ENDBRANCH   3   8
BRANCH   7  23
HETATM   23  C   UNL     5      -9.894   6.084  73.315  1.00  0.00    -0.165 C  
HETATM   24  O   UNL     5      -9.165   5.031  73.947  1.00  0.00    -0.118 OA 
HETATM   25  H   UNL     5      -8.279   5.335  74.105  1.00  0.00     0.000 HD 
BRANCH  23  26
HETATM   26  C   UNL     5      -9.203   6.534  72.010  1.00  0.00    -0.147 C  
HETATM   27  O   UNL     5      -8.600   5.388  71.367  1.00  0.00    -0.127 OA 
HETATM   28  H   UNL     5      -8.174   5.665  70.564  1.00  0.00     0.000 HD 
BRANCH  26  29
HETATM   29  C   UNL     5     -10.043   7.345  70.984  1.00  0.00    -0.190 C  
HETATM   30  O   UNL     5     -10.478   6.558  69.876  1.00  0.00    -0.191 OA 
HETATM   31  H   UNL     5     -10.991   7.054  69.248  1.00  0.00     0.000 HD 
BRANCH  29  32
HETATM   32  C   UNL     5      -9.497   8.707  70.524  1.00  0.00    -0.178 C  
HETATM   33  C   UNL     5      -8.244   8.664  69.624  1.00  0.00    -0.114 C  
HETATM   34  O   UNL     5      -9.259   9.583  71.683  1.00  0.00    -0.246 OA 
HETATM   35  O   UNL     5      -8.145   7.692  68.818  1.00  0.00    -0.123 OA 
HETATM   36  O   UNL     5      -7.410   9.609  69.864  1.00  0.00    -0.087 OA 
HETATM   37  H   UNL     5      -8.922  10.424  71.399  1.00  0.00     0.000 HD 
ENDBRANCH  29  32
ENDBRANCH  26  29
ENDBRANCH  23  26
ENDBRANCH   7  23
TORSDOF 8
ENDMDL
MODEL      455
REMARK 921   NORMALIZED FREE ENERGY PREDICTED BY IDOCK:   -3.01 KCAL/MOL
REMARK 922        TOTAL FREE ENERGY PREDICTED BY IDOCK:   -6.66 KCAL/MOL
REMARK 923 INTER-LIGAND FREE ENERGY PREDICTED BY IDOCK:   -4.11 KCAL/MOL
REMARK 924 INTRA-LIGAND FREE ENERGY PREDICTED BY IDOCK:   -2.55 KCAL/MOL
REMARK 927      BINDING AFFINITY PREDICTED BY RF-SCORE:    0.00 PKD
ROOT
HETATM    1 MG   UNL     3      -5.225   6.751  66.806  1.00  0.00    -0.011 Mg 
HETATM    2  O   UNL     4      -6.930   2.369  62.756  1.00  0.00    -0.029 OA 
HETATM    3  C   UNL     4      -7.219   3.602  63.387  1.00  0.00    -0.050 C  
HETATM    4  H   UNL     4      -6.629   2.473  61.860  1.00  0.00     0.000 HD 
HETATM    5  O   UNL     5      -7.602   8.680  73.866  1.00  0.00    -0.387 OA 
HETATM    6  H   UNL     5      -7.130   8.201  74.538  1.00  0.00     0.000 HD 
HETATM    7  C   UNL     5      -8.096   7.812  72.846  1.00  0.00    -0.126 C  
ENDROOT
BRANCH   3   8
HETATM    8  C   UNL     4      -7.705   3.434  64.834  1.00  0.00    -0.078 C  
HETATM    9  O   UNL     4      -8.420   2.190  64.963  1.00  0.00    -0.088 OA 
HETATM   10  H   UNL     4      -8.721   2.087  65.858  1.00  0.00     0.000 HD 
BRANCH   8  11
HETATM   11  C   UNL     4      -6.658   3.462  65.985  1.00  0.00    -0.040 C  
HETATM   12  O   UNL     4      -5.728   4.534  65.874  1.00  0.00    -0.020 OA 
HETATM   13  H   UNL     4      -5.089   4.551  66.577  1.00  0.00     0.000 HD 
BRANCH  11  14
HETATM   14  C   UNL     4      -7.172   3.306  67.442  1.00  0.00    -0.058 C  
HETATM   15  H   UNL     4      -7.443   1.792  68.646  1.00  0.00     0.000 HD 
HETATM   16  O   UNL     4      -7.128   1.887  67.755  1.00  0.00    -0.045 OA 
BRANCH  14  17
HETATM   17  C   UNL     4      -8.544   3.914  67.854  1.00  0.00    -0.097 C  
HETATM   18  C   UNL     4      -8.571   4.389  69.366  1.00  0.00    -0.080 C  
HETATM   19  H   UNL     4     -10.482   3.448  67.721  1.00  0.00     0.000 HD 
HETATM   20  O   UNL     4      -9.645   3.076  67.470  1.00  0.00    -0.180 OA 
HETATM   21  O   UNL     4      -7.454   4.926  69.766  1.00  0.00    -0.055 OA 
HETATM   22  O   UNL     4      -9.591   4.140  70.065  1.00  0.00    -0.173 OA 
ENDBRANCH  14  17
ENDBRANCH  11  14
ENDBRANCH   8  11
ENDBRANCH   3   8
BRANCH   7  23
HETATM   23  C   UNL     5      -8.861   8.589  71.756  1.00  0.00    -0.211 C  
HETATM   24  O   UNL     5      -7.917   9.348  70.999  1.00  0.00    -0.303 OA 
HETATM   25  H   UNL     5      -8.389   9.826  70.328  1.00  0.00     0.000 HD 
BRANCH  23  26
HETATM   26  C   UNL     5      -9.674   7.643  70.845  1.00  0.00    -0.172 C  
HETATM   27  O   UNL     5     -10.141   6.516  71.620  1.00  0.00    -0.182 OA 
HETATM   28  H   UNL     5     -10.641   5.934  71.059  1.00  0.00     0.000 HD 
BRANCH  26  29
HETATM   29  C   UNL     5     -10.844   8.253  70.022  1.00  0.00    -0.232 C  
HETATM   30  O   UNL     5     -12.083   7.578  70.236  1.00  0.00    -0.502 OA 
HETATM   31  H   UNL     5     -12.798   7.951  69.733  1.00  0.00     0.000 HD 
BRANCH  29  32
HETATM   32  C   UNL     5     -10.605   8.528  68.529  1.00  0.00    -0.111 C  
HETATM   33  C   UNL     5     -10.531   7.286  67.616  1.00  0.00    -0.242 C  
HETATM   34  O   UNL     5      -9.409   9.366  68.345  1.00  0.00    -0.134 OA 
HETATM   35  O   UNL     5     -11.267   6.301  67.919  1.00  0.00    -0.323 OA 
HETATM   36  O   UNL     5      -9.657   7.390  66.683  1.00  0.00    -0.183 OA 
HETATM   37  H   UNL     5      -9.262   9.536  67.422  1.00  0.00     0.000 HD 
ENDBRANCH  29  32
ENDBRANCH  26  29
ENDBRANCH  23  26
ENDBRANCH   7  23
TORSDOF 8
ENDMDL
MODEL      456
REMARK 921   NORMALIZED FREE ENERGY PREDICTED BY IDOCK:   -3.01 KCAL/MOL
REMARK 922        TOTAL FREE ENERGY PREDICTED BY IDOCK:   -6.66 KCAL/MOL
REMARK 923 INTER-LIGAND FREE ENERGY PREDICTED BY IDOCK:   -5.87 KCAL/MOL
REMARK 924 INTRA-LIGAND FREE ENERGY PREDICTED BY IDOCK:   -0.79 KCAL/MOL
REMARK 927      BINDING AFFINITY PREDICTED BY RF-SCORE:    0.00 PKD
ROOT
HETATM    1 MG   UNL     3     -12.034  10.009  67.804  1.00  0.00    -0.521 Mg 
HETATM    2  O   UNL     4     -12.447  13.743  62.864  1.00  0.00    -1.009 OA 
HETATM    3  C   UNL     4     -12.178  12.453  63.378  1.00  0.00    -0.523 C  
HETATM    4  H   UNL     4     -13.297  13.805  62.444  1.00  0.00     0.000 HD 
HETATM    5  O   UNL     5      -6.130   6.956  71.682  1.00  0.00    -0.037 OA 
HETATM    6  H   UNL     5      -5.835   7.529  72.380  1.00  0.00     0.000 HD 
HETATM    7  C   UNL     5      -6.261   7.653  70.443  1.00  0.00    -0.033 C  
ENDROOT
BRANCH   3   8
HETATM    8  C   UNL     4     -10.804  12.354  64.057  1.00  0.00    -0.397 C  
HETATM    9  O   UNL     4     -10.921  12.730  65.442  1.00  0.00    -0.276 OA 
HETATM   10  H   UNL     4     -10.071  12.669  65.863  1.00  0.00     0.000 HD 
BRANCH   8  11
HETATM   11  C   UNL     4     -10.051  10.992  64.033  1.00  0.00    -0.350 C  
HETATM   12  O   UNL     4      -9.092  10.898  62.985  1.00  0.00    -0.244 OA 
HETATM   13  H   UNL     4      -8.633  10.066  62.970  1.00  0.00     0.000 HD 
BRANCH  11  14
HETATM   14  C   UNL     4      -9.482  10.449  65.372  1.00  0.00    -0.232 C  
HETATM   15  H   UNL     4     -10.274   9.812  67.040  1.00  0.00     0.000 HD 
HETATM   16  O   UNL     4     -10.622  10.144  66.221  1.00  0.00    -0.156 OA 
BRANCH  14  17
HETATM   17  C   UNL     4      -8.420  11.270  66.157  1.00  0.00    -0.135 C  
HETATM   18  C   UNL     4      -6.961  10.666  66.023  1.00  0.00    -0.128 C  
HETATM   19  H   UNL     4      -8.185  12.043  67.985  1.00  0.00     0.000 HD 
HETATM   20  O   UNL     4      -8.833  11.541  67.505  1.00  0.00    -0.149 OA 
HETATM   21  O   UNL     4      -6.697  10.191  64.839  1.00  0.00    -0.122 OA 
HETATM   22  O   UNL     4      -6.228  10.606  67.049  1.00  0.00    -0.061 OA 
ENDBRANCH  14  17
ENDBRANCH  11  14
ENDBRANCH   8  11
ENDBRANCH   3   8
BRANCH   7  23
HETATM   23  C   UNL     5      -6.740   6.722  69.311  1.00  0.00    -0.053 C  
HETATM   24  O   UNL     5      -5.796   5.658  69.177  1.00  0.00    -0.014 OA 
HETATM   25  H   UNL     5      -6.091   5.084  68.480  1.00  0.00     0.000 HD 
BRANCH  23  26
HETATM   26  C   UNL     5      -8.159   6.178  69.581  1.00  0.00    -0.112 C  
HETATM   27  O   UNL     5      -8.596   5.396  68.446  1.00  0.00    -0.097 OA 
HETATM   28  H   UNL     5      -9.470   5.061  68.612  1.00  0.00     0.000 HD 
BRANCH  26  29
HETATM   29  C   UNL     5      -8.398   5.391  70.900  1.00  0.00    -0.118 C  
HETATM   30  O   UNL     5      -7.404   4.396  71.141  1.00  0.00    -0.045 OA 
HETATM   31  H   UNL     5      -7.549   3.915  71.948  1.00  0.00     0.000 HD 
BRANCH  29  32
HETATM   32  C   UNL     5      -9.811   4.848  71.168  1.00  0.00    -0.192 C  
HETATM   33  C   UNL     5     -10.922   5.905  71.333  1.00  0.00    -0.263 C  
HETATM   34  O   UNL     5      -9.801   3.937  72.324  1.00  0.00    -0.146 OA 
HETATM   35  O   UNL     5     -10.823   6.960  70.639  1.00  0.00    -0.229 OA 
HETATM   36  O   UNL     5     -11.789   5.599  72.227  1.00  0.00    -0.226 OA 
HETATM   37  H   UNL     5     -10.674   3.601  72.490  1.00  0.00     0.000 HD 
ENDBRANCH  29  32
ENDBRANCH  26  29
ENDBRANCH  23  26
ENDBRANCH   7  23
TORSDOF 8
ENDMDL
MODEL      457
REMARK 921   NORMALIZED FREE ENERGY PREDICTED BY IDOCK:   -2.98 KCAL/MOL
REMARK 922        TOTAL FREE ENERGY PREDICTED BY IDOCK:   -6.61 KCAL/MOL
REMARK 923 INTER-LIGAND FREE ENERGY PREDICTED BY IDOCK:   -5.12 KCAL/MOL
REMARK 924 INTRA-LIGAND FREE ENERGY PREDICTED BY IDOCK:   -1.49 KCAL/MOL
REMARK 927      BINDING AFFINITY PREDICTED BY RF-SCORE:    0.00 PKD
ROOT
HETATM    1 MG   UNL     3     -10.962   9.710  67.734  1.00  0.00    -0.210 Mg 
HETATM    2  O   UNL     4      -8.859  15.458  66.703  1.00  0.00    -0.251 OA 
HETATM    3  C   UNL     4      -8.594  14.069  66.741  1.00  0.00    -0.055 C  
HETATM    4  H   UNL     4      -8.948  15.794  65.818  1.00  0.00     0.000 HD 
HETATM    5  O   UNL     5      -9.992   4.638  73.438  1.00  0.00    -0.143 OA 
HETATM    6  H   UNL     5     -10.643   4.750  74.121  1.00  0.00     0.000 HD 
HETATM    7  C   UNL     5      -9.377   5.877  73.085  1.00  0.00    -0.139 C  
ENDROOT
BRANCH   3   8
HETATM    8  C   UNL     4      -8.452  13.526  68.170  1.00  0.00    -0.172 C  
HETATM    9  O   UNL     4      -9.563  12.661  68.472  1.00  0.00    -0.325 OA 
HETATM   10  H   UNL     4      -9.475  12.326  69.357  1.00  0.00     0.000 HD 
BRANCH   8  11
HETATM   11  C   UNL     4      -7.164  12.737  68.548  1.00  0.00    -0.114 C  
HETATM   12  O   UNL     4      -7.140  12.319  69.909  1.00  0.00    -0.287 OA 
HETATM   13  H   UNL     4      -6.354  11.837  70.139  1.00  0.00     0.000 HD 
BRANCH  11  14
HETATM   14  C   UNL     4      -6.700  11.601  67.597  1.00  0.00    -0.087 C  
HETATM   15  H   UNL     4      -5.340  11.450  66.203  1.00  0.00     0.000 HD 
HETATM   16  O   UNL     4      -5.624  12.145  66.785  1.00  0.00    -0.301 OA 
BRANCH  14  17
HETATM   17  C   UNL     4      -7.736  10.858  66.706  1.00  0.00    -0.141 C  
HETATM   18  C   UNL     4      -8.380   9.606  67.433  1.00  0.00    -0.114 C  
HETATM   19  H   UNL     4      -7.857  10.135  64.846  1.00  0.00     0.000 HD 
HETATM   20  O   UNL     4      -7.224  10.588  65.391  1.00  0.00    -0.138 OA 
HETATM   21  O   UNL     4      -8.605   9.796  68.702  1.00  0.00    -0.116 OA 
HETATM   22  O   UNL     4      -8.536   8.536  66.783  1.00  0.00    -0.107 OA 
ENDBRANCH  14  17
ENDBRANCH  11  14
ENDBRANCH   8  11
ENDBRANCH   3   8
BRANCH   7  23
HETATM   23  C   UNL     5      -8.321   5.694  71.976  1.00  0.00    -0.122 C  
HETATM   24  O   UNL     5      -7.897   4.330  71.981  1.00  0.00    -0.080 OA 
HETATM   25  H   UNL     5      -7.247   4.218  71.298  1.00  0.00     0.000 HD 
BRANCH  23  26
HETATM   26  C   UNL     5      -8.870   6.102  70.591  1.00  0.00    -0.143 C  
HETATM   27  O   UNL     5      -7.777   6.189  69.649  1.00  0.00    -0.094 OA 
HETATM   28  H   UNL     5      -8.115   6.440  68.797  1.00  0.00     0.000 HD 
BRANCH  26  29
HETATM   29  C   UNL     5     -10.031   5.259  69.993  1.00  0.00    -0.245 C  
HETATM   30  O   UNL     5      -9.575   4.090  69.312  1.00  0.00    -0.181 OA 
HETATM   31  H   UNL     5     -10.285   3.575  68.946  1.00  0.00     0.000 HD 
BRANCH  29  32
HETATM   32  C   UNL     5     -11.109   5.995  69.181  1.00  0.00    -0.335 C  
HETATM   33  C   UNL     5     -10.871   6.078  67.659  1.00  0.00    -0.295 C  
HETATM   34  O   UNL     5     -11.338   7.341  69.732  1.00  0.00    -0.448 OA 
HETATM   35  O   UNL     5     -10.298   5.090  67.109  1.00  0.00    -0.203 OA 
HETATM   36  O   UNL     5     -11.234   7.196  67.145  1.00  0.00    -0.276 OA 
HETATM   37  H   UNL     5     -12.004   7.796  69.231  1.00  0.00     0.000 HD 
ENDBRANCH  29  32
ENDBRANCH  26  29
ENDBRANCH  23  26
ENDBRANCH   7  23
TORSDOF 8
ENDMDL
MODEL      458
REMARK 921   NORMALIZED FREE ENERGY PREDICTED BY IDOCK:   -2.95 KCAL/MOL
REMARK 922        TOTAL FREE ENERGY PREDICTED BY IDOCK:   -6.58 KCAL/MOL
REMARK 923 INTER-LIGAND FREE ENERGY PREDICTED BY IDOCK:   -6.02 KCAL/MOL
REMARK 924 INTRA-LIGAND FREE ENERGY PREDICTED BY IDOCK:   -0.56 KCAL/MOL
REMARK 927      BINDING AFFINITY PREDICTED BY RF-SCORE:    0.00 PKD
ROOT
HETATM    1 MG   UNL     3      -9.324  13.248  64.860  1.00  0.00    -0.464 Mg 
HETATM    2  O   UNL     4      -6.906  18.960  65.083  1.00  0.00    -0.496 OA 
HETATM    3  C   UNL     4      -6.754  17.578  65.345  1.00  0.00     0.633 C  
HETATM    4  H   UNL     4      -6.418  19.249  64.320  1.00  0.00     0.000 HD 
HETATM    5  O   UNL     5     -12.227   8.493  70.167  1.00  0.00    -0.226 OA 
HETATM    6  H   UNL     5     -13.159   8.632  70.290  1.00  0.00     0.000 HD 
HETATM    7  C   UNL     5     -11.498   9.719  70.213  1.00  0.00    -0.255 C  
ENDROOT
BRANCH   3   8
HETATM    8  C   UNL     4      -7.544  17.112  66.577  1.00  0.00    -0.285 C  
HETATM    9  O   UNL     4      -8.025  15.772  66.364  1.00  0.00    -0.274 OA 
HETATM   10  H   UNL     4      -8.514  15.484  67.127  1.00  0.00     0.000 HD 
BRANCH   8  11
HETATM   11  C   UNL     4      -6.838  17.113  67.964  1.00  0.00    -0.169 C  
HETATM   12  O   UNL     4      -5.644  16.339  67.989  1.00  0.00    -0.097 OA 
HETATM   13  H   UNL     4      -5.214  16.340  68.836  1.00  0.00     0.000 HD 
BRANCH  11  14
HETATM   14  C   UNL     4      -6.645  18.476  68.683  1.00  0.00    -0.247 C  
HETATM   15  H   UNL     4      -6.093  19.014  70.478  1.00  0.00     0.000 HD 
HETATM   16  O   UNL     4      -6.211  18.180  70.038  1.00  0.00    -0.179 OA 
BRANCH  14  17
HETATM   17  C   UNL     4      -7.796  19.522  68.694  1.00  0.00    -0.348 C  
HETATM   18  C   UNL     4      -9.230  18.852  68.616  1.00  0.00    -0.356 C  
HETATM   19  H   UNL     4      -8.280  21.218  67.752  1.00  0.00     0.000 HD 
HETATM   20  O   UNL     4      -7.577  20.578  67.745  1.00  0.00    -0.283 OA 
HETATM   21  O   UNL     4      -9.328  17.744  69.293  1.00  0.00    -0.028 OA 
HETATM   22  O   UNL     4     -10.104  19.366  67.865  1.00  0.00    -0.348 OA 
ENDBRANCH  14  17
ENDBRANCH  11  14
ENDBRANCH   8  11
ENDBRANCH   3   8
BRANCH   7  23
HETATM   23  C   UNL     5      -9.986   9.492  70.013  1.00  0.00    -0.237 C  
HETATM   24  O   UNL     5      -9.307  10.714  70.307  1.00  0.00    -0.020 OA 
HETATM   25  H   UNL     5      -8.375  10.575  70.184  1.00  0.00     0.000 HD 
BRANCH  23  26
HETATM   26  C   UNL     5      -9.460   8.338  70.893  1.00  0.00    -0.162 C  
HETATM   27  O   UNL     5      -8.143   7.951  70.439  1.00  0.00    -0.109 OA 
HETATM   28  H   UNL     5      -7.819   7.240  70.981  1.00  0.00     0.000 HD 
BRANCH  26  29
HETATM   29  C   UNL     5      -9.461   8.539  72.434  1.00  0.00    -0.280 C  
HETATM   30  O   UNL     5      -8.147   8.665  72.978  1.00  0.00    -0.394 OA 
HETATM   31  H   UNL     5      -8.148   8.789  73.921  1.00  0.00     0.000 HD 
BRANCH  29  32
HETATM   32  C   UNL     5     -10.330   7.596  73.282  1.00  0.00    -0.345 C  
HETATM   33  C   UNL     5      -9.826   6.144  73.410  1.00  0.00    -0.167 C  
HETATM   34  O   UNL     5     -11.722   7.610  72.802  1.00  0.00    -0.533 OA 
HETATM   35  O   UNL     5      -8.572   5.968  73.440  1.00  0.00    -0.121 OA 
HETATM   36  O   UNL     5     -10.768   5.273  73.400  1.00  0.00    -0.232 OA 
HETATM   37  H   UNL     5     -12.259   7.028  73.326  1.00  0.00     0.000 HD 
ENDBRANCH  29  32
ENDBRANCH  26  29
ENDBRANCH  23  26
ENDBRANCH   7  23
TORSDOF 8
ENDMDL
MODEL      459
REMARK 921   NORMALIZED FREE ENERGY PREDICTED BY IDOCK:   -2.94 KCAL/MOL
REMARK 922        TOTAL FREE ENERGY PREDICTED BY IDOCK:   -6.56 KCAL/MOL
REMARK 923 INTER-LIGAND FREE ENERGY PREDICTED BY IDOCK:   -5.25 KCAL/MOL
REMARK 924 INTRA-LIGAND FREE ENERGY PREDICTED BY IDOCK:   -1.31 KCAL/MOL
REMARK 927      BINDING AFFINITY PREDICTED BY RF-SCORE:    0.00 PKD
ROOT
HETATM    1 MG   UNL     3      -8.099   5.844  70.860  1.00  0.00    -0.096 Mg 
HETATM    2  O   UNL     4      -7.424   1.473  66.506  1.00  0.00    -0.054 OA 
HETATM    3  C   UNL     4      -7.209   2.812  66.910  1.00  0.00    -0.061 C  
HETATM    4  H   UNL     4      -6.637   0.941  66.551  1.00  0.00     0.000 HD 
HETATM    5  O   UNL     5     -12.680  11.987  71.561  1.00  0.00    -0.336 OA 
HETATM    6  H   UNL     5     -13.501  11.765  71.984  1.00  0.00     0.000 HD 
HETATM    7  C   UNL     5     -12.371  11.085  70.499  1.00  0.00    -0.373 C  
ENDROOT
BRANCH   3   8
HETATM    8  C   UNL     4      -8.480   3.670  66.838  1.00  0.00    -0.105 C  
HETATM    9  O   UNL     4      -9.633   2.852  67.112  1.00  0.00    -0.394 OA 
HETATM   10  H   UNL     4     -10.419   3.384  67.067  1.00  0.00     0.000 HD 
BRANCH   8  11
HETATM   11  C   UNL     4      -8.596   4.919  67.760  1.00  0.00    -0.103 C  
HETATM   12  O   UNL     4      -9.017   4.604  69.083  1.00  0.00    -0.090 OA 
HETATM   13  H   UNL     4      -9.087   5.366  69.646  1.00  0.00     0.000 HD 
BRANCH  11  14
HETATM   14  C   UNL     4      -7.419   5.932  67.766  1.00  0.00    -0.078 C  
HETATM   15  H   UNL     4      -6.090   6.481  69.088  1.00  0.00     0.000 HD 
HETATM   16  O   UNL     4      -6.810   5.862  69.085  1.00  0.00    -0.058 OA 
BRANCH  14  17
HETATM   17  C   UNL     4      -7.661   7.412  67.354  1.00  0.00    -0.114 C  
HETATM   18  C   UNL     4      -6.773   7.854  66.118  1.00  0.00    -0.054 C  
HETATM   19  H   UNL     4      -7.756   9.207  68.227  1.00  0.00     0.000 HD 
HETATM   20  O   UNL     4      -7.607   8.303  68.479  1.00  0.00    -0.096 OA 
HETATM   21  O   UNL     4      -6.629   6.925  65.217  1.00  0.00    -0.048 OA 
HETATM   22  O   UNL     4      -6.220   8.988  66.139  1.00  0.00    -0.061 OA 
ENDBRANCH  14  17
ENDBRANCH  11  14
ENDBRANCH   8  11
ENDBRANCH   3   8
BRANCH   7  23
HETATM   23  C   UNL     5     -11.038  11.445  69.812  1.00  0.00    -0.126 C  
HETATM   24  O   UNL     5     -10.050  10.501  70.229  1.00  0.00    -0.390 OA 
HETATM   25  H   UNL     5      -9.229  10.722  69.806  1.00  0.00     0.000 HD 
BRANCH  23  26
HETATM   26  C   UNL     5     -11.176  11.465  68.274  1.00  0.00    -0.263 C  
HETATM   27  O   UNL     5     -12.392  10.782  67.893  1.00  0.00    -0.281 OA 
HETATM   28  H   UNL     5     -12.476  10.794  66.946  1.00  0.00     0.000 HD 
BRANCH  26  29
HETATM   29  C   UNL     5     -11.080  12.838  67.553  1.00  0.00    -0.263 C  
HETATM   30  O   UNL     5     -12.357  13.370  67.200  1.00  0.00    -0.295 OA 
HETATM   31  H   UNL     5     -12.299  14.210  66.759  1.00  0.00     0.000 HD 
BRANCH  29  32
HETATM   32  C   UNL     5     -10.078  12.974  66.396  1.00  0.00    -0.279 C  
HETATM   33  C   UNL     5     -10.473  13.952  65.270  1.00  0.00    -0.371 C  
HETATM   34  O   UNL     5      -9.761  11.652  65.831  1.00  0.00    -0.222 OA 
HETATM   35  O   UNL     5     -11.123  14.987  65.605  1.00  0.00    -0.337 OA 
HETATM   36  O   UNL     5     -10.142  13.545  64.099  1.00  0.00    -0.300 OA 
HETATM   37  H   UNL     5      -9.142  11.736  65.116  1.00  0.00     0.000 HD 
ENDBRANCH  29  32
ENDBRANCH  26  29
ENDBRANCH  23  26
ENDBRANCH   7  23
TORSDOF 8
ENDMDL
MODEL      460
REMARK 921   NORMALIZED FREE ENERGY PREDICTED BY IDOCK:   -2.89 KCAL/MOL
REMARK 922        TOTAL FREE ENERGY PREDICTED BY IDOCK:   -6.48 KCAL/MOL
REMARK 923 INTER-LIGAND FREE ENERGY PREDICTED BY IDOCK:   -5.54 KCAL/MOL
REMARK 924 INTRA-LIGAND FREE ENERGY PREDICTED BY IDOCK:   -0.95 KCAL/MOL
REMARK 927      BINDING AFFINITY PREDICTED BY RF-SCORE:    0.00 PKD
ROOT
HETATM    1 MG   UNL     3      -9.329  13.400  64.485  1.00  0.00    -0.516 Mg 
HETATM    2  O   UNL     4      -7.895  19.318  65.685  1.00  0.00    -0.445 OA 
HETATM    3  C   UNL     4      -7.513  17.957  65.722  1.00  0.00    -0.070 C  
HETATM    4  H   UNL     4      -7.466  19.804  64.990  1.00  0.00     0.000 HD 
HETATM    5  O   UNL     5     -11.369   7.427  68.885  1.00  0.00    -0.423 OA 
HETATM    6  H   UNL     5     -12.310   7.388  69.009  1.00  0.00     0.000 HD 
HETATM    7  C   UNL     5     -10.854   8.732  69.145  1.00  0.00    -0.053 C  
ENDROOT
BRANCH   3   8
HETATM    8  C   UNL     4      -8.207  17.171  66.845  1.00  0.00    -0.221 C  
HETATM    9  O   UNL     4      -8.422  18.034  67.977  1.00  0.00    -0.248 OA 
HETATM   10  H   UNL     4      -8.852  17.548  68.672  1.00  0.00     0.000 HD 
BRANCH   8  11
HETATM   11  C   UNL     4      -9.572  16.485  66.547  1.00  0.00    -0.271 C  
HETATM   12  O   UNL     4     -10.190  16.956  65.354  1.00  0.00    -0.605 OA 
HETATM   13  H   UNL     4     -11.023  16.537  65.172  1.00  0.00     0.000 HD 
BRANCH  11  14
HETATM   14  C   UNL     4      -9.648  14.938  66.652  1.00  0.00    -0.266 C  
HETATM   15  H   UNL     4     -11.105  13.641  66.761  1.00  0.00     0.000 HD 
HETATM   16  O   UNL     4     -11.059  14.587  66.696  1.00  0.00    -0.318 OA 
BRANCH  14  17
HETATM   17  C   UNL     4      -8.864  14.192  67.769  1.00  0.00    -0.185 C  
HETATM   18  C   UNL     4      -8.902  14.959  69.156  1.00  0.00    -0.145 C  
HETATM   19  H   UNL     4      -7.072  13.343  68.022  1.00  0.00     0.000 HD 
HETATM   20  O   UNL     4      -7.551  13.799  67.339  1.00  0.00    -0.173 OA 
HETATM   21  O   UNL     4     -10.046  15.528  69.409  1.00  0.00    -0.230 OA 
HETATM   22  O   UNL     4      -7.844  15.037  69.840  1.00  0.00    -0.114 OA 
ENDBRANCH  14  17
ENDBRANCH  11  14
ENDBRANCH   8  11
ENDBRANCH   3   8
BRANCH   7  23
HETATM   23  C   UNL     5      -9.326   8.794  68.944  1.00  0.00    -0.145 C  
HETATM   24  O   UNL     5      -8.823   9.913  69.676  1.00  0.00    -0.182 OA 
HETATM   25  H   UNL     5      -7.882   9.952  69.552  1.00  0.00     0.000 HD 
BRANCH  23  26
HETATM   26  C   UNL     5      -8.638   7.485  69.387  1.00  0.00    -0.133 C  
HETATM   27  O   UNL     5      -7.275   7.474  68.906  1.00  0.00    -0.077 OA 
HETATM   28  H   UNL     5      -6.851   6.668  69.178  1.00  0.00     0.000 HD 
BRANCH  26  29
HETATM   29  C   UNL     5      -8.680   7.115  70.896  1.00  0.00    -0.146 C  
HETATM   30  O   UNL     5      -7.630   7.725  71.646  1.00  0.00    -0.079 OA 
HETATM   31  H   UNL     5      -7.656   7.500  72.569  1.00  0.00     0.000 HD 
BRANCH  29  32
HETATM   32  C   UNL     5      -8.846   5.633  71.269  1.00  0.00    -0.135 C  
HETATM   33  C   UNL     5      -7.685   4.700  70.866  1.00  0.00    -0.072 C  
HETATM   34  O   UNL     5     -10.121   5.112  70.748  1.00  0.00    -0.204 OA 
HETATM   35  O   UNL     5      -6.515   5.184  70.902  1.00  0.00    -0.025 OA 
HETATM   36  O   UNL     5      -8.074   3.543  70.470  1.00  0.00    -0.052 OA 
HETATM   37  H   UNL     5     -10.224   4.196  70.978  1.00  0.00     0.000 HD 
ENDBRANCH  29  32
ENDBRANCH  26  29
ENDBRANCH  23  26
ENDBRANCH   7  23
TORSDOF 8
ENDMDL
MODEL      461
REMARK 921   NORMALIZED FREE ENERGY PREDICTED BY IDOCK:   -2.84 KCAL/MOL
REMARK 922        TOTAL FREE ENERGY PREDICTED BY IDOCK:   -6.41 KCAL/MOL
REMARK 923 INTER-LIGAND FREE ENERGY PREDICTED BY IDOCK:   -4.33 KCAL/MOL
REMARK 924 INTRA-LIGAND FREE ENERGY PREDICTED BY IDOCK:   -2.08 KCAL/MOL
REMARK 927      BINDING AFFINITY PREDICTED BY RF-SCORE:    0.00 PKD
ROOT
HETATM    1 MG   UNL     3      -6.099   6.593  66.677  1.00  0.00    -0.023 Mg 
HETATM    2  O   UNL     4      -9.136   3.236  62.432  1.00  0.00    -0.087 OA 
HETATM    3  C   UNL     4      -9.102   4.384  63.258  1.00  0.00    -0.137 C  
HETATM    4  H   UNL     4      -8.952   3.430  61.520  1.00  0.00     0.000 HD 
HETATM    5  O   UNL     5      -7.054   7.740  74.226  1.00  0.00    -0.112 OA 
HETATM    6  H   UNL     5      -6.588   7.093  74.740  1.00  0.00     0.000 HD 
HETATM    7  C   UNL     5      -7.838   7.135  73.198  1.00  0.00    -0.096 C  
ENDROOT
BRANCH   3   8
HETATM    8  C   UNL     4      -9.400   4.070  64.731  1.00  0.00    -0.162 C  
HETATM    9  O   UNL     4     -10.638   3.342  64.830  1.00  0.00    -0.431 OA 
HETATM   10  H   UNL     4     -10.823   3.148  65.742  1.00  0.00     0.000 HD 
BRANCH   8  11
HETATM   11  C   UNL     4      -8.350   3.268  65.555  1.00  0.00    -0.099 C  
HETATM   12  O   UNL     4      -7.023   3.761  65.406  1.00  0.00    -0.058 OA 
HETATM   13  H   UNL     4      -6.382   3.272  65.909  1.00  0.00     0.000 HD 
BRANCH  11  14
HETATM   14  C   UNL     4      -8.675   2.954  67.040  1.00  0.00    -0.124 C  
HETATM   15  H   UNL     4      -9.854   1.689  67.948  1.00  0.00     0.000 HD 
HETATM   16  O   UNL     4      -9.655   1.881  67.039  1.00  0.00     0.083 OA 
BRANCH  14  17
HETATM   17  C   UNL     4      -9.115   4.096  68.001  1.00  0.00    -0.136 C  
HETATM   18  C   UNL     4      -8.916   3.720  69.527  1.00  0.00    -0.106 C  
HETATM   19  H   UNL     4     -10.688   5.302  68.262  1.00  0.00     0.000 HD 
HETATM   20  O   UNL     4     -10.419   4.604  67.675  1.00  0.00     0.012 OA 
HETATM   21  O   UNL     4      -7.835   3.031  69.760  1.00  0.00    -0.043 OA 
HETATM   22  O   UNL     4      -9.820   4.021  70.354  1.00  0.00    -0.198 OA 
ENDBRANCH  14  17
ENDBRANCH  11  14
ENDBRANCH   8  11
ENDBRANCH   3   8
BRANCH   7  23
HETATM   23  C   UNL     5      -8.596   8.187  72.363  1.00  0.00    -0.185 C  
HETATM   24  O   UNL     5      -7.637   9.074  71.784  1.00  0.00    -0.321 OA 
HETATM   25  H   UNL     5      -8.104   9.722  71.269  1.00  0.00     0.000 HD 
BRANCH  23  26
HETATM   26  C   UNL     5      -9.473   7.529  71.275  1.00  0.00    -0.150 C  
HETATM   27  O   UNL     5     -10.100   6.344  71.817  1.00  0.00    -0.184 OA 
HETATM   28  H   UNL     5     -10.640   5.940  71.148  1.00  0.00     0.000 HD 
BRANCH  26  29
HETATM   29  C   UNL     5     -10.529   8.416  70.557  1.00  0.00    -0.207 C  
HETATM   30  O   UNL     5     -10.565   9.752  71.058  1.00  0.00    -0.314 OA 
HETATM   31  H   UNL     5     -11.210  10.294  70.619  1.00  0.00     0.000 HD 
BRANCH  29  32
HETATM   32  C   UNL     5     -11.945   7.845  70.380  1.00  0.00     0.149 C  
HETATM   33  C   UNL     5     -12.745   7.604  71.677  1.00  0.00    -0.343 C  
HETATM   34  O   UNL     5     -11.907   6.616  69.571  1.00  0.00    -0.658 OA 
HETATM   35  O   UNL     5     -12.557   8.417  72.631  1.00  0.00    -0.323 OA 
HETATM   36  O   UNL     5     -13.465   6.544  71.643  1.00  0.00    -0.081 OA 
HETATM   37  H   UNL     5     -12.782   6.263  69.462  1.00  0.00     0.000 HD 
ENDBRANCH  29  32
ENDBRANCH  26  29
ENDBRANCH  23  26
ENDBRANCH   7  23
TORSDOF 8
ENDMDL
MODEL      462
REMARK 921   NORMALIZED FREE ENERGY PREDICTED BY IDOCK:   -2.76 KCAL/MOL
REMARK 922        TOTAL FREE ENERGY PREDICTED BY IDOCK:   -6.29 KCAL/MOL
REMARK 923 INTER-LIGAND FREE ENERGY PREDICTED BY IDOCK:   -5.17 KCAL/MOL
REMARK 924 INTRA-LIGAND FREE ENERGY PREDICTED BY IDOCK:   -1.13 KCAL/MOL
REMARK 927      BINDING AFFINITY PREDICTED BY RF-SCORE:    0.00 PKD
ROOT
HETATM    1 MG   UNL     3      -5.313   7.049  67.039  1.00  0.00    -0.012 Mg 
HETATM    2  O   UNL     4      -6.366   2.286  63.202  1.00  0.00    -0.013 OA 
HETATM    3  C   UNL     4      -6.847   3.468  63.812  1.00  0.00    -0.044 C  
HETATM    4  H   UNL     4      -6.130   2.410  62.290  1.00  0.00     0.000 HD 
HETATM    5  O   UNL     5      -7.685   8.771  74.153  1.00  0.00    -0.419 OA 
HETATM    6  H   UNL     5      -7.105   8.411  74.813  1.00  0.00     0.000 HD 
HETATM    7  C   UNL     5      -8.057   7.792  73.184  1.00  0.00    -0.137 C  
ENDROOT
BRANCH   3   8
HETATM    8  C   UNL     4      -7.230   3.268  65.286  1.00  0.00    -0.070 C  
HETATM    9  O   UNL     4      -6.528   2.128  65.817  1.00  0.00    -0.023 OA 
HETATM   10  H   UNL     4      -6.765   2.004  66.729  1.00  0.00     0.000 HD 
BRANCH   8  11
HETATM   11  C   UNL     4      -6.996   4.436  66.288  1.00  0.00    -0.066 C  
HETATM   12  O   UNL     4      -6.164   5.467  65.765  1.00  0.00    -0.032 OA 
HETATM   13  H   UNL     4      -6.022   6.180  66.377  1.00  0.00     0.000 HD 
BRANCH  11  14
HETATM   14  C   UNL     4      -8.230   5.022  67.025  1.00  0.00    -0.107 C  
HETATM   15  H   UNL     4      -9.362   4.418  68.498  1.00  0.00     0.000 HD 
HETATM   16  O   UNL     4      -8.606   4.060  68.048  1.00  0.00    -0.093 OA 
BRANCH  14  17
HETATM   17  C   UNL     4      -9.479   5.476  66.215  1.00  0.00    -0.157 C  
HETATM   18  C   UNL     4     -10.241   6.687  66.897  1.00  0.00    -0.220 C  
HETATM   19  H   UNL     4     -11.081   4.646  65.356  1.00  0.00     0.000 HD 
HETATM   20  O   UNL     4     -10.319   4.370  65.851  1.00  0.00    -0.256 OA 
HETATM   21  O   UNL     4      -9.448   7.561  67.448  1.00  0.00    -0.136 OA 
HETATM   22  O   UNL     4     -11.502   6.670  66.936  1.00  0.00    -0.209 OA 
ENDBRANCH  14  17
ENDBRANCH  11  14
ENDBRANCH   8  11
ENDBRANCH   3   8
BRANCH   7  23
HETATM   23  C   UNL     5      -9.000   8.376  72.113  1.00  0.00    -0.223 C  
HETATM   24  O   UNL     5      -8.301   9.412  71.418  1.00  0.00    -0.295 OA 
HETATM   25  H   UNL     5      -8.882   9.772  70.759  1.00  0.00     0.000 HD 
BRANCH  23  26
HETATM   26  C   UNL     5      -9.499   7.289  71.136  1.00  0.00    -0.156 C  
HETATM   27  O   UNL     5      -8.692   6.099  71.291  1.00  0.00    -0.131 OA 
HETATM   28  H   UNL     5      -8.999   5.430  70.690  1.00  0.00     0.000 HD 
BRANCH  26  29
HETATM   29  C   UNL     5     -11.009   6.924  71.164  1.00  0.00    -0.251 C  
HETATM   30  O   UNL     5     -11.434   6.230  69.992  1.00  0.00    -0.412 OA 
HETATM   31  H   UNL     5     -12.358   6.006  70.009  1.00  0.00     0.000 HD 
BRANCH  29  32
HETATM   32  C   UNL     5     -12.008   8.024  71.556  1.00  0.00    -0.297 C  
HETATM   33  C   UNL     5     -11.782   9.406  70.907  1.00  0.00    -0.308 C  
HETATM   34  O   UNL     5     -12.076   8.158  73.021  1.00  0.00    -0.640 OA 
HETATM   35  O   UNL     5     -11.332   9.420  69.723  1.00  0.00    -0.171 OA 
HETATM   36  O   UNL     5     -12.023  10.387  71.696  1.00  0.00    -0.291 OA 
HETATM   37  H   UNL     5     -12.693   8.838  73.264  1.00  0.00     0.000 HD 
ENDBRANCH  29  32
ENDBRANCH  26  29
ENDBRANCH  23  26
ENDBRANCH   7  23
TORSDOF 8
ENDMDL
MODEL      463
REMARK 921   NORMALIZED FREE ENERGY PREDICTED BY IDOCK:   -2.74 KCAL/MOL
REMARK 922        TOTAL FREE ENERGY PREDICTED BY IDOCK:   -6.26 KCAL/MOL
REMARK 923 INTER-LIGAND FREE ENERGY PREDICTED BY IDOCK:   -5.53 KCAL/MOL
REMARK 924 INTRA-LIGAND FREE ENERGY PREDICTED BY IDOCK:   -0.73 KCAL/MOL
REMARK 927      BINDING AFFINITY PREDICTED BY RF-SCORE:    0.00 PKD
ROOT
HETATM    1 MG   UNL     3     -12.495  11.693  71.315  1.00  0.00    -0.285 Mg 
HETATM    2  O   UNL     4     -11.587  17.278  68.765  1.00  0.00     0.124 OA 
HETATM    3  C   UNL     4     -11.617  15.873  68.605  1.00  0.00    -0.380 C  
HETATM    4  H   UNL     4     -12.349  17.709  68.396  1.00  0.00     0.000 HD 
HETATM    5  O   UNL     5      -7.785   5.997  73.457  1.00  0.00    -0.099 OA 
HETATM    6  H   UNL     5      -7.492   6.103  74.354  1.00  0.00     0.000 HD 
HETATM    7  C   UNL     5      -7.625   7.198  72.702  1.00  0.00    -0.084 C  
ENDROOT
BRANCH   3   8
HETATM    8  C   UNL     4     -10.385  15.176  69.202  1.00  0.00    -0.249 C  
HETATM    9  O   UNL     4     -10.732  14.581  70.467  1.00  0.00    -0.459 OA 
HETATM   10  H   UNL     4      -9.969  14.150  70.836  1.00  0.00     0.000 HD 
BRANCH   8  11
HETATM   11  C   UNL     4      -9.675  14.067  68.372  1.00  0.00    -0.223 C  
HETATM   12  O   UNL     4      -9.667  12.799  69.019  1.00  0.00    -0.399 OA 
HETATM   13  H   UNL     4      -9.233  12.122  68.512  1.00  0.00     0.000 HD 
BRANCH  11  14
HETATM   14  C   UNL     4     -10.041  13.934  66.869  1.00  0.00    -0.260 C  
HETATM   15  H   UNL     4     -10.047  12.462  65.584  1.00  0.00     0.000 HD 
HETATM   16  O   UNL     4      -9.823  12.544  66.504  1.00  0.00    -0.234 OA 
BRANCH  14  17
HETATM   17  C   UNL     4      -9.392  14.883  65.821  1.00  0.00    -0.099 C  
HETATM   18  C   UNL     4      -8.041  15.529  66.338  1.00  0.00     0.079 C  
HETATM   19  H   UNL     4      -9.940  16.401  64.643  1.00  0.00     0.000 HD 
HETATM   20  O   UNL     4     -10.336  15.822  65.283  1.00  0.00    -0.379 OA 
HETATM   21  O   UNL     4      -7.310  14.718  67.048  1.00  0.00    -0.097 OA 
HETATM   22  O   UNL     4      -7.824  16.752  66.115  1.00  0.00    -0.312 OA 
ENDBRANCH  14  17
ENDBRANCH  11  14
ENDBRANCH   8  11
ENDBRANCH   3   8
BRANCH   7  23
HETATM   23  C   UNL     5      -8.101   7.025  71.245  1.00  0.00    -0.108 C  
HETATM   24  O   UNL     5      -8.423   5.648  71.040  1.00  0.00    -0.119 OA 
HETATM   25  H   UNL     5      -8.716   5.542  70.142  1.00  0.00     0.000 HD 
BRANCH  23  26
HETATM   26  C   UNL     5      -9.309   7.933  70.927  1.00  0.00    -0.153 C  
HETATM   27  O   UNL     5      -8.941   8.877  69.896  1.00  0.00    -0.143 OA 
HETATM   28  H   UNL     5      -9.684   9.435  69.700  1.00  0.00     0.000 HD 
BRANCH  26  29
HETATM   29  C   UNL     5     -10.659   7.249  70.574  1.00  0.00    -0.222 C  
HETATM   30  O   UNL     5     -11.181   7.668  69.314  1.00  0.00    -0.442 OA 
HETATM   31  H   UNL     5     -12.007   7.250  69.098  1.00  0.00     0.000 HD 
BRANCH  29  32
HETATM   32  C   UNL     5     -11.755   7.222  71.653  1.00  0.00    -0.284 C  
HETATM   33  C   UNL     5     -11.900   5.901  72.436  1.00  0.00    -0.207 C  
HETATM   34  O   UNL     5     -13.052   7.616  71.078  1.00  0.00    -0.551 OA 
HETATM   35  O   UNL     5     -10.840   5.244  72.662  1.00  0.00    -0.228 OA 
HETATM   36  O   UNL     5     -13.117   5.597  72.705  1.00  0.00     0.284 OA 
HETATM   37  H   UNL     5     -13.728   7.600  71.744  1.00  0.00     0.000 HD 
ENDBRANCH  29  32
ENDBRANCH  26  29
ENDBRANCH  23  26
ENDBRANCH   7  23
TORSDOF 8
ENDMDL
MODEL      464
REMARK 921   NORMALIZED FREE ENERGY PREDICTED BY IDOCK:   -2.72 KCAL/MOL
REMARK 922        TOTAL FREE ENERGY PREDICTED BY IDOCK:   -6.24 KCAL/MOL
REMARK 923 INTER-LIGAND FREE ENERGY PREDICTED BY IDOCK:   -5.69 KCAL/MOL
REMARK 924 INTRA-LIGAND FREE ENERGY PREDICTED BY IDOCK:   -0.55 KCAL/MOL
REMARK 927      BINDING AFFINITY PREDICTED BY RF-SCORE:    0.00 PKD
ROOT
HETATM    1 MG   UNL     3      -8.301   5.435  70.839  1.00  0.00    -0.096 Mg 
HETATM    2  O   UNL     4      -6.185   2.531  65.779  1.00  0.00    -0.023 OA 
HETATM    3  C   UNL     4      -6.217   3.705  66.567  1.00  0.00    -0.028 C  
HETATM    4  H   UNL     4      -5.373   2.044  65.872  1.00  0.00     0.000 HD 
HETATM    5  O   UNL     5     -13.585  10.905  72.010  1.00  0.00    -0.377 OA 
HETATM    6  H   UNL     5     -14.449  10.534  72.144  1.00  0.00     0.000 HD 
HETATM    7  C   UNL     5     -12.947  10.360  70.856  1.00  0.00    -0.387 C  
ENDROOT
BRANCH   3   8
HETATM    8  C   UNL     4      -7.529   4.490  66.417  1.00  0.00    -0.082 C  
HETATM    9  O   UNL     4      -8.647   3.607  66.621  1.00  0.00    -0.104 OA 
HETATM   10  H   UNL     4      -9.459   4.093  66.528  1.00  0.00     0.000 HD 
BRANCH   8  11
HETATM   11  C   UNL     4      -7.771   5.728  67.329  1.00  0.00    -0.101 C  
HETATM   12  O   UNL     4      -8.227   5.385  68.633  1.00  0.00    -0.094 OA 
HETATM   13  H   UNL     4      -8.374   6.141  69.190  1.00  0.00     0.000 HD 
BRANCH  11  14
HETATM   14  C   UNL     4      -6.668   6.820  67.383  1.00  0.00    -0.067 C  
HETATM   15  H   UNL     4      -4.871   6.917  68.145  1.00  0.00     0.000 HD 
HETATM   16  O   UNL     4      -5.546   6.249  68.111  1.00  0.00    -0.007 OA 
BRANCH  14  17
HETATM   17  C   UNL     4      -7.003   8.240  67.921  1.00  0.00    -0.078 C  
HETATM   18  C   UNL     4      -7.456   8.227  69.439  1.00  0.00    -0.090 C  
HETATM   19  H   UNL     4      -8.085   9.827  67.368  1.00  0.00     0.000 HD 
HETATM   20  O   UNL     4      -7.881   8.959  67.040  1.00  0.00    -0.100 OA 
HETATM   21  O   UNL     4      -6.804   7.372  70.173  1.00  0.00    -0.053 OA 
HETATM   22  O   UNL     4      -8.433   8.945  69.791  1.00  0.00    -0.121 OA 
ENDBRANCH  14  17
ENDBRANCH  11  14
ENDBRANCH   8  11
ENDBRANCH   3   8
BRANCH   7  23
HETATM   23  C   UNL     5     -11.544  10.961  70.639  1.00  0.00    -0.242 C  
HETATM   24  O   UNL     5     -10.579  10.043  71.155  1.00  0.00    -0.282 OA 
HETATM   25  H   UNL     5      -9.714  10.414  71.022  1.00  0.00     0.000 HD 
BRANCH  23  26
HETATM   26  C   UNL     5     -11.278  11.270  69.150  1.00  0.00    -0.273 C  
HETATM   27  O   UNL     5     -12.376  10.769  68.353  1.00  0.00    -0.813 OA 
HETATM   28  H   UNL     5     -12.213  10.959  67.437  1.00  0.00     0.000 HD 
BRANCH  26  29
HETATM   29  C   UNL     5     -10.955  12.739  68.758  1.00  0.00    -0.250 C  
HETATM   30  O   UNL     5      -9.608  13.108  69.050  1.00  0.00    -0.392 OA 
HETATM   31  H   UNL     5      -9.410  14.006  68.810  1.00  0.00     0.000 HD 
BRANCH  29  32
HETATM   32  C   UNL     5     -11.943  13.833  69.193  1.00  0.00    -0.361 C  
HETATM   33  C   UNL     5     -11.606  15.269  68.738  1.00  0.00    -0.362 C  
HETATM   34  O   UNL     5     -12.140  13.797  70.652  1.00  0.00    -0.335 OA 
HETATM   35  O   UNL     5     -11.048  15.400  67.608  1.00  0.00    -0.306 OA 
HETATM   36  O   UNL     5     -11.880  16.161  69.618  1.00  0.00    -0.271 OA 
HETATM   37  H   UNL     5     -12.750  14.473  70.921  1.00  0.00     0.000 HD 
ENDBRANCH  29  32
ENDBRANCH  26  29
ENDBRANCH  23  26
ENDBRANCH   7  23
TORSDOF 8
ENDMDL
MODEL      465
REMARK 921   NORMALIZED FREE ENERGY PREDICTED BY IDOCK:   -2.72 KCAL/MOL
REMARK 922        TOTAL FREE ENERGY PREDICTED BY IDOCK:   -6.24 KCAL/MOL
REMARK 923 INTER-LIGAND FREE ENERGY PREDICTED BY IDOCK:   -5.67 KCAL/MOL
REMARK 924 INTRA-LIGAND FREE ENERGY PREDICTED BY IDOCK:   -0.57 KCAL/MOL
REMARK 927      BINDING AFFINITY PREDICTED BY RF-SCORE:    0.00 PKD
ROOT
HETATM    1 MG   UNL     3      -9.460  12.710  68.806  1.00  0.00    -0.185 Mg 
HETATM    2  O   UNL     4      -9.491   7.199  65.953  1.00  0.00    -0.394 OA 
HETATM    3  C   UNL     4      -8.744   8.230  66.570  1.00  0.00    -0.141 C  
HETATM    4  H   UNL     4      -9.589   6.431  66.505  1.00  0.00     0.000 HD 
HETATM    5  O   UNL     5      -7.399  19.803  66.647  1.00  0.00    -0.232 OA 
HETATM    6  H   UNL     5      -8.122  20.272  66.248  1.00  0.00     0.000 HD 
HETATM    7  C   UNL     5      -7.240  18.500  66.086  1.00  0.00    -0.266 C  
ENDROOT
BRANCH   3   8
HETATM    8  C   UNL     4      -8.586   9.470  65.678  1.00  0.00    -0.138 C  
HETATM    9  O   UNL     4      -9.831   9.748  65.011  1.00  0.00    -0.379 OA 
HETATM   10  H   UNL     4      -9.733  10.515  64.459  1.00  0.00     0.000 HD 
BRANCH   8  11
HETATM   11  C   UNL     4      -8.125  10.807  66.328  1.00  0.00    -0.159 C  
HETATM   12  O   UNL     4      -9.134  11.811  66.324  1.00  0.00    -0.214 OA 
HETATM   13  H   UNL     4      -8.852  12.627  66.721  1.00  0.00     0.000 HD 
BRANCH  11  14
HETATM   14  C   UNL     4      -7.398  10.739  67.698  1.00  0.00    -0.094 C  
HETATM   15  H   UNL     4      -7.983  10.722  69.562  1.00  0.00     0.000 HD 
HETATM   16  O   UNL     4      -8.428  10.763  68.724  1.00  0.00    -0.135 OA 
BRANCH  14  17
HETATM   17  C   UNL     4      -6.269  11.755  68.033  1.00  0.00    -0.052 C  
HETATM   18  C   UNL     4      -5.442  11.345  69.322  1.00  0.00    -0.048 C  
HETATM   19  H   UNL     4      -6.053  13.732  68.237  1.00  0.00     0.000 HD 
HETATM   20  O   UNL     4      -6.743  13.111  68.033  1.00  0.00    -0.089 OA 
HETATM   21  O   UNL     4      -5.240  10.063  69.428  1.00  0.00    -0.035 OA 
HETATM   22  O   UNL     4      -5.134  12.238  70.159  1.00  0.00    -0.079 OA 
ENDBRANCH  14  17
ENDBRANCH  11  14
ENDBRANCH   8  11
ENDBRANCH   3   8
BRANCH   7  23
HETATM   23  C   UNL     5      -6.065  17.738  66.733  1.00  0.00    -0.159 C  
HETATM   24  O   UNL     5      -5.336  17.077  65.698  1.00  0.00     0.000 OA 
HETATM   25  H   UNL     5      -4.612  16.608  66.096  1.00  0.00     0.000 HD 
BRANCH  23  26
HETATM   26  C   UNL     5      -5.150  18.682  67.543  1.00  0.00    -0.153 C  
HETATM   27  O   UNL     5      -5.369  20.046  67.116  1.00  0.00    -0.162 OA 
HETATM   28  H   UNL     5      -4.806  20.626  67.615  1.00  0.00     0.000 HD 
BRANCH  26  29
HETATM   29  C   UNL     5      -5.199  18.589  69.094  1.00  0.00    -0.193 C  
HETATM   30  O   UNL     5      -6.214  17.703  69.565  1.00  0.00    -0.242 OA 
HETATM   31  H   UNL     5      -6.244  17.646  70.513  1.00  0.00     0.000 HD 
BRANCH  29  32
HETATM   32  C   UNL     5      -5.187  19.902  69.893  1.00  0.00    -0.202 C  
HETATM   33  C   UNL     5      -5.581  19.792  71.381  1.00  0.00    -0.327 C  
HETATM   34  O   UNL     5      -6.013  20.920  69.224  1.00  0.00    -0.330 OA 
HETATM   35  O   UNL     5      -5.246  18.732  71.991  1.00  0.00    -0.744 OA 
HETATM   36  O   UNL     5      -6.276  20.785  71.800  1.00  0.00    -0.520 OA 
HETATM   37  H   UNL     5      -6.005  21.731  69.718  1.00  0.00     0.000 HD 
ENDBRANCH  29  32
ENDBRANCH  26  29
ENDBRANCH  23  26
ENDBRANCH   7  23
TORSDOF 8
ENDMDL
MODEL      466
REMARK 921   NORMALIZED FREE ENERGY PREDICTED BY IDOCK:   -2.70 KCAL/MOL
REMARK 922        TOTAL FREE ENERGY PREDICTED BY IDOCK:   -6.21 KCAL/MOL
REMARK 923 INTER-LIGAND FREE ENERGY PREDICTED BY IDOCK:   -5.07 KCAL/MOL
REMARK 924 INTRA-LIGAND FREE ENERGY PREDICTED BY IDOCK:   -1.14 KCAL/MOL
REMARK 927      BINDING AFFINITY PREDICTED BY RF-SCORE:    0.00 PKD
ROOT
HETATM    1 MG   UNL     3      -8.755   7.721  69.344  1.00  0.00    -0.122 Mg 
HETATM    2  O   UNL     4      -5.884   3.716  65.572  1.00  0.00    -0.021 OA 
HETATM    3  C   UNL     4      -5.891   4.983  66.200  1.00  0.00    -0.022 C  
HETATM    4  H   UNL     4      -5.278   3.105  65.976  1.00  0.00     0.000 HD 
HETATM    5  O   UNL     5     -12.726  14.209  68.180  1.00  0.00    -0.277 OA 
HETATM    6  H   UNL     5     -13.650  14.034  68.041  1.00  0.00     0.000 HD 
HETATM    7  C   UNL     5     -11.902  13.379  67.362  1.00  0.00    -0.375 C  
ENDROOT
BRANCH   3   8
HETATM    8  C   UNL     4      -6.870   5.970  65.546  1.00  0.00    -0.052 C  
HETATM    9  O   UNL     4      -6.992   5.672  64.143  1.00  0.00    -0.048 OA 
HETATM   10  H   UNL     4      -7.597   6.282  63.738  1.00  0.00     0.000 HD 
BRANCH   8  11
HETATM   11  C   UNL     4      -8.320   6.068  66.104  1.00  0.00    -0.126 C  
HETATM   12  O   UNL     4      -9.194   6.819  65.268  1.00  0.00    -0.319 OA 
HETATM   13  H   UNL     4     -10.079   6.879  65.609  1.00  0.00     0.000 HD 
BRANCH  11  14
HETATM   14  C   UNL     4      -8.997   4.764  66.606  1.00  0.00    -0.111 C  
HETATM   15  H   UNL     4     -10.364   3.566  65.891  1.00  0.00     0.000 HD 
HETATM   16  O   UNL     4      -9.949   4.363  65.583  1.00  0.00    -0.201 OA 
BRANCH  14  17
HETATM   17  C   UNL     4      -9.657   4.721  68.014  1.00  0.00    -0.151 C  
HETATM   18  C   UNL     4     -10.569   5.985  68.300  1.00  0.00    -0.261 C  
HETATM   19  H   UNL     4      -9.108   4.397  69.909  1.00  0.00     0.000 HD 
HETATM   20  O   UNL     4      -8.705   4.424  69.049  1.00  0.00    -0.082 OA 
HETATM   21  O   UNL     4     -11.240   6.392  67.260  1.00  0.00    -0.364 OA 
HETATM   22  O   UNL     4     -10.513   6.535  69.434  1.00  0.00    -0.190 OA 
ENDBRANCH  14  17
ENDBRANCH  11  14
ENDBRANCH   8  11
ENDBRANCH   3   8
BRANCH   7  23
HETATM   23  C   UNL     5     -10.403  13.663  67.587  1.00  0.00    -0.239 C  
HETATM   24  O   UNL     5     -10.079  13.313  68.934  1.00  0.00    -0.412 OA 
HETATM   25  H   UNL     5      -9.156  13.488  69.073  1.00  0.00     0.000 HD 
BRANCH  23  26
HETATM   26  C   UNL     5      -9.518  12.891  66.584  1.00  0.00    -0.255 C  
HETATM   27  O   UNL     5      -9.483  13.607  65.328  1.00  0.00    -0.507 OA 
HETATM   28  H   UNL     5      -8.938  13.132  64.711  1.00  0.00     0.000 HD 
BRANCH  26  29
HETATM   29  C   UNL     5      -8.078  12.510  67.027  1.00  0.00    -0.105 C  
HETATM   30  O   UNL     5      -7.119  13.524  66.731  1.00  0.00    -0.250 OA 
HETATM   31  H   UNL     5      -6.238  13.291  67.002  1.00  0.00     0.000 HD 
BRANCH  29  32
HETATM   32  C   UNL     5      -7.555  11.115  66.647  1.00  0.00    -0.147 C  
HETATM   33  C   UNL     5      -8.111   9.936  67.472  1.00  0.00    -0.110 C  
HETATM   34  O   UNL     5      -6.083  11.097  66.663  1.00  0.00    -0.104 OA 
HETATM   35  O   UNL     5      -9.312  10.022  67.866  1.00  0.00    -0.140 OA 
HETATM   36  O   UNL     5      -7.239   9.027  67.716  1.00  0.00    -0.081 OA 
HETATM   37  H   UNL     5      -5.759  10.235  66.428  1.00  0.00     0.000 HD 
ENDBRANCH  29  32
ENDBRANCH  26  29
ENDBRANCH  23  26
ENDBRANCH   7  23
TORSDOF 8
ENDMDL
MODEL      467
REMARK 921   NORMALIZED FREE ENERGY PREDICTED BY IDOCK:   -2.70 KCAL/MOL
REMARK 922        TOTAL FREE ENERGY PREDICTED BY IDOCK:   -6.21 KCAL/MOL
REMARK 923 INTER-LIGAND FREE ENERGY PREDICTED BY IDOCK:   -4.22 KCAL/MOL
REMARK 924 INTRA-LIGAND FREE ENERGY PREDICTED BY IDOCK:   -1.98 KCAL/MOL
REMARK 927      BINDING AFFINITY PREDICTED BY RF-SCORE:    0.00 PKD
ROOT
HETATM    1 MG   UNL     3      -9.910   2.309  68.480  1.00  0.00    -0.169 Mg 
HETATM    2  O   UNL     4     -10.258   3.117  62.336  1.00  0.00    -0.105 OA 
HETATM    3  C   UNL     4      -9.526   3.295  63.533  1.00  0.00    -0.099 C  
HETATM    4  H   UNL     4      -9.914   2.417  61.792  1.00  0.00     0.000 HD 
HETATM    5  O   UNL     5     -10.654   7.028  74.512  1.00  0.00    -0.465 OA 
HETATM    6  H   UNL     5     -11.557   7.085  74.803  1.00  0.00     0.000 HD 
HETATM    7  C   UNL     5     -10.540   7.217  73.102  1.00  0.00    -0.336 C  
ENDROOT
BRANCH   3   8
HETATM    8  C   UNL     4     -10.082   4.425  64.412  1.00  0.00     0.019 C  
HETATM    9  O   UNL     4     -11.491   4.220  64.628  1.00  0.00    -0.921 OA 
HETATM   10  H   UNL     4     -11.836   4.919  65.172  1.00  0.00     0.000 HD 
BRANCH   8  11
HETATM   11  C   UNL     4      -9.451   4.664  65.815  1.00  0.00    -0.173 C  
HETATM   12  O   UNL     4      -9.073   3.461  66.474  1.00  0.00    -0.142 OA 
HETATM   13  H   UNL     4      -8.687   3.607  67.330  1.00  0.00     0.000 HD 
BRANCH  11  14
HETATM   14  C   UNL     4      -8.349   5.751  65.942  1.00  0.00    -0.130 C  
HETATM   15  H   UNL     4      -8.265   7.530  66.744  1.00  0.00     0.000 HD 
HETATM   16  O   UNL     4      -8.939   6.865  66.667  1.00  0.00    -0.133 OA 
BRANCH  14  17
HETATM   17  C   UNL     4      -7.602   6.256  64.675  1.00  0.00    -0.098 C  
HETATM   18  C   UNL     4      -6.032   6.317  64.876  1.00  0.00    -0.026 C  
HETATM   19  H   UNL     4      -7.729   7.767  63.372  1.00  0.00     0.000 HD 
HETATM   20  O   UNL     4      -8.185   7.458  64.146  1.00  0.00    -0.083 OA 
HETATM   21  O   UNL     4      -5.556   5.333  65.584  1.00  0.00    -0.013 OA 
HETATM   22  O   UNL     4      -5.398   7.316  64.436  1.00  0.00    -0.028 OA 
ENDBRANCH  14  17
ENDBRANCH  11  14
ENDBRANCH   8  11
ENDBRANCH   3   8
BRANCH   7  23
HETATM   23  C   UNL     5      -9.075   7.124  72.630  1.00  0.00    -0.134 C  
HETATM   24  O   UNL     5      -8.322   8.134  73.304  1.00  0.00    -0.186 OA 
HETATM   25  H   UNL     5      -7.420   8.077  73.013  1.00  0.00     0.000 HD 
BRANCH  23  26
HETATM   26  C   UNL     5      -8.480   5.722  72.887  1.00  0.00    -0.122 C  
HETATM   27  O   UNL     5      -7.942   5.668  74.228  1.00  0.00    -0.105 OA 
HETATM   28  H   UNL     5      -7.575   4.806  74.386  1.00  0.00     0.000 HD 
BRANCH  26  29
HETATM   29  C   UNL     5      -9.385   4.487  72.620  1.00  0.00    -0.129 C  
HETATM   30  O   UNL     5      -9.098   3.391  73.487  1.00  0.00    -0.093 OA 
HETATM   31  H   UNL     5      -9.652   2.635  73.324  1.00  0.00     0.000 HD 
BRANCH  29  32
HETATM   32  C   UNL     5      -9.555   4.022  71.165  1.00  0.00    -0.171 C  
HETATM   33  C   UNL     5      -8.252   3.781  70.375  1.00  0.00    -0.057 C  
HETATM   34  O   UNL     5     -10.431   4.947  70.428  1.00  0.00    -0.221 OA 
HETATM   35  O   UNL     5      -7.260   3.330  71.021  1.00  0.00    -0.033 OA 
HETATM   36  O   UNL     5      -8.325   4.143  69.147  1.00  0.00    -0.072 OA 
HETATM   37  H   UNL     5     -10.537   4.659  69.529  1.00  0.00     0.000 HD 
ENDBRANCH  29  32
ENDBRANCH  26  29
ENDBRANCH  23  26
ENDBRANCH   7  23
TORSDOF 8
ENDMDL
MODEL      468
REMARK 921   NORMALIZED FREE ENERGY PREDICTED BY IDOCK:   -2.65 KCAL/MOL
REMARK 922        TOTAL FREE ENERGY PREDICTED BY IDOCK:   -6.13 KCAL/MOL
REMARK 923 INTER-LIGAND FREE ENERGY PREDICTED BY IDOCK:   -5.30 KCAL/MOL
REMARK 924 INTRA-LIGAND FREE ENERGY PREDICTED BY IDOCK:   -0.82 KCAL/MOL
REMARK 927      BINDING AFFINITY PREDICTED BY RF-SCORE:    0.00 PKD
ROOT
HETATM    1 MG   UNL     3     -13.637  14.449  67.478  1.00  0.00     0.390 Mg 
HETATM    2  O   UNL     4     -12.900  11.030  62.351  1.00  0.00    -0.025 OA 
HETATM    3  C   UNL     4     -12.380  11.463  63.593  1.00  0.00     0.242 C  
HETATM    4  H   UNL     4     -13.232  10.140  62.378  1.00  0.00     0.000 HD 
HETATM    5  O   UNL     5     -10.575  21.064  69.942  1.00  0.00    -0.095 OA 
HETATM    6  H   UNL     5     -11.078  21.814  69.648  1.00  0.00     0.000 HD 
HETATM    7  C   UNL     5     -10.288  20.166  68.870  1.00  0.00    -0.075 C  
ENDROOT
BRANCH   3   8
HETATM    8  C   UNL     4     -11.844  12.902  63.548  1.00  0.00    -0.536 C  
HETATM    9  O   UNL     4     -12.880  13.816  63.953  1.00  0.00    -0.531 OA 
HETATM   10  H   UNL     4     -12.549  14.707  63.925  1.00  0.00     0.000 HD 
BRANCH   8  11
HETATM   11  C   UNL     4     -10.585  13.260  64.391  1.00  0.00    -0.419 C  
HETATM   12  O   UNL     4     -10.077  14.561  64.117  1.00  0.00    -0.302 OA 
HETATM   13  H   UNL     4      -9.309  14.779  64.632  1.00  0.00     0.000 HD 
BRANCH  11  14
HETATM   14  C   UNL     4     -10.625  12.977  65.917  1.00  0.00    -0.275 C  
HETATM   15  H   UNL     4      -9.301  13.011  67.353  1.00  0.00     0.000 HD 
HETATM   16  O   UNL     4      -9.277  13.184  66.419  1.00  0.00    -0.218 OA 
BRANCH  14  17
HETATM   17  C   UNL     4     -11.205  11.634  66.446  1.00  0.00    -0.287 C  
HETATM   18  C   UNL     4     -11.517  11.674  67.999  1.00  0.00    -0.315 C  
HETATM   19  H   UNL     4     -10.783   9.683  66.343  1.00  0.00     0.000 HD 
HETATM   20  O   UNL     4     -10.428  10.503  66.021  1.00  0.00    -0.225 OA 
HETATM   21  O   UNL     4     -11.993  12.815  68.409  1.00  0.00    -0.319 OA 
HETATM   22  O   UNL     4     -11.209  10.677  68.710  1.00  0.00    -0.244 OA 
ENDBRANCH  14  17
ENDBRANCH  11  14
ENDBRANCH   8  11
ENDBRANCH   3   8
BRANCH   7  23
HETATM   23  C   UNL     5      -9.471  18.949  69.348  1.00  0.00     0.103 C  
HETATM   24  O   UNL     5     -10.357  18.048  70.015  1.00  0.00     0.082 OA 
HETATM   25  H   UNL     5      -9.854  17.298  70.309  1.00  0.00     0.000 HD 
BRANCH  23  26
HETATM   26  C   UNL     5      -8.747  18.251  68.175  1.00  0.00    -0.281 C  
HETATM   27  O   UNL     5      -8.795  19.103  67.008  1.00  0.00    -0.281 OA 
HETATM   28  H   UNL     5      -8.350  18.673  66.286  1.00  0.00     0.000 HD 
BRANCH  26  29
HETATM   29  C   UNL     5      -7.297  17.746  68.413  1.00  0.00    -0.257 C  
HETATM   30  O   UNL     5      -7.137  17.085  69.668  1.00  0.00    -0.100 OA 
HETATM   31  H   UNL     5      -6.250  16.776  69.814  1.00  0.00     0.000 HD 
BRANCH  29  32
HETATM   32  C   UNL     5      -6.141  18.724  68.144  1.00  0.00    -0.212 C  
HETATM   33  C   UNL     5      -6.101  19.984  69.033  1.00  0.00    -0.296 C  
HETATM   34  O   UNL     5      -6.110  19.104  66.722  1.00  0.00    -0.170 OA 
HETATM   35  O   UNL     5      -6.495  19.859  70.231  1.00  0.00    -0.335 OA 
HETATM   36  O   UNL     5      -5.729  21.040  68.406  1.00  0.00    -0.323 OA 
HETATM   37  H   UNL     5      -5.397  19.708  66.556  1.00  0.00     0.000 HD 
ENDBRANCH  29  32
ENDBRANCH  26  29
ENDBRANCH  23  26
ENDBRANCH   7  23
TORSDOF 8
ENDMDL
MODEL      469
REMARK 921   NORMALIZED FREE ENERGY PREDICTED BY IDOCK:   -2.62 KCAL/MOL
REMARK 922        TOTAL FREE ENERGY PREDICTED BY IDOCK:   -6.09 KCAL/MOL
REMARK 923 INTER-LIGAND FREE ENERGY PREDICTED BY IDOCK:   -4.19 KCAL/MOL
REMARK 924 INTRA-LIGAND FREE ENERGY PREDICTED BY IDOCK:   -1.89 KCAL/MOL
REMARK 927      BINDING AFFINITY PREDICTED BY RF-SCORE:    0.00 PKD
ROOT
HETATM    1 MG   UNL     3      -7.725   8.788  67.702  1.00  0.00    -0.088 Mg 
HETATM    2  O   UNL     4      -7.723   8.882  73.907  1.00  0.00    -0.401 OA 
HETATM    3  C   UNL     4      -7.256   8.286  72.713  1.00  0.00    -0.102 C  
HETATM    4  H   UNL     4      -7.071   9.431  74.327  1.00  0.00     0.000 HD 
HETATM    5  O   UNL     5     -10.939   4.167  62.456  1.00  0.00    -0.299 OA 
HETATM    6  H   UNL     5     -11.813   4.457  62.221  1.00  0.00     0.000 HD 
HETATM    7  C   UNL     5     -10.763   4.105  63.871  1.00  0.00    -0.019 C  
ENDROOT
BRANCH   3   8
HETATM    8  C   UNL     4      -8.310   7.398  72.035  1.00  0.00    -0.106 C  
HETATM    9  O   UNL     4      -8.667   6.314  72.913  1.00  0.00    -0.126 OA 
HETATM   10  H   UNL     4      -9.319   5.765  72.492  1.00  0.00     0.000 HD 
BRANCH   8  11
HETATM   11  C   UNL     4      -9.646   8.046  71.566  1.00  0.00    -0.163 C  
HETATM   12  O   UNL     4     -10.384   8.644  72.627  1.00  0.00    -0.253 OA 
HETATM   13  H   UNL     4     -11.199   9.039  72.340  1.00  0.00     0.000 HD 
BRANCH  11  14
HETATM   14  C   UNL     4      -9.611   8.961  70.313  1.00  0.00    -0.186 C  
HETATM   15  H   UNL     4      -8.725  10.645  69.869  1.00  0.00     0.000 HD 
HETATM   16  O   UNL     4      -8.746  10.085  70.636  1.00  0.00     0.003 OA 
BRANCH  14  17
HETATM   17  C   UNL     4     -10.939   9.460  69.674  1.00  0.00    -0.197 C  
HETATM   18  C   UNL     4     -10.888   9.470  68.091  1.00  0.00    -0.156 C  
HETATM   19  H   UNL     4     -12.210  10.990  69.877  1.00  0.00     0.000 HD 
HETATM   20  O   UNL     4     -11.398  10.685  70.266  1.00  0.00    -0.298 OA 
HETATM   21  O   UNL     4     -10.239   8.463  67.581  1.00  0.00    -0.204 OA 
HETATM   22  O   UNL     4     -11.377  10.455  67.470  1.00  0.00    -0.374 OA 
ENDBRANCH  14  17
ENDBRANCH  11  14
ENDBRANCH   8  11
ENDBRANCH   3   8
BRANCH   7  23
HETATM   23  C   UNL     5      -9.345   3.634  64.251  1.00  0.00    -0.144 C  
HETATM   24  O   UNL     5      -8.401   4.420  63.521  1.00  0.00    -0.094 OA 
HETATM   25  H   UNL     5      -7.528   4.130  63.755  1.00  0.00     0.000 HD 
BRANCH  23  26
HETATM   26  C   UNL     5      -9.097   3.737  65.772  1.00  0.00    -0.149 C  
HETATM   27  O   UNL     5      -8.062   2.803  66.153  1.00  0.00    -0.081 OA 
HETATM   28  H   UNL     5      -7.909   2.867  67.089  1.00  0.00     0.000 HD 
BRANCH  26  29
HETATM   29  C   UNL     5      -8.800   5.142  66.366  1.00  0.00    -0.120 C  
HETATM   30  O   UNL     5      -9.723   6.138  65.925  1.00  0.00    -0.379 OA 
HETATM   31  H   UNL     5      -9.541   6.997  66.289  1.00  0.00     0.000 HD 
BRANCH  29  32
HETATM   32  C   UNL     5      -7.353   5.656  66.310  1.00  0.00    -0.078 C  
HETATM   33  C   UNL     5      -6.489   5.382  67.559  1.00  0.00    -0.051 C  
HETATM   34  O   UNL     5      -7.328   7.090  65.980  1.00  0.00    -0.072 OA 
HETATM   35  O   UNL     5      -6.702   4.301  68.183  1.00  0.00    -0.045 OA 
HETATM   36  O   UNL     5      -5.692   6.345  67.850  1.00  0.00    -0.011 OA 
HETATM   37  H   UNL     5      -6.434   7.407  65.945  1.00  0.00     0.000 HD 
ENDBRANCH  29  32
ENDBRANCH  26  29
ENDBRANCH  23  26
ENDBRANCH   7  23
TORSDOF 8
ENDMDL
MODEL      470
REMARK 921   NORMALIZED FREE ENERGY PREDICTED BY IDOCK:   -2.61 KCAL/MOL
REMARK 922        TOTAL FREE ENERGY PREDICTED BY IDOCK:   -6.08 KCAL/MOL
REMARK 923 INTER-LIGAND FREE ENERGY PREDICTED BY IDOCK:   -5.25 KCAL/MOL
REMARK 924 INTRA-LIGAND FREE ENERGY PREDICTED BY IDOCK:   -0.82 KCAL/MOL
REMARK 927      BINDING AFFINITY PREDICTED BY RF-SCORE:    0.00 PKD
ROOT
HETATM    1 MG   UNL     3      -8.049   4.827  68.426  1.00  0.00    -0.079 Mg 
HETATM    2  O   UNL     4      -5.133   7.227  63.502  1.00  0.00    -0.031 OA 
HETATM    3  C   UNL     4      -5.448   7.322  64.877  1.00  0.00    -0.033 C  
HETATM    4  H   UNL     4      -4.243   6.932  63.345  1.00  0.00     0.000 HD 
HETATM    5  O   UNL     5     -14.409   6.760  72.302  1.00  0.00    -0.629 OA 
HETATM    6  H   UNL     5     -15.182   6.349  71.934  1.00  0.00     0.000 HD 
HETATM    7  C   UNL     5     -13.618   7.394  71.298  1.00  0.00    -0.253 C  
ENDROOT
BRANCH   3   8
HETATM    8  C   UNL     4      -6.886   7.799  65.130  1.00  0.00    -0.051 C  
HETATM    9  O   UNL     4      -6.929   8.588  66.334  1.00  0.00    -0.075 OA 
HETATM   10  H   UNL     4      -7.819   8.883  66.491  1.00  0.00     0.000 HD 
BRANCH   8  11
HETATM   11  C   UNL     4      -7.604   8.632  64.030  1.00  0.00    -0.126 C  
HETATM   12  O   UNL     4      -8.756   7.987  63.497  1.00  0.00    -0.377 OA 
HETATM   13  H   UNL     4      -9.194   8.496  62.825  1.00  0.00     0.000 HD 
BRANCH  11  14
HETATM   14  C   UNL     4      -7.877  10.134  64.315  1.00  0.00    -0.140 C  
HETATM   15  H   UNL     4      -7.108  11.462  65.524  1.00  0.00     0.000 HD 
HETATM   16  O   UNL     4      -6.941  10.543  65.349  1.00  0.00    -0.133 OA 
BRANCH  14  17
HETATM   17  C   UNL     4      -9.316  10.614  64.660  1.00  0.00    -0.238 C  
HETATM   18  C   UNL     4      -9.730  11.921  63.866  1.00  0.00    -0.179 C  
HETATM   19  H   UNL     4     -10.420  10.970  66.288  1.00  0.00     0.000 HD 
HETATM   20  O   UNL     4      -9.541  10.678  66.077  1.00  0.00    -0.183 OA 
HETATM   21  O   UNL     4      -9.292  11.951  62.640  1.00  0.00    -0.225 OA 
HETATM   22  O   UNL     4     -10.345  12.838  64.478  1.00  0.00    -0.336 OA 
ENDBRANCH  14  17
ENDBRANCH  11  14
ENDBRANCH   8  11
ENDBRANCH   3   8
BRANCH   7  23
HETATM   23  C   UNL     5     -12.362   8.061  71.896  1.00  0.00    -0.323 C  
HETATM   24  O   UNL     5     -12.428   7.945  73.318  1.00  0.00    -0.264 OA 
HETATM   25  H   UNL     5     -11.655   8.356  73.687  1.00  0.00     0.000 HD 
BRANCH  23  26
HETATM   26  C   UNL     5     -11.064   7.432  71.345  1.00  0.00    -0.239 C  
HETATM   27  O   UNL     5     -11.393   6.259  70.567  1.00  0.00    -0.337 OA 
HETATM   28  H   UNL     5     -10.594   5.872  70.229  1.00  0.00     0.000 HD 
BRANCH  26  29
HETATM   29  C   UNL     5     -10.092   8.349  70.551  1.00  0.00    -0.190 C  
HETATM   30  O   UNL     5     -10.662   8.851  69.344  1.00  0.00    -0.252 OA 
HETATM   31  H   UNL     5     -10.068   9.412  68.858  1.00  0.00     0.000 HD 
BRANCH  29  32
HETATM   32  C   UNL     5      -8.655   7.849  70.327  1.00  0.00    -0.137 C  
HETATM   33  C   UNL     5      -7.730   8.788  69.523  1.00  0.00    -0.089 C  
HETATM   34  O   UNL     5      -8.666   6.508  69.721  1.00  0.00    -0.140 OA 
HETATM   35  O   UNL     5      -7.899  10.034  69.676  1.00  0.00    -0.133 OA 
HETATM   36  O   UNL     5      -6.935   8.166  68.732  1.00  0.00    -0.064 OA 
HETATM   37  H   UNL     5      -7.779   6.199  69.582  1.00  0.00     0.000 HD 
ENDBRANCH  29  32
ENDBRANCH  26  29
ENDBRANCH  23  26
ENDBRANCH   7  23
TORSDOF 8
ENDMDL
MODEL      471
REMARK 921   NORMALIZED FREE ENERGY PREDICTED BY IDOCK:   -2.54 KCAL/MOL
REMARK 922        TOTAL FREE ENERGY PREDICTED BY IDOCK:   -5.98 KCAL/MOL
REMARK 923 INTER-LIGAND FREE ENERGY PREDICTED BY IDOCK:   -4.41 KCAL/MOL
REMARK 924 INTRA-LIGAND FREE ENERGY PREDICTED BY IDOCK:   -1.57 KCAL/MOL
REMARK 927      BINDING AFFINITY PREDICTED BY RF-SCORE:    0.00 PKD
ROOT
HETATM    1 MG   UNL     3      -8.049   4.827  68.426  1.00  0.00    -0.079 Mg 
HETATM    2  O   UNL     4      -5.133   7.227  63.502  1.00  0.00    -0.031 OA 
HETATM    3  C   UNL     4      -5.448   7.322  64.877  1.00  0.00    -0.033 C  
HETATM    4  H   UNL     4      -4.243   6.932  63.345  1.00  0.00     0.000 HD 
HETATM    5  O   UNL     5     -14.409   6.760  72.302  1.00  0.00    -0.629 OA 
HETATM    6  H   UNL     5     -15.182   6.349  71.934  1.00  0.00     0.000 HD 
HETATM    7  C   UNL     5     -13.618   7.394  71.298  1.00  0.00    -0.253 C  
ENDROOT
BRANCH   3   8
HETATM    8  C   UNL     4      -6.886   7.799  65.130  1.00  0.00    -0.051 C  
HETATM    9  O   UNL     4      -7.396   7.182  66.328  1.00  0.00    -0.073 OA 
HETATM   10  H   UNL     4      -8.286   7.477  66.484  1.00  0.00     0.000 HD 
BRANCH   8  11
HETATM   11  C   UNL     4      -7.156   9.325  65.270  1.00  0.00    -0.090 C  
HETATM   12  O   UNL     4      -6.854  10.061  64.090  1.00  0.00    -0.123 OA 
HETATM   13  H   UNL     4      -7.019  10.993  64.176  1.00  0.00     0.000 HD 
BRANCH  11  14
HETATM   14  C   UNL     4      -8.510   9.772  65.885  1.00  0.00    -0.128 C  
HETATM   15  H   UNL     4     -10.382   9.599  65.352  1.00  0.00     0.000 HD 
HETATM   16  O   UNL     4      -9.553   9.325  64.976  1.00  0.00    -0.169 OA 
BRANCH  14  17
HETATM   17  C   UNL     4      -8.733  11.259  66.284  1.00  0.00    -0.184 C  
HETATM   18  C   UNL     4      -9.400  11.413  67.714  1.00  0.00    -0.162 C  
HETATM   19  H   UNL     4      -9.509  12.918  65.485  1.00  0.00     0.000 HD 
HETATM   20  O   UNL     4      -9.374  12.009  65.241  1.00  0.00    -0.098 OA 
HETATM   21  O   UNL     4      -8.977  10.543  68.586  1.00  0.00    -0.145 OA 
HETATM   22  O   UNL     4     -10.316  12.267  67.871  1.00  0.00    -0.199 OA 
ENDBRANCH  14  17
ENDBRANCH  11  14
ENDBRANCH   8  11
ENDBRANCH   3   8
BRANCH   7  23
HETATM   23  C   UNL     5     -12.362   8.061  71.896  1.00  0.00    -0.323 C  
HETATM   24  O   UNL     5     -12.428   7.945  73.318  1.00  0.00    -0.264 OA 
HETATM   25  H   UNL     5     -11.655   8.356  73.687  1.00  0.00     0.000 HD 
BRANCH  23  26
HETATM   26  C   UNL     5     -11.064   7.432  71.345  1.00  0.00    -0.239 C  
HETATM   27  O   UNL     5     -10.537   8.268  70.289  1.00  0.00    -0.218 OA 
HETATM   28  H   UNL     5      -9.738   7.881  69.951  1.00  0.00     0.000 HD 
BRANCH  26  29
HETATM   29  C   UNL     5      -9.942   7.075  72.359  1.00  0.00    -0.165 C  
HETATM   30  O   UNL     5      -8.962   8.104  72.490  1.00  0.00    -0.176 OA 
HETATM   31  H   UNL     5      -8.276   7.886  73.110  1.00  0.00     0.000 HD 
BRANCH  29  32
HETATM   32  C   UNL     5      -9.286   5.689  72.246  1.00  0.00    -0.145 C  
HETATM   33  C   UNL     5      -8.169   5.384  73.266  1.00  0.00    -0.115 C  
HETATM   34  O   UNL     5      -8.798   5.461  70.876  1.00  0.00    -0.133 OA 
HETATM   35  O   UNL     5      -8.295   5.879  74.426  1.00  0.00    -0.111 OA 
HETATM   36  O   UNL     5      -7.198   4.707  72.773  1.00  0.00    -0.074 OA 
HETATM   37  H   UNL     5      -8.393   4.605  70.806  1.00  0.00     0.000 HD 
ENDBRANCH  29  32
ENDBRANCH  26  29
ENDBRANCH  23  26
ENDBRANCH   7  23
TORSDOF 8
ENDMDL
MODEL      472
REMARK 921   NORMALIZED FREE ENERGY PREDICTED BY IDOCK:   -2.49 KCAL/MOL
REMARK 922        TOTAL FREE ENERGY PREDICTED BY IDOCK:   -5.89 KCAL/MOL
REMARK 923 INTER-LIGAND FREE ENERGY PREDICTED BY IDOCK:   -5.50 KCAL/MOL
REMARK 924 INTRA-LIGAND FREE ENERGY PREDICTED BY IDOCK:   -0.39 KCAL/MOL
REMARK 927      BINDING AFFINITY PREDICTED BY RF-SCORE:    0.00 PKD
ROOT
HETATM    1 MG   UNL     3      -5.907  14.415  67.530  1.00  0.00    -0.115 Mg 
HETATM    2  O   UNL     4      -7.263  20.470  67.444  1.00  0.00    -0.286 OA 
HETATM    3  C   UNL     4      -7.062  19.293  68.202  1.00  0.00    -0.265 C  
HETATM    4  H   UNL     4      -6.531  21.074  67.495  1.00  0.00     0.000 HD 
HETATM    5  O   UNL     5     -10.077   8.049  68.672  1.00  0.00    -0.188 OA 
HETATM    6  H   UNL     5     -10.443   7.719  67.860  1.00  0.00     0.000 HD 
HETATM    7  C   UNL     5     -10.318   9.446  68.833  1.00  0.00    -0.213 C  
ENDROOT
BRANCH   3   8
HETATM    8  C   UNL     4      -8.245  18.318  68.118  1.00  0.00    -0.283 C  
HETATM    9  O   UNL     4      -9.482  19.048  68.222  1.00  0.00    -0.314 OA 
HETATM   10  H   UNL     4     -10.214  18.444  68.170  1.00  0.00     0.000 HD 
BRANCH   8  11
HETATM   11  C   UNL     4      -8.376  17.403  66.866  1.00  0.00    -0.235 C  
HETATM   12  O   UNL     4      -7.176  17.317  66.104  1.00  0.00    -0.288 OA 
HETATM   13  H   UNL     4      -7.257  16.758  65.340  1.00  0.00     0.000 HD 
BRANCH  11  14
HETATM   14  C   UNL     4      -9.034  16.008  67.048  1.00  0.00    -0.214 C  
HETATM   15  H   UNL     4      -9.830  14.699  65.836  1.00  0.00     0.000 HD 
HETATM   16  O   UNL     4      -9.427  15.552  65.724  1.00  0.00    -0.333 OA 
BRANCH  14  17
HETATM   17  C   UNL     4     -10.200  15.822  68.060  1.00  0.00    -0.229 C  
HETATM   18  C   UNL     4     -10.697  14.320  68.148  1.00  0.00    -0.244 C  
HETATM   19  H   UNL     4     -11.959  16.673  68.482  1.00  0.00     0.000 HD 
HETATM   20  O   UNL     4     -11.246  16.787  67.864  1.00  0.00    -0.249 OA 
HETATM   21  O   UNL     4      -9.735  13.445  68.069  1.00  0.00    -0.209 OA 
HETATM   22  O   UNL     4     -11.936  14.088  68.194  1.00  0.00    -0.357 OA 
ENDBRANCH  14  17
ENDBRANCH  11  14
ENDBRANCH   8  11
ENDBRANCH   3   8
BRANCH   7  23
HETATM   23  C   UNL     5      -9.724   9.980  70.152  1.00  0.00    -0.123 C  
HETATM   24  O   UNL     5     -10.802  10.294  71.035  1.00  0.00    -0.314 OA 
HETATM   25  H   UNL     5     -10.436  10.624  71.847  1.00  0.00     0.000 HD 
BRANCH  23  26
HETATM   26  C   UNL     5      -8.756   8.964  70.795  1.00  0.00    -0.206 C  
HETATM   27  O   UNL     5      -9.156   7.623  70.431  1.00  0.00    -0.151 OA 
HETATM   28  H   UNL     5      -8.561   6.998  70.826  1.00  0.00     0.000 HD 
BRANCH  26  29
HETATM   29  C   UNL     5      -7.233   9.155  70.552  1.00  0.00    -0.097 C  
HETATM   30  O   UNL     5      -6.536   9.603  71.715  1.00  0.00    -0.300 OA 
HETATM   31  H   UNL     5      -5.605   9.720  71.567  1.00  0.00     0.000 HD 
BRANCH  29  32
HETATM   32  C   UNL     5      -6.797   9.937  69.303  1.00  0.00    -0.057 C  
HETATM   33  C   UNL     5      -6.579   9.102  68.024  1.00  0.00    -0.060 C  
HETATM   34  O   UNL     5      -5.600  10.743  69.592  1.00  0.00    -0.038 OA 
HETATM   35  O   UNL     5      -7.335   8.100  67.853  1.00  0.00    -0.092 OA 
HETATM   36  O   UNL     5      -5.588   9.502  67.315  1.00  0.00    -0.040 OA 
HETATM   37  H   UNL     5      -5.330  11.227  68.820  1.00  0.00     0.000 HD 
ENDBRANCH  29  32
ENDBRANCH  26  29
ENDBRANCH  23  26
ENDBRANCH   7  23
TORSDOF 8
ENDMDL
MODEL      473
REMARK 921   NORMALIZED FREE ENERGY PREDICTED BY IDOCK:   -2.46 KCAL/MOL
REMARK 922        TOTAL FREE ENERGY PREDICTED BY IDOCK:   -5.86 KCAL/MOL
REMARK 923 INTER-LIGAND FREE ENERGY PREDICTED BY IDOCK:   -5.11 KCAL/MOL
REMARK 924 INTRA-LIGAND FREE ENERGY PREDICTED BY IDOCK:   -0.74 KCAL/MOL
REMARK 927      BINDING AFFINITY PREDICTED BY RF-SCORE:    0.00 PKD
ROOT
HETATM    1 MG   UNL     3     -12.485  10.057  66.608  1.00  0.00     1.576 Mg 
HETATM    2  O   UNL     4     -12.212  15.588  69.410  1.00  0.00    -0.522 OA 
HETATM    3  C   UNL     4     -11.829  14.771  68.320  1.00  0.00    -0.284 C  
HETATM    4  H   UNL     4     -12.887  16.217  69.182  1.00  0.00     0.000 HD 
HETATM    5  O   UNL     5      -7.500   4.249  65.811  1.00  0.00    -0.079 OA 
HETATM    6  H   UNL     5      -7.565   3.631  66.529  1.00  0.00     0.000 HD 
HETATM    7  C   UNL     5      -7.403   5.594  66.279  1.00  0.00    -0.078 C  
ENDROOT
BRANCH   3   8
HETATM    8  C   UNL     4     -10.739  13.755  68.688  1.00  0.00    -0.256 C  
HETATM    9  O   UNL     4     -11.112  13.061  69.894  1.00  0.00    -0.473 OA 
HETATM   10  H   UNL     4     -10.437  12.432  70.122  1.00  0.00     0.000 HD 
BRANCH   8  11
HETATM   11  C   UNL     4     -10.352  12.660  67.651  1.00  0.00    -0.220 C  
HETATM   12  O   UNL     4     -10.883  11.377  67.963  1.00  0.00    -0.193 OA 
HETATM   13  H   UNL     4     -10.648  10.709  67.329  1.00  0.00     0.000 HD 
BRANCH  11  14
HETATM   14  C   UNL     4     -10.522  12.993  66.144  1.00  0.00    -0.279 C  
HETATM   15  H   UNL     4     -10.065  14.522  65.017  1.00  0.00     0.000 HD 
HETATM   16  O   UNL     4      -9.961  14.319  65.939  1.00  0.00    -0.299 OA 
BRANCH  14  17
HETATM   17  C   UNL     4     -11.921  12.881  65.473  1.00  0.00    -0.436 C  
HETATM   18  C   UNL     4     -11.861  12.189  64.049  1.00  0.00    -0.434 C  
HETATM   19  H   UNL     4     -13.492  14.058  65.094  1.00  0.00     0.000 HD 
HETATM   20  O   UNL     4     -12.637  14.126  65.503  1.00  0.00    -0.485 OA 
HETATM   21  O   UNL     4     -11.007  11.209  63.978  1.00  0.00    -0.364 OA 
HETATM   22  O   UNL     4     -12.545  12.673  63.105  1.00  0.00    -0.610 OA 
ENDBRANCH  14  17
ENDBRANCH  11  14
ENDBRANCH   8  11
ENDBRANCH   3   8
BRANCH   7  23
HETATM   23  C   UNL     5      -7.298   6.598  65.113  1.00  0.00    -0.081 C  
HETATM   24  O   UNL     5      -7.974   6.045  63.983  1.00  0.00    -0.116 OA 
HETATM   25  H   UNL     5      -7.909   6.663  63.265  1.00  0.00     0.000 HD 
BRANCH  23  26
HETATM   26  C   UNL     5      -7.882   7.977  65.492  1.00  0.00    -0.106 C  
HETATM   27  O   UNL     5      -7.003   8.626  66.438  1.00  0.00    -0.076 OA 
HETATM   28  H   UNL     5      -7.363   9.474  66.671  1.00  0.00     0.000 HD 
BRANCH  26  29
HETATM   29  C   UNL     5      -8.248   8.953  64.339  1.00  0.00    -0.164 C  
HETATM   30  O   UNL     5      -8.340   8.306  63.071  1.00  0.00    -0.317 OA 
HETATM   31  H   UNL     5      -8.564   8.902  62.366  1.00  0.00     0.000 HD 
BRANCH  29  32
HETATM   32  C   UNL     5      -7.466  10.273  64.239  1.00  0.00    -0.072 C  
HETATM   33  C   UNL     5      -5.930  10.145  64.160  1.00  0.00    -0.140 C  
HETATM   34  O   UNL     5      -7.843  11.178  65.337  1.00  0.00    -0.363 OA 
HETATM   35  O   UNL     5      -5.466   9.141  63.541  1.00  0.00    -0.066 OA 
HETATM   36  O   UNL     5      -5.307  11.060  64.807  1.00  0.00    -0.179 OA 
HETATM   37  H   UNL     5      -7.360  11.994  65.275  1.00  0.00     0.000 HD 
ENDBRANCH  29  32
ENDBRANCH  26  29
ENDBRANCH  23  26
ENDBRANCH   7  23
TORSDOF 8
ENDMDL
MODEL      474
REMARK 921   NORMALIZED FREE ENERGY PREDICTED BY IDOCK:   -2.34 KCAL/MOL
REMARK 922        TOTAL FREE ENERGY PREDICTED BY IDOCK:   -5.68 KCAL/MOL
REMARK 923 INTER-LIGAND FREE ENERGY PREDICTED BY IDOCK:   -5.07 KCAL/MOL
REMARK 924 INTRA-LIGAND FREE ENERGY PREDICTED BY IDOCK:   -0.60 KCAL/MOL
REMARK 927      BINDING AFFINITY PREDICTED BY RF-SCORE:    0.00 PKD
ROOT
HETATM    1 MG   UNL     3      -7.735   4.660  68.591  1.00  0.00    -0.065 Mg 
HETATM    2  O   UNL     4      -5.185   7.130  63.500  1.00  0.00    -0.031 OA 
HETATM    3  C   UNL     4      -5.436   7.228  64.889  1.00  0.00    -0.033 C  
HETATM    4  H   UNL     4      -4.292   6.875  63.302  1.00  0.00     0.000 HD 
HETATM    5  O   UNL     5     -13.979   6.343  72.762  1.00  0.00    -0.153 OA 
HETATM    6  H   UNL     5     -14.749   5.891  72.437  1.00  0.00     0.000 HD 
HETATM    7  C   UNL     5     -13.269   7.000  71.712  1.00  0.00    -0.267 C  
ENDROOT
BRANCH   3   8
HETATM    8  C   UNL     4      -6.880   7.640  65.209  1.00  0.00    -0.048 C  
HETATM    9  O   UNL     4      -6.901   8.439  66.406  1.00  0.00    -0.068 OA 
HETATM   10  H   UNL     4      -7.795   8.694  66.604  1.00  0.00     0.000 HD 
BRANCH   8  11
HETATM   11  C   UNL     4      -7.691   8.427  64.138  1.00  0.00    -0.137 C  
HETATM   12  O   UNL     4      -9.098   8.375  64.347  1.00  0.00    -0.282 OA 
HETATM   13  H   UNL     4      -9.592   8.855  63.693  1.00  0.00     0.000 HD 
BRANCH  11  14
HETATM   14  C   UNL     4      -7.223   9.864  63.782  1.00  0.00    -0.125 C  
HETATM   15  H   UNL     4      -5.915  11.106  64.532  1.00  0.00     0.000 HD 
HETATM   16  O   UNL     4      -6.200  10.226  64.749  1.00  0.00    -0.126 OA 
BRANCH  14  17
HETATM   17  C   UNL     4      -8.266  11.009  63.634  1.00  0.00     0.320 C  
HETATM   18  C   UNL     4      -9.227  11.124  64.889  1.00  0.00    -0.155 C  
HETATM   19  H   UNL     4      -9.576  11.667  62.276  1.00  0.00     0.000 HD 
HETATM   20  O   UNL     4      -8.940  10.968  62.366  1.00  0.00    -0.298 OA 
HETATM   21  O   UNL     4      -8.632  10.905  66.027  1.00  0.00    -0.170 OA 
HETATM   22  O   UNL     4     -10.459  11.319  64.698  1.00  0.00    -0.289 OA 
ENDBRANCH  14  17
ENDBRANCH  11  14
ENDBRANCH   8  11
ENDBRANCH   3   8
BRANCH   7  23
HETATM   23  C   UNL     5     -12.019   7.733  72.238  1.00  0.00    -0.309 C  
HETATM   24  O   UNL     5     -11.207   6.788  72.937  1.00  0.00    -0.363 OA 
HETATM   25  H   UNL     5     -10.437   7.240  73.262  1.00  0.00     0.000 HD 
BRANCH  23  26
HETATM   26  C   UNL     5     -11.230   8.409  71.096  1.00  0.00    -0.263 C  
HETATM   27  O   UNL     5     -11.415   7.656  69.875  1.00  0.00    -0.468 OA 
HETATM   28  H   UNL     5     -10.929   8.072  69.172  1.00  0.00     0.000 HD 
BRANCH  26  29
HETATM   29  C   UNL     5     -11.474   9.922  70.838  1.00  0.00    -0.376 C  
HETATM   30  O   UNL     5     -12.547  10.452  71.616  1.00  0.00    -0.395 OA 
HETATM   31  H   UNL     5     -12.696  11.377  71.458  1.00  0.00     0.000 HD 
BRANCH  29  32
HETATM   32  C   UNL     5     -11.550  10.399  69.379  1.00  0.00    -0.202 C  
HETATM   33  C   UNL     5     -10.418  11.339  68.914  1.00  0.00    -0.206 C  
HETATM   34  O   UNL     5     -12.861  11.010  69.106  1.00  0.00    -0.423 OA 
HETATM   35  O   UNL     5      -9.267  11.144  69.406  1.00  0.00     0.067 OA 
HETATM   36  O   UNL     5     -10.816  12.265  68.121  1.00  0.00    -0.208 OA 
HETATM   37  H   UNL     5     -12.909  11.305  68.205  1.00  0.00     0.000 HD 
ENDBRANCH  29  32
ENDBRANCH  26  29
ENDBRANCH  23  26
ENDBRANCH   7  23
TORSDOF 8
ENDMDL
MODEL      475
REMARK 921   NORMALIZED FREE ENERGY PREDICTED BY IDOCK:   -2.31 KCAL/MOL
REMARK 922        TOTAL FREE ENERGY PREDICTED BY IDOCK:   -5.63 KCAL/MOL
REMARK 923 INTER-LIGAND FREE ENERGY PREDICTED BY IDOCK:   -4.71 KCAL/MOL
REMARK 924 INTRA-LIGAND FREE ENERGY PREDICTED BY IDOCK:   -0.92 KCAL/MOL
REMARK 927      BINDING AFFINITY PREDICTED BY RF-SCORE:    0.00 PKD
ROOT
HETATM    1 MG   UNL     3      -8.004   9.313  67.498  1.00  0.00    -0.091 Mg 
HETATM    2  O   UNL     4      -6.765   9.081  73.575  1.00  0.00    -0.335 OA 
HETATM    3  C   UNL     4      -6.409   8.703  72.260  1.00  0.00    -0.071 C  
HETATM    4  H   UNL     4      -6.211   9.769  73.926  1.00  0.00     0.000 HD 
HETATM    5  O   UNL     5     -10.873   4.253  62.461  1.00  0.00    -0.381 OA 
HETATM    6  H   UNL     5     -11.821   4.297  62.421  1.00  0.00     0.000 HD 
HETATM    7  C   UNL     5     -10.404   4.169  63.806  1.00  0.00    -0.053 C  
ENDROOT
BRANCH   3   8
HETATM    8  C   UNL     4      -7.305   7.592  71.693  1.00  0.00    -0.075 C  
HETATM    9  O   UNL     4      -7.558   6.607  72.713  1.00  0.00    -0.095 OA 
HETATM   10  H   UNL     4      -8.112   5.919  72.362  1.00  0.00     0.000 HD 
BRANCH   8  11
HETATM   11  C   UNL     4      -8.691   7.976  71.098  1.00  0.00    -0.132 C  
HETATM   12  O   UNL     4      -8.599   8.642  69.843  1.00  0.00    -0.124 OA 
HETATM   13  H   UNL     4      -9.445   8.876  69.480  1.00  0.00     0.000 HD 
BRANCH  11  14
HETATM   14  C   UNL     4      -9.804   6.893  71.084  1.00  0.00    -0.177 C  
HETATM   15  H   UNL     4      -9.902   5.036  70.488  1.00  0.00     0.000 HD 
HETATM   16  O   UNL     4      -9.221   5.698  70.496  1.00  0.00    -0.145 OA 
BRANCH  14  17
HETATM   17  C   UNL     4     -11.185   7.203  70.440  1.00  0.00    -0.287 C  
HETATM   18  C   UNL     4     -12.290   7.573  71.514  1.00  0.00    -0.339 C  
HETATM   19  H   UNL     4     -12.425   6.383  69.104  1.00  0.00     0.000 HD 
HETATM   20  O   UNL     4     -11.581   6.194  69.498  1.00  0.00    -0.396 OA 
HETATM   21  O   UNL     4     -11.839   8.290  72.503  1.00  0.00    -0.387 OA 
HETATM   22  O   UNL     4     -13.450   7.093  71.387  1.00  0.00    -0.380 OA 
ENDBRANCH  14  17
ENDBRANCH  11  14
ENDBRANCH   8  11
ENDBRANCH   3   8
BRANCH   7  23
HETATM   23  C   UNL     5      -8.865   4.097  63.871  1.00  0.00    -0.127 C  
HETATM   24  O   UNL     5      -8.385   5.299  64.475  1.00  0.00    -0.130 OA 
HETATM   25  H   UNL     5      -7.437   5.255  64.515  1.00  0.00     0.000 HD 
BRANCH  23  26
HETATM   26  C   UNL     5      -8.384   2.853  64.649  1.00  0.00    -0.087 C  
HETATM   27  O   UNL     5      -7.024   2.545  64.267  1.00  0.00    -0.042 OA 
HETATM   28  H   UNL     5      -6.728   1.779  64.746  1.00  0.00     0.000 HD 
BRANCH  26  29
HETATM   29  C   UNL     5      -8.518   2.866  66.197  1.00  0.00    -0.105 C  
HETATM   30  O   UNL     5      -9.833   3.202  66.638  1.00  0.00    -0.406 OA 
HETATM   31  H   UNL     5      -9.916   3.210  67.585  1.00  0.00     0.000 HD 
BRANCH  29  32
HETATM   32  C   UNL     5      -7.448   3.617  67.005  1.00  0.00    -0.075 C  
HETATM   33  C   UNL     5      -7.616   5.149  67.093  1.00  0.00    -0.092 C  
HETATM   34  O   UNL     5      -6.102   3.283  66.511  1.00  0.00    -0.023 OA 
HETATM   35  O   UNL     5      -8.801   5.598  67.131  1.00  0.00    -0.109 OA 
HETATM   36  O   UNL     5      -6.506   5.788  67.045  1.00  0.00    -0.044 OA 
HETATM   37  H   UNL     5      -5.440   3.747  67.010  1.00  0.00     0.000 HD 
ENDBRANCH  29  32
ENDBRANCH  26  29
ENDBRANCH  23  26
ENDBRANCH   7  23
TORSDOF 8
ENDMDL
MODEL      476
REMARK 921   NORMALIZED FREE ENERGY PREDICTED BY IDOCK:   -2.31 KCAL/MOL
REMARK 922        TOTAL FREE ENERGY PREDICTED BY IDOCK:   -5.63 KCAL/MOL
REMARK 923 INTER-LIGAND FREE ENERGY PREDICTED BY IDOCK:   -5.85 KCAL/MOL
REMARK 924 INTRA-LIGAND FREE ENERGY PREDICTED BY IDOCK:    0.22 KCAL/MOL
REMARK 927      BINDING AFFINITY PREDICTED BY RF-SCORE:    0.00 PKD
ROOT
HETATM    1 MG   UNL     3     -13.442  14.366  67.425  1.00  0.00    -0.045 Mg 
HETATM    2  O   UNL     4     -12.438  10.942  62.348  1.00  0.00     0.139 OA 
HETATM    3  C   UNL     4     -11.957  11.425  63.587  1.00  0.00     0.121 C  
HETATM    4  H   UNL     4     -12.708  10.031  62.385  1.00  0.00     0.000 HD 
HETATM    5  O   UNL     5     -10.857  21.206  69.822  1.00  0.00    -0.005 OA 
HETATM    6  H   UNL     5     -11.408  21.916  69.515  1.00  0.00     0.000 HD 
HETATM    7  C   UNL     5     -10.502  20.316  68.764  1.00  0.00     0.081 C  
ENDROOT
BRANCH   3   8
HETATM    8  C   UNL     4     -11.521  12.896  63.527  1.00  0.00    -0.412 C  
HETATM    9  O   UNL     4     -12.669  13.749  63.694  1.00  0.00    -0.718 OA 
HETATM   10  H   UNL     4     -12.399  14.659  63.657  1.00  0.00     0.000 HD 
BRANCH   8  11
HETATM   11  C   UNL     4     -10.446  13.401  64.534  1.00  0.00    -0.413 C  
HETATM   12  O   UNL     4     -10.108  14.773  64.354  1.00  0.00    -0.436 OA 
HETATM   13  H   UNL     4      -9.452  15.081  64.969  1.00  0.00     0.000 HD 
BRANCH  11  14
HETATM   14  C   UNL     4     -10.634  13.056  66.036  1.00  0.00    -0.279 C  
HETATM   15  H   UNL     4     -12.001  12.111  67.064  1.00  0.00     0.000 HD 
HETATM   16  O   UNL     4     -11.885  12.323  66.145  1.00  0.00    -0.507 OA 
BRANCH  14  17
HETATM   17  C   UNL     4     -10.563  14.179  67.109  1.00  0.00    -0.278 C  
HETATM   18  C   UNL     4     -10.245  13.619  68.557  1.00  0.00    -0.234 C  
HETATM   19  H   UNL     4     -11.650  15.749  67.700  1.00  0.00     0.000 HD 
HETATM   20  O   UNL     4     -11.693  15.063  67.045  1.00  0.00    -0.309 OA 
HETATM   21  O   UNL     4      -9.392  12.635  68.563  1.00  0.00    -0.178 OA 
HETATM   22  O   UNL     4     -10.880  14.083  69.545  1.00  0.00    -0.165 OA 
ENDBRANCH  14  17
ENDBRANCH  11  14
ENDBRANCH   8  11
ENDBRANCH   3   8
BRANCH   7  23
HETATM   23  C   UNL     5      -9.607  19.164  69.262  1.00  0.00    -0.159 C  
HETATM   24  O   UNL     5     -10.451  18.115  69.740  1.00  0.00    -0.162 OA 
HETATM   25  H   UNL     5      -9.900  17.405  70.047  1.00  0.00     0.000 HD 
BRANCH  23  26
HETATM   26  C   UNL     5      -8.660  18.655  68.153  1.00  0.00    -0.307 C  
HETATM   27  O   UNL     5      -8.603  19.630  67.087  1.00  0.00    -0.288 OA 
HETATM   28  H   UNL     5      -8.021  19.317  66.405  1.00  0.00     0.000 HD 
BRANCH  26  29
HETATM   29  C   UNL     5      -7.225  18.221  68.564  1.00  0.00    -0.283 C  
HETATM   30  O   UNL     5      -6.232  19.185  68.213  1.00  0.00    -0.217 OA 
HETATM   31  H   UNL     5      -5.355  18.920  68.464  1.00  0.00     0.000 HD 
BRANCH  29  32
HETATM   32  C   UNL     5      -6.774  16.796  68.205  1.00  0.00    -0.148 C  
HETATM   33  C   UNL     5      -7.470  15.653  68.973  1.00  0.00    -0.181 C  
HETATM   34  O   UNL     5      -5.313  16.673  68.327  1.00  0.00    -0.109 OA 
HETATM   35  O   UNL     5      -8.688  15.821  69.281  1.00  0.00    -0.240 OA 
HETATM   36  O   UNL     5      -6.684  14.683  69.267  1.00  0.00    -0.115 OA 
HETATM   37  H   UNL     5      -5.034  15.793  68.105  1.00  0.00     0.000 HD 
ENDBRANCH  29  32
ENDBRANCH  26  29
ENDBRANCH  23  26
ENDBRANCH   7  23
TORSDOF 8
ENDMDL
MODEL      477
REMARK 921   NORMALIZED FREE ENERGY PREDICTED BY IDOCK:   -2.23 KCAL/MOL
REMARK 922        TOTAL FREE ENERGY PREDICTED BY IDOCK:   -5.51 KCAL/MOL
REMARK 923 INTER-LIGAND FREE ENERGY PREDICTED BY IDOCK:   -4.22 KCAL/MOL
REMARK 924 INTRA-LIGAND FREE ENERGY PREDICTED BY IDOCK:   -1.29 KCAL/MOL
REMARK 927      BINDING AFFINITY PREDICTED BY RF-SCORE:    0.00 PKD
ROOT
HETATM    1 MG   UNL     3      -9.303  12.367  68.158  1.00  0.00    -0.159 Mg 
HETATM    2  O   UNL     4     -13.459   8.742  71.004  1.00  0.00    -0.539 OA 
HETATM    3  C   UNL     4     -13.185   9.696  69.996  1.00  0.00     1.035 C  
HETATM    4  H   UNL     4     -13.565   7.861  70.663  1.00  0.00     0.000 HD 
HETATM    5  O   UNL     5      -7.912  19.935  68.236  1.00  0.00    -0.311 OA 
HETATM    6  H   UNL     5      -7.303  20.172  68.925  1.00  0.00     0.000 HD 
HETATM    7  C   UNL     5      -8.966  19.106  68.723  1.00  0.00    -0.346 C  
ENDROOT
BRANCH   3   8
HETATM    8  C   UNL     4     -13.014  11.118  70.549  1.00  0.00    -0.028 C  
HETATM    9  O   UNL     4     -12.883  11.068  71.982  1.00  0.00    -0.380 OA 
HETATM   10  H   UNL     4     -12.778  11.949  72.324  1.00  0.00     0.000 HD 
BRANCH   8  11
HETATM   11  C   UNL     4     -11.833  11.988  70.028  1.00  0.00    -0.314 C  
HETATM   12  O   UNL     4     -11.834  12.149  68.613  1.00  0.00    -0.309 OA 
HETATM   13  H   UNL     4     -11.113  12.680  68.295  1.00  0.00     0.000 HD 
BRANCH  11  14
HETATM   14  C   UNL     4     -11.544  13.332  70.750  1.00  0.00     0.525 C  
HETATM   15  H   UNL     4     -12.601  14.552  71.850  1.00  0.00     0.000 HD 
HETATM   16  O   UNL     4     -12.778  13.730  71.408  1.00  0.00    -0.345 OA 
BRANCH  14  17
HETATM   17  C   UNL     4     -10.935  14.526  69.961  1.00  0.00    -0.059 C  
HETATM   18  C   UNL     4     -11.422  15.931  70.509  1.00  0.00    -0.392 C  
HETATM   19  H   UNL     4     -10.694  15.089  68.059  1.00  0.00     0.000 HD 
HETATM   20  O   UNL     4     -11.066  14.360  68.541  1.00  0.00    -0.235 OA 
HETATM   21  O   UNL     4     -11.538  15.976  71.806  1.00  0.00    -0.444 OA 
HETATM   22  O   UNL     4     -11.737  16.833  69.684  1.00  0.00     0.322 OA 
ENDBRANCH  14  17
ENDBRANCH  11  14
ENDBRANCH   8  11
ENDBRANCH   3   8
BRANCH   7  23
HETATM   23  C   UNL     5      -9.955  18.721  67.604  1.00  0.00    -0.345 C  
HETATM   24  O   UNL     5      -9.701  19.559  66.475  1.00  0.00    -0.336 OA 
HETATM   25  H   UNL     5     -10.310  19.322  65.785  1.00  0.00     0.000 HD 
BRANCH  23  26
HETATM   26  C   UNL     5      -9.837  17.228  67.226  1.00  0.00    -0.267 C  
HETATM   27  O   UNL     5     -11.132  16.735  66.814  1.00  0.00     0.016 OA 
HETATM   28  H   UNL     5     -11.059  15.816  66.581  1.00  0.00     0.000 HD 
BRANCH  26  29
HETATM   29  C   UNL     5      -8.752  16.823  66.190  1.00  0.00    -0.264 C  
HETATM   30  O   UNL     5      -9.120  15.681  65.418  1.00  0.00    -0.243 OA 
HETATM   31  H   UNL     5      -8.456  15.433  64.784  1.00  0.00     0.000 HD 
BRANCH  29  32
HETATM   32  C   UNL     5      -7.296  16.727  66.674  1.00  0.00    -0.262 C  
HETATM   33  C   UNL     5      -7.067  15.925  67.973  1.00  0.00    -0.130 C  
HETATM   34  O   UNL     5      -6.704  18.069  66.796  1.00  0.00    -0.174 OA 
HETATM   35  O   UNL     5      -7.818  14.924  68.174  1.00  0.00    -0.112 OA 
HETATM   36  O   UNL     5      -6.166  16.430  68.733  1.00  0.00    -0.125 OA 
HETATM   37  H   UNL     5      -5.805  18.010  67.096  1.00  0.00     0.000 HD 
ENDBRANCH  29  32
ENDBRANCH  26  29
ENDBRANCH  23  26
ENDBRANCH   7  23
TORSDOF 8
ENDMDL
MODEL      478
REMARK 921   NORMALIZED FREE ENERGY PREDICTED BY IDOCK:   -2.16 KCAL/MOL
REMARK 922        TOTAL FREE ENERGY PREDICTED BY IDOCK:   -5.42 KCAL/MOL
REMARK 923 INTER-LIGAND FREE ENERGY PREDICTED BY IDOCK:   -4.80 KCAL/MOL
REMARK 924 INTRA-LIGAND FREE ENERGY PREDICTED BY IDOCK:   -0.62 KCAL/MOL
REMARK 927      BINDING AFFINITY PREDICTED BY RF-SCORE:    0.00 PKD
ROOT
HETATM    1 MG   UNL     3      -7.774   4.676  68.586  1.00  0.00    -0.065 Mg 
HETATM    2  O   UNL     4      -5.163   7.119  63.513  1.00  0.00    -0.031 OA 
HETATM    3  C   UNL     4      -5.425   7.222  64.899  1.00  0.00    -0.033 C  
HETATM    4  H   UNL     4      -4.269   6.858  63.323  1.00  0.00     0.000 HD 
HETATM    5  O   UNL     5     -14.044   6.407  72.697  1.00  0.00    -0.412 OA 
HETATM    6  H   UNL     5     -14.814   5.960  72.367  1.00  0.00     0.000 HD 
HETATM    7  C   UNL     5     -13.320   7.058  71.653  1.00  0.00    -0.285 C  
ENDROOT
BRANCH   3   8
HETATM    8  C   UNL     4      -6.870   7.644  65.206  1.00  0.00    -0.048 C  
HETATM    9  O   UNL     4      -6.894   8.461  66.391  1.00  0.00    -0.068 OA 
HETATM   10  H   UNL     4      -7.788   8.722  66.581  1.00  0.00     0.000 HD 
BRANCH   8  11
HETATM   11  C   UNL     4      -7.672   8.418  64.119  1.00  0.00    -0.137 C  
HETATM   12  O   UNL     4      -9.066   8.133  64.139  1.00  0.00     0.011 OA 
HETATM   13  H   UNL     4      -9.555   8.606  63.476  1.00  0.00     0.000 HD 
BRANCH  11  14
HETATM   14  C   UNL     4      -7.407   9.940  63.965  1.00  0.00    -0.132 C  
HETATM   15  H   UNL     4      -6.351  11.255  64.951  1.00  0.00     0.000 HD 
HETATM   16  O   UNL     4      -6.513  10.324  65.046  1.00  0.00    -0.124 OA 
BRANCH  14  17
HETATM   17  C   UNL     4      -8.600  10.933  63.862  1.00  0.00     0.051 C  
HETATM   18  C   UNL     4      -9.620  10.787  65.066  1.00  0.00    -0.254 C  
HETATM   19  H   UNL     4      -9.933  11.527  62.497  1.00  0.00     0.000 HD 
HETATM   20  O   UNL     4      -9.205  10.920  62.560  1.00  0.00    -0.290 OA 
HETATM   21  O   UNL     4      -9.048  10.545  66.211  1.00  0.00    -0.157 OA 
HETATM   22  O   UNL     4     -10.858  10.821  64.825  1.00  0.00    -0.204 OA 
ENDBRANCH  14  17
ENDBRANCH  11  14
ENDBRANCH   8  11
ENDBRANCH   3   8
BRANCH   7  23
HETATM   23  C   UNL     5     -12.070   7.784  72.189  1.00  0.00    -0.304 C  
HETATM   24  O   UNL     5     -11.289   6.844  72.929  1.00  0.00    -0.428 OA 
HETATM   25  H   UNL     5     -10.519   7.291  73.260  1.00  0.00     0.000 HD 
BRANCH  23  26
HETATM   26  C   UNL     5     -11.244   8.418  71.049  1.00  0.00    -0.266 C  
HETATM   27  O   UNL     5      -9.912   8.710  71.527  1.00  0.00    -0.220 OA 
HETATM   28  H   UNL     5      -9.404   9.100  70.826  1.00  0.00     0.000 HD 
BRANCH  26  29
HETATM   29  C   UNL     5     -11.175   7.661  69.693  1.00  0.00     0.025 C  
HETATM   30  O   UNL     5     -11.767   6.363  69.751  1.00  0.00    -0.568 OA 
HETATM   31  H   UNL     5     -11.725   5.900  68.922  1.00  0.00     0.000 HD 
BRANCH  29  32
HETATM   32  C   UNL     5      -9.827   7.630  68.955  1.00  0.00    -0.164 C  
HETATM   33  C   UNL     5      -9.878   7.210  67.471  1.00  0.00    -0.151 C  
HETATM   34  O   UNL     5      -8.860   6.795  69.686  1.00  0.00    -0.142 OA 
HETATM   35  O   UNL     5     -10.901   7.555  66.807  1.00  0.00    -0.292 OA 
HETATM   36  O   UNL     5      -8.882   6.486  67.111  1.00  0.00    -0.110 OA 
HETATM   37  H   UNL     5      -8.027   6.776  69.230  1.00  0.00     0.000 HD 
ENDBRANCH  29  32
ENDBRANCH  26  29
ENDBRANCH  23  26
ENDBRANCH   7  23
TORSDOF 8
ENDMDL
MODEL      479
REMARK 921   NORMALIZED FREE ENERGY PREDICTED BY IDOCK:   -2.15 KCAL/MOL
REMARK 922        TOTAL FREE ENERGY PREDICTED BY IDOCK:   -5.39 KCAL/MOL
REMARK 923 INTER-LIGAND FREE ENERGY PREDICTED BY IDOCK:   -4.32 KCAL/MOL
REMARK 924 INTRA-LIGAND FREE ENERGY PREDICTED BY IDOCK:   -1.07 KCAL/MOL
REMARK 927      BINDING AFFINITY PREDICTED BY RF-SCORE:    0.00 PKD
ROOT
HETATM    1 MG   UNL     3      -7.647   9.011  68.297  1.00  0.00    -0.079 Mg 
HETATM    2  O   UNL     4      -6.845   8.919  74.451  1.00  0.00    -0.344 OA 
HETATM    3  C   UNL     4      -6.430   8.466  73.177  1.00  0.00    -0.099 C  
HETATM    4  H   UNL     4      -6.266   9.577  74.817  1.00  0.00     0.000 HD 
HETATM    5  O   UNL     5     -10.540   3.987  63.237  1.00  0.00    -0.347 OA 
HETATM    6  H   UNL     5     -11.477   4.099  63.129  1.00  0.00     0.000 HD 
HETATM    7  C   UNL     5     -10.171   3.921  64.614  1.00  0.00    -0.207 C  
ENDROOT
BRANCH   3   8
HETATM    8  C   UNL     4      -7.366   7.403  72.585  1.00  0.00    -0.076 C  
HETATM    9  O   UNL     4      -7.079   6.122  73.176  1.00  0.00    -0.082 OA 
HETATM   10  H   UNL     4      -7.658   5.464  72.809  1.00  0.00     0.000 HD 
BRANCH   8  11
HETATM   11  C   UNL     4      -8.905   7.608  72.704  1.00  0.00    -0.149 C  
HETATM   12  O   UNL     4      -9.326   8.922  72.353  1.00  0.00    -0.342 OA 
HETATM   13  H   UNL     4     -10.265   9.047  72.425  1.00  0.00     0.000 HD 
BRANCH  11  14
HETATM   14  C   UNL     4      -9.834   6.531  72.082  1.00  0.00    -0.157 C  
HETATM   15  H   UNL     4     -10.916   6.424  70.459  1.00  0.00     0.000 HD 
HETATM   16  O   UNL     4     -10.347   7.083  70.839  1.00  0.00    -0.198 OA 
BRANCH  14  17
HETATM   17  C   UNL     4     -10.988   5.916  72.925  1.00  0.00    -0.268 C  
HETATM   18  C   UNL     4     -10.622   4.490  73.511  1.00  0.00    -0.235 C  
HETATM   19  H   UNL     4     -12.954   5.600  72.755  1.00  0.00     0.000 HD 
HETATM   20  O   UNL     4     -12.249   5.975  72.240  1.00  0.00    -0.281 OA 
HETATM   21  O   UNL     4      -9.383   4.385  73.899  1.00  0.00    -0.112 OA 
HETATM   22  O   UNL     4     -11.490   3.574  73.477  1.00  0.00    -0.207 OA 
ENDBRANCH  14  17
ENDBRANCH  11  14
ENDBRANCH   8  11
ENDBRANCH   3   8
BRANCH   7  23
HETATM   23  C   UNL     5      -8.649   3.739  64.790  1.00  0.00    -0.109 C  
HETATM   24  O   UNL     5      -8.100   4.977  65.245  1.00  0.00    -0.109 OA 
HETATM   25  H   UNL     5      -7.163   4.865  65.353  1.00  0.00     0.000 HD 
BRANCH  23  26
HETATM   26  C   UNL     5      -8.321   2.591  65.768  1.00  0.00    -0.092 C  
HETATM   27  O   UNL     5      -6.916   2.264  65.669  1.00  0.00    -0.045 OA 
HETATM   28  H   UNL     5      -6.713   1.557  66.271  1.00  0.00     0.000 HD 
BRANCH  26  29
HETATM   29  C   UNL     5      -8.729   2.765  67.258  1.00  0.00    -0.121 C  
HETATM   30  O   UNL     5      -9.942   2.087  67.584  1.00  0.00    -0.247 OA 
HETATM   31  H   UNL     5     -10.192   2.194  68.495  1.00  0.00     0.000 HD 
BRANCH  29  32
HETATM   32  C   UNL     5      -8.703   4.183  67.849  1.00  0.00    -0.103 C  
HETATM   33  C   UNL     5      -7.433   4.564  68.639  1.00  0.00    -0.064 C  
HETATM   34  O   UNL     5      -9.901   4.420  68.671  1.00  0.00    -0.144 OA 
HETATM   35  O   UNL     5      -6.335   4.078  68.235  1.00  0.00    -0.035 OA 
HETATM   36  O   UNL     5      -7.671   5.287  69.671  1.00  0.00    -0.070 OA 
HETATM   37  H   UNL     5      -9.885   5.296  69.036  1.00  0.00     0.000 HD 
ENDBRANCH  29  32
ENDBRANCH  26  29
ENDBRANCH  23  26
ENDBRANCH   7  23
TORSDOF 8
ENDMDL
MODEL      480
REMARK 921   NORMALIZED FREE ENERGY PREDICTED BY IDOCK:   -2.04 KCAL/MOL
REMARK 922        TOTAL FREE ENERGY PREDICTED BY IDOCK:   -5.24 KCAL/MOL
REMARK 923 INTER-LIGAND FREE ENERGY PREDICTED BY IDOCK:   -4.05 KCAL/MOL
REMARK 924 INTRA-LIGAND FREE ENERGY PREDICTED BY IDOCK:   -1.20 KCAL/MOL
REMARK 927      BINDING AFFINITY PREDICTED BY RF-SCORE:    0.00 PKD
ROOT
HETATM    1 MG   UNL     3     -10.040   1.951  68.760  1.00  0.00    -0.156 Mg 
HETATM    2  O   UNL     4     -11.257   2.709  62.722  1.00  0.00    -0.173 OA 
HETATM    3  C   UNL     4     -10.294   2.642  63.755  1.00  0.00    -0.145 C  
HETATM    4  H   UNL     4     -11.283   1.923  62.188  1.00  0.00     0.000 HD 
HETATM    5  O   UNL     5      -7.964   6.747  74.408  1.00  0.00    -0.114 OA 
HETATM    6  H   UNL     5      -8.719   7.122  74.844  1.00  0.00     0.000 HD 
HETATM    7  C   UNL     5      -8.063   6.855  72.988  1.00  0.00    -0.106 C  
ENDROOT
BRANCH   3   8
HETATM    8  C   UNL     4     -10.253   3.912  64.618  1.00  0.00    -0.207 C  
HETATM    9  O   UNL     4     -11.592   4.399  64.826  1.00  0.00    -1.000 OA 
HETATM   10  H   UNL     4     -11.567   5.185  65.359  1.00  0.00     0.000 HD 
BRANCH   8  11
HETATM   11  C   UNL     4      -9.586   3.844  66.023  1.00  0.00    -0.182 C  
HETATM   12  O   UNL     4      -9.162   2.533  66.381  1.00  0.00    -0.277 OA 
HETATM   13  H   UNL     4      -8.755   2.491  67.238  1.00  0.00     0.000 HD 
BRANCH  11  14
HETATM   14  C   UNL     4      -8.505   4.903  66.368  1.00  0.00    -0.111 C  
HETATM   15  H   UNL     4      -7.773   5.625  68.029  1.00  0.00     0.000 HD 
HETATM   16  O   UNL     4      -8.435   4.977  67.818  1.00  0.00    -0.105 OA 
BRANCH  14  17
HETATM   17  C   UNL     4      -8.585   6.329  65.751  1.00  0.00    -0.150 C  
HETATM   18  C   UNL     4      -7.457   6.590  64.669  1.00  0.00    -0.089 C  
HETATM   19  H   UNL     4      -8.745   8.219  66.380  1.00  0.00     0.000 HD 
HETATM   20  O   UNL     4      -8.696   7.348  66.757  1.00  0.00    -0.124 OA 
HETATM   21  O   UNL     4      -7.195   5.553  63.924  1.00  0.00    -0.047 OA 
HETATM   22  O   UNL     4      -6.857   7.700  64.668  1.00  0.00    -0.049 OA 
ENDBRANCH  14  17
ENDBRANCH  11  14
ENDBRANCH   8  11
ENDBRANCH   3   8
BRANCH   7  23
HETATM   23  C   UNL     5      -6.836   6.245  72.281  1.00  0.00    -0.073 C  
HETATM   24  O   UNL     5      -5.660   6.847  72.825  1.00  0.00    -0.038 OA 
HETATM   25  H   UNL     5      -4.904   6.471  72.389  1.00  0.00     0.000 HD 
BRANCH  23  26
HETATM   26  C   UNL     5      -6.796   4.709  72.431  1.00  0.00    -0.056 C  
HETATM   27  O   UNL     5      -6.481   4.369  73.801  1.00  0.00    -0.047 OA 
HETATM   28  H   UNL     5      -6.456   3.424  73.893  1.00  0.00     0.000 HD 
BRANCH  26  29
HETATM   29  C   UNL     5      -8.029   3.898  71.945  1.00  0.00    -0.075 C  
HETATM   30  O   UNL     5      -8.054   3.718  70.530  1.00  0.00    -0.053 OA 
HETATM   31  H   UNL     5      -8.808   3.222  70.232  1.00  0.00     0.000 HD 
BRANCH  29  32
HETATM   32  C   UNL     5      -9.412   4.301  72.482  1.00  0.00    -0.130 C  
HETATM   33  C   UNL     5     -10.020   3.371  73.553  1.00  0.00    -0.114 C  
HETATM   34  O   UNL     5     -10.361   4.485  71.372  1.00  0.00    -0.152 OA 
HETATM   35  O   UNL     5      -9.216   2.819  74.362  1.00  0.00    -0.080 OA 
HETATM   36  O   UNL     5     -11.288   3.219  73.437  1.00  0.00    -0.196 OA 
HETATM   37  H   UNL     5     -11.216   4.734  71.704  1.00  0.00     0.000 HD 
ENDBRANCH  29  32
ENDBRANCH  26  29
ENDBRANCH  23  26
ENDBRANCH   7  23
TORSDOF 8
ENDMDL
MODEL      481
REMARK 921   NORMALIZED FREE ENERGY PREDICTED BY IDOCK:   -1.94 KCAL/MOL
REMARK 922        TOTAL FREE ENERGY PREDICTED BY IDOCK:   -5.09 KCAL/MOL
REMARK 923 INTER-LIGAND FREE ENERGY PREDICTED BY IDOCK:   -4.93 KCAL/MOL
REMARK 924 INTRA-LIGAND FREE ENERGY PREDICTED BY IDOCK:   -0.17 KCAL/MOL
REMARK 927      BINDING AFFINITY PREDICTED BY RF-SCORE:    0.00 PKD
ROOT
HETATM    1 MG   UNL     3      -8.049   4.827  68.426  1.00  0.00    -0.079 Mg 
HETATM    2  O   UNL     4      -5.133   7.227  63.502  1.00  0.00    -0.031 OA 
HETATM    3  C   UNL     4      -5.448   7.322  64.877  1.00  0.00    -0.033 C  
HETATM    4  H   UNL     4      -4.243   6.932  63.345  1.00  0.00     0.000 HD 
HETATM    5  O   UNL     5     -14.409   6.760  72.302  1.00  0.00    -0.629 OA 
HETATM    6  H   UNL     5     -15.182   6.349  71.934  1.00  0.00     0.000 HD 
HETATM    7  C   UNL     5     -13.618   7.394  71.298  1.00  0.00    -0.253 C  
ENDROOT
BRANCH   3   8
HETATM    8  C   UNL     4      -6.886   7.799  65.130  1.00  0.00    -0.051 C  
HETATM    9  O   UNL     4      -6.929   8.588  66.334  1.00  0.00    -0.075 OA 
HETATM   10  H   UNL     4      -7.819   8.883  66.491  1.00  0.00     0.000 HD 
BRANCH   8  11
HETATM   11  C   UNL     4      -7.604   8.632  64.030  1.00  0.00    -0.126 C  
HETATM   12  O   UNL     4      -8.756   7.987  63.497  1.00  0.00    -0.377 OA 
HETATM   13  H   UNL     4      -9.194   8.496  62.825  1.00  0.00     0.000 HD 
BRANCH  11  14
HETATM   14  C   UNL     4      -7.877  10.134  64.315  1.00  0.00    -0.140 C  
HETATM   15  H   UNL     4      -7.108  11.462  65.524  1.00  0.00     0.000 HD 
HETATM   16  O   UNL     4      -6.941  10.543  65.349  1.00  0.00    -0.133 OA 
BRANCH  14  17
HETATM   17  C   UNL     4      -9.316  10.614  64.660  1.00  0.00    -0.238 C  
HETATM   18  C   UNL     4      -9.730  11.921  63.866  1.00  0.00    -0.179 C  
HETATM   19  H   UNL     4     -10.420  10.970  66.288  1.00  0.00     0.000 HD 
HETATM   20  O   UNL     4      -9.541  10.678  66.077  1.00  0.00    -0.183 OA 
HETATM   21  O   UNL     4      -9.292  11.951  62.640  1.00  0.00    -0.225 OA 
HETATM   22  O   UNL     4     -10.345  12.838  64.478  1.00  0.00    -0.336 OA 
ENDBRANCH  14  17
ENDBRANCH  11  14
ENDBRANCH   8  11
ENDBRANCH   3   8
BRANCH   7  23
HETATM   23  C   UNL     5     -12.362   8.061  71.896  1.00  0.00    -0.323 C  
HETATM   24  O   UNL     5     -12.428   7.945  73.318  1.00  0.00    -0.264 OA 
HETATM   25  H   UNL     5     -11.655   8.356  73.687  1.00  0.00     0.000 HD 
BRANCH  23  26
HETATM   26  C   UNL     5     -11.064   7.432  71.345  1.00  0.00    -0.239 C  
HETATM   27  O   UNL     5     -10.612   8.191  70.200  1.00  0.00    -0.228 OA 
HETATM   28  H   UNL     5      -9.813   7.804  69.861  1.00  0.00     0.000 HD 
BRANCH  26  29
HETATM   29  C   UNL     5      -9.889   7.203  72.336  1.00  0.00    -0.150 C  
HETATM   30  O   UNL     5     -10.320   7.092  73.692  1.00  0.00    -0.313 OA 
HETATM   31  H   UNL     5      -9.602   6.952  74.299  1.00  0.00     0.000 HD 
BRANCH  29  32
HETATM   32  C   UNL     5      -8.657   8.114  72.213  1.00  0.00    -0.175 C  
HETATM   33  C   UNL     5      -7.522   7.856  73.227  1.00  0.00    -0.124 C  
HETATM   34  O   UNL     5      -9.058   9.530  72.250  1.00  0.00     0.413 OA 
HETATM   35  O   UNL     5      -7.329   6.657  73.586  1.00  0.00    -0.084 OA 
HETATM   36  O   UNL     5      -6.950   8.929  73.636  1.00  0.00    -0.353 OA 
HETATM   37  H   UNL     5      -8.297  10.092  72.174  1.00  0.00     0.000 HD 
ENDBRANCH  29  32
ENDBRANCH  26  29
ENDBRANCH  23  26
ENDBRANCH   7  23
TORSDOF 8
ENDMDL
MODEL      482
REMARK 921   NORMALIZED FREE ENERGY PREDICTED BY IDOCK:   -1.82 KCAL/MOL
REMARK 922        TOTAL FREE ENERGY PREDICTED BY IDOCK:   -4.91 KCAL/MOL
REMARK 923 INTER-LIGAND FREE ENERGY PREDICTED BY IDOCK:   -3.22 KCAL/MOL
REMARK 924 INTRA-LIGAND FREE ENERGY PREDICTED BY IDOCK:   -1.69 KCAL/MOL
REMARK 927      BINDING AFFINITY PREDICTED BY RF-SCORE:    0.00 PKD
ROOT
HETATM    1 MG   UNL     3     -10.783   1.467  68.050  1.00  0.00    -0.183 Mg 
HETATM    2  O   UNL     4     -11.736   3.799  62.378  1.00  0.00     0.364 OA 
HETATM    3  C   UNL     4     -10.840   3.215  63.303  1.00  0.00    -0.202 C  
HETATM    4  H   UNL     4     -12.024   3.190  61.707  1.00  0.00     0.000 HD 
HETATM    5  O   UNL     5      -7.191   4.075  74.335  1.00  0.00    -0.066 OA 
HETATM    6  H   UNL     5      -7.776   4.576  74.891  1.00  0.00     0.000 HD 
HETATM    7  C   UNL     5      -7.261   4.499  72.974  1.00  0.00    -0.079 C  
ENDROOT
BRANCH   3   8
HETATM    8  C   UNL     4     -10.375   4.199  64.387  1.00  0.00    -0.138 C  
HETATM    9  O   UNL     4     -11.473   4.507  65.265  1.00  0.00    -1.068 OA 
HETATM   10  H   UNL     4     -11.186   5.116  65.935  1.00  0.00     0.000 HD 
BRANCH   8  11
HETATM   11  C   UNL     4      -9.179   3.800  65.300  1.00  0.00    -0.151 C  
HETATM   12  O   UNL     4      -9.582   3.161  66.507  1.00  0.00    -0.386 OA 
HETATM   13  H   UNL     4      -8.852   2.917  67.064  1.00  0.00     0.000 HD 
BRANCH  11  14
HETATM   14  C   UNL     4      -7.975   3.068  64.646  1.00  0.00    -0.082 C  
HETATM   15  H   UNL     4      -7.061   1.372  64.969  1.00  0.00     0.000 HD 
HETATM   16  O   UNL     4      -7.798   1.819  65.369  1.00  0.00    -0.070 OA 
BRANCH  14  17
HETATM   17  C   UNL     4      -6.614   3.802  64.479  1.00  0.00    -0.043 C  
HETATM   18  C   UNL     4      -6.251   4.706  65.729  1.00  0.00    -0.031 C  
HETATM   19  H   UNL     4      -5.677   4.914  63.108  1.00  0.00     0.000 HD 
HETATM   20  O   UNL     4      -6.509   4.466  63.210  1.00  0.00    -0.025 OA 
HETATM   21  O   UNL     4      -6.592   4.182  66.871  1.00  0.00    -0.044 OA 
HETATM   22  O   UNL     4      -5.766   5.854  65.532  1.00  0.00    -0.022 OA 
ENDBRANCH  14  17
ENDBRANCH  11  14
ENDBRANCH   8  11
ENDBRANCH   3   8
BRANCH   7  23
HETATM   23  C   UNL     5      -6.311   3.686  72.072  1.00  0.00    -0.014 C  
HETATM   24  O   UNL     5      -5.871   2.540  72.803  1.00  0.00    -0.007 OA 
HETATM   25  H   UNL     5      -5.285   2.040  72.247  1.00  0.00     0.000 HD 
BRANCH  23  26
HETATM   26  C   UNL     5      -6.993   3.274  70.749  1.00  0.00    -0.033 C  
HETATM   27  O   UNL     5      -6.949   1.835  70.615  1.00  0.00    -0.032 OA 
HETATM   28  H   UNL     5      -7.368   1.582  69.801  1.00  0.00     0.000 HD 
BRANCH  26  29
HETATM   29  C   UNL     5      -8.431   3.796  70.478  1.00  0.00    -0.068 C  
HETATM   30  O   UNL     5      -9.237   2.860  69.764  1.00  0.00    -0.119 OA 
HETATM   31  H   UNL     5     -10.117   3.179  69.599  1.00  0.00     0.000 HD 
BRANCH  29  32
HETATM   32  C   UNL     5      -8.585   5.216  69.909  1.00  0.00    -0.100 C  
HETATM   33  C   UNL     5      -9.718   6.070  70.517  1.00  0.00    -0.174 C  
HETATM   34  O   UNL     5      -8.716   5.171  68.443  1.00  0.00    -0.101 OA 
HETATM   35  O   UNL     5      -9.969   5.903  71.748  1.00  0.00    -0.163 OA 
HETATM   36  O   UNL     5     -10.318   6.808  69.658  1.00  0.00    -0.185 OA 
HETATM   37  H   UNL     5      -8.811   6.047  68.091  1.00  0.00     0.000 HD 
ENDBRANCH  29  32
ENDBRANCH  26  29
ENDBRANCH  23  26
ENDBRANCH   7  23
TORSDOF 8
ENDMDL
MODEL      483
REMARK 921   NORMALIZED FREE ENERGY PREDICTED BY IDOCK:   -1.64 KCAL/MOL
REMARK 922        TOTAL FREE ENERGY PREDICTED BY IDOCK:   -4.66 KCAL/MOL
REMARK 923 INTER-LIGAND FREE ENERGY PREDICTED BY IDOCK:   -6.91 KCAL/MOL
REMARK 924 INTRA-LIGAND FREE ENERGY PREDICTED BY IDOCK:    2.25 KCAL/MOL
REMARK 927      BINDING AFFINITY PREDICTED BY RF-SCORE:    0.00 PKD
ROOT
HETATM    1 MG   UNL     3      -9.959  12.775  67.109  1.00  0.00    -0.199 Mg 
HETATM    2  O   UNL     4     -13.062   9.464  71.343  1.00  0.00    -0.341 OA 
HETATM    3  C   UNL     4     -13.063  10.528  70.411  1.00  0.00    -0.054 C  
HETATM    4  H   UNL     4     -13.528   8.697  71.030  1.00  0.00     0.000 HD 
HETATM    5  O   UNL     5      -6.876  19.825  67.089  1.00  0.00    -0.199 OA 
HETATM    6  H   UNL     5      -5.979  19.817  67.402  1.00  0.00     0.000 HD 
HETATM    7  C   UNL     5      -7.750  19.118  67.967  1.00  0.00    -0.283 C  
ENDROOT
BRANCH   3   8
HETATM    8  C   UNL     4     -12.310  11.768  70.917  1.00  0.00    -0.320 C  
HETATM    9  O   UNL     4     -11.301  12.145  69.962  1.00  0.00    -0.506 OA 
HETATM   10  H   UNL     4     -10.835  12.912  70.275  1.00  0.00     0.000 HD 
BRANCH   8  11
HETATM   11  C   UNL     4     -13.120  13.058  71.237  1.00  0.00    -0.179 C  
HETATM   12  O   UNL     4     -13.605  13.101  72.575  1.00  0.00    -0.579 OA 
HETATM   13  H   UNL     4     -14.098  13.889  72.770  1.00  0.00     0.000 HD 
BRANCH  11  14
HETATM   14  C   UNL     4     -12.514  14.423  70.810  1.00  0.00    -0.352 C  
HETATM   15  H   UNL     4     -10.698  15.108  70.589  1.00  0.00     0.000 HD 
HETATM   16  O   UNL     4     -11.068  14.273  70.850  1.00  0.00     0.143 OA 
BRANCH  14  17
HETATM   17  C   UNL     4     -12.949  15.730  71.533  1.00  0.00    -0.428 C  
HETATM   18  C   UNL     4     -12.228  15.923  72.931  1.00  0.00    -0.500 C  
HETATM   19  H   UNL     4     -14.643  16.676  72.012  1.00  0.00     0.000 HD 
HETATM   20  O   UNL     4     -14.377  15.878  71.571  1.00  0.00    -0.338 OA 
HETATM   21  O   UNL     4     -10.983  15.539  72.935  1.00  0.00     0.270 OA 
HETATM   22  O   UNL     4     -12.904  16.328  73.916  1.00  0.00    -0.636 OA 
ENDBRANCH  14  17
ENDBRANCH  11  14
ENDBRANCH   8  11
ENDBRANCH   3   8
BRANCH   7  23
HETATM   23  C   UNL     5      -9.206  19.132  67.459  1.00  0.00    -0.296 C  
HETATM   24  O   UNL     5      -9.250  18.449  66.205  1.00  0.00    -0.468 OA 
HETATM   25  H   UNL     5     -10.146  18.458  65.892  1.00  0.00     0.000 HD 
BRANCH  23  26
HETATM   26  C   UNL     5     -10.173  18.489  68.477  1.00  0.00    -0.351 C  
HETATM   27  O   UNL     5     -10.996  19.518  69.072  1.00  0.00     0.132 OA 
HETATM   28  H   UNL     5     -11.591  19.123  69.698  1.00  0.00     0.000 HD 
BRANCH  26  29
HETATM   29  C   UNL     5     -11.057  17.306  67.994  1.00  0.00    -0.065 C  
HETATM   30  O   UNL     5     -11.866  16.756  69.033  1.00  0.00    -0.015 OA 
HETATM   31  H   UNL     5     -12.407  16.033  68.737  1.00  0.00     0.000 HD 
BRANCH  29  32
HETATM   32  C   UNL     5     -10.385  16.200  67.163  1.00  0.00    -0.291 C  
HETATM   33  C   UNL     5      -9.095  15.596  67.757  1.00  0.00    -0.181 C  
HETATM   34  O   UNL     5     -10.141  16.666  65.788  1.00  0.00    -0.448 OA 
HETATM   35  O   UNL     5      -9.029  15.502  69.019  1.00  0.00    -0.201 OA 
HETATM   36  O   UNL     5      -8.205  15.325  66.874  1.00  0.00    -0.220 OA 
HETATM   37  H   UNL     5      -9.727  15.983  65.275  1.00  0.00     0.000 HD 
ENDBRANCH  29  32
ENDBRANCH  26  29
ENDBRANCH  23  26
ENDBRANCH   7  23
TORSDOF 8
ENDMDL
MODEL      484
REMARK 921   NORMALIZED FREE ENERGY PREDICTED BY IDOCK:   -1.49 KCAL/MOL
REMARK 922        TOTAL FREE ENERGY PREDICTED BY IDOCK:   -4.43 KCAL/MOL
REMARK 923 INTER-LIGAND FREE ENERGY PREDICTED BY IDOCK:   -4.55 KCAL/MOL
REMARK 924 INTRA-LIGAND FREE ENERGY PREDICTED BY IDOCK:    0.12 KCAL/MOL
REMARK 927      BINDING AFFINITY PREDICTED BY RF-SCORE:    0.00 PKD
ROOT
HETATM    1 MG   UNL     3      -9.960  11.348  65.388  1.00  0.00    -0.196 Mg 
HETATM    2  O   UNL     4     -10.570   5.618  67.694  1.00  0.00    -0.226 OA 
HETATM    3  C   UNL     4     -10.790   7.007  67.849  1.00  0.00    -0.183 C  
HETATM    4  H   UNL     4     -11.358   5.143  67.457  1.00  0.00     0.000 HD 
HETATM    5  O   UNL     5      -5.381  17.298  67.072  1.00  0.00    -0.125 OA 
HETATM    6  H   UNL     5      -4.567  17.263  66.583  1.00  0.00     0.000 HD 
HETATM    7  C   UNL     5      -5.673  16.050  67.701  1.00  0.00    -0.146 C  
ENDROOT
BRANCH   3   8
HETATM    8  C   UNL     4      -9.516   7.775  68.231  1.00  0.00    -0.147 C  
HETATM    9  O   UNL     4      -9.076   8.569  67.114  1.00  0.00    -0.136 OA 
HETATM   10  H   UNL     4      -8.287   9.044  67.350  1.00  0.00     0.000 HD 
BRANCH   8  11
HETATM   11  C   UNL     4      -9.556   8.729  69.461  1.00  0.00    -0.167 C  
HETATM   12  O   UNL     4     -10.863   8.904  69.996  1.00  0.00    -0.230 OA 
HETATM   13  H   UNL     4     -10.887   9.486  70.746  1.00  0.00     0.000 HD 
BRANCH  11  14
HETATM   14  C   UNL     4      -8.508   8.510  70.587  1.00  0.00    -0.146 C  
HETATM   15  H   UNL     4      -7.599   9.680  71.860  1.00  0.00     0.000 HD 
HETATM   16  O   UNL     4      -8.240   9.814  71.172  1.00  0.00    -0.126 OA 
BRANCH  14  17
HETATM   17  C   UNL     4      -7.178   7.764  70.280  1.00  0.00    -0.062 C  
HETATM   18  C   UNL     4      -6.263   8.548  69.251  1.00  0.00    -0.042 C  
HETATM   19  H   UNL     4      -6.583   5.926  69.769  1.00  0.00     0.000 HD 
HETATM   20  O   UNL     4      -7.395   6.382  69.956  1.00  0.00    -0.081 OA 
HETATM   21  O   UNL     4      -6.282   9.840  69.411  1.00  0.00    -0.043 OA 
HETATM   22  O   UNL     4      -5.681   7.902  68.336  1.00  0.00    -0.031 OA 
ENDBRANCH  14  17
ENDBRANCH  11  14
ENDBRANCH   8  11
ENDBRANCH   3   8
BRANCH   7  23
HETATM   23  C   UNL     5      -6.994  16.106  68.495  1.00  0.00    -0.137 C  
HETATM   24  O   UNL     5      -7.996  16.684  67.658  1.00  0.00    -0.169 OA 
HETATM   25  H   UNL     5      -8.810  16.719  68.147  1.00  0.00     0.000 HD 
BRANCH  23  26
HETATM   26  C   UNL     5      -7.422  14.708  68.992  1.00  0.00    -0.136 C  
HETATM   27  O   UNL     5      -8.171  14.844  70.221  1.00  0.00    -0.188 OA 
HETATM   28  H   UNL     5      -8.434  13.984  70.526  1.00  0.00     0.000 HD 
BRANCH  26  29
HETATM   29  C   UNL     5      -8.180  13.784  67.998  1.00  0.00    -0.164 C  
HETATM   30  O   UNL     5      -7.525  13.670  66.735  1.00  0.00    -0.249 OA 
HETATM   31  H   UNL     5      -7.989  13.105  66.128  1.00  0.00     0.000 HD 
BRANCH  29  32
HETATM   32  C   UNL     5      -9.692  14.000  67.827  1.00  0.00    -0.228 C  
HETATM   33  C   UNL     5     -10.112  15.049  66.776  1.00  0.00    -0.254 C  
HETATM   34  O   UNL     5     -10.318  14.305  69.125  1.00  0.00    -0.342 OA 
HETATM   35  O   UNL     5      -9.386  15.152  65.743  1.00  0.00    -0.310 OA 
HETATM   36  O   UNL     5     -11.130  15.745  67.126  1.00  0.00    -0.286 OA 
HETATM   37  H   UNL     5     -11.252  14.438  69.019  1.00  0.00     0.000 HD 
ENDBRANCH  29  32
ENDBRANCH  26  29
ENDBRANCH  23  26
ENDBRANCH   7  23
TORSDOF 8
ENDMDL
MODEL      485
REMARK 921   NORMALIZED FREE ENERGY PREDICTED BY IDOCK:   -1.28 KCAL/MOL
REMARK 922        TOTAL FREE ENERGY PREDICTED BY IDOCK:   -4.12 KCAL/MOL
REMARK 923 INTER-LIGAND FREE ENERGY PREDICTED BY IDOCK:   -4.04 KCAL/MOL
REMARK 924 INTRA-LIGAND FREE ENERGY PREDICTED BY IDOCK:   -0.09 KCAL/MOL
REMARK 927      BINDING AFFINITY PREDICTED BY RF-SCORE:    0.00 PKD
ROOT
HETATM    1 MG   UNL     3     -10.091  14.760  66.307  1.00  0.00    -0.233 Mg 
HETATM    2  O   UNL     4     -10.830   8.706  67.455  1.00  0.00    -0.461 OA 
HETATM    3  C   UNL     4     -10.982  10.042  67.896  1.00  0.00    -0.252 C  
HETATM    4  H   UNL     4     -11.648   8.313  67.173  1.00  0.00     0.000 HD 
HETATM    5  O   UNL     5      -5.185  20.100  68.882  1.00  0.00    -0.186 OA 
HETATM    6  H   UNL     5      -4.399  20.139  68.350  1.00  0.00     0.000 HD 
HETATM    7  C   UNL     5      -5.499  18.761  69.265  1.00  0.00    -0.205 C  
ENDROOT
BRANCH   3   8
HETATM    8  C   UNL     4      -9.660  10.676  68.351  1.00  0.00    -0.168 C  
HETATM    9  O   UNL     4      -9.761  11.069  69.732  1.00  0.00    -0.360 OA 
HETATM   10  H   UNL     4      -8.943  11.462  70.014  1.00  0.00     0.000 HD 
BRANCH   8  11
HETATM   11  C   UNL     4      -8.348   9.848  68.223  1.00  0.00    -0.110 C  
HETATM   12  O   UNL     4      -8.250   8.798  69.180  1.00  0.00    -0.115 OA 
HETATM   13  H   UNL     4      -7.449   8.293  69.101  1.00  0.00     0.000 HD 
BRANCH  11  14
HETATM   14  C   UNL     4      -7.924   9.368  66.809  1.00  0.00    -0.108 C  
HETATM   15  H   UNL     4      -6.479   8.250  66.116  1.00  0.00     0.000 HD 
HETATM   16  O   UNL     4      -6.738   8.544  66.982  1.00  0.00    -0.061 OA 
BRANCH  14  17
HETATM   17  C   UNL     4      -7.710  10.401  65.666  1.00  0.00    -0.150 C  
HETATM   18  C   UNL     4      -8.819  10.302  64.539  1.00  0.00    -0.203 C  
HETATM   19  H   UNL     4      -6.228  11.027  64.480  1.00  0.00     0.000 HD 
HETATM   20  O   UNL     4      -6.359  10.396  65.178  1.00  0.00    -0.122 OA 
HETATM   21  O   UNL     4     -10.012  10.051  64.998  1.00  0.00    -0.326 OA 
HETATM   22  O   UNL     4      -8.469  10.377  63.329  1.00  0.00    -0.166 OA 
ENDBRANCH  14  17
ENDBRANCH  11  14
ENDBRANCH   8  11
ENDBRANCH   3   8
BRANCH   7  23
HETATM   23  C   UNL     5      -6.775  18.698  70.128  1.00  0.00     0.404 C  
HETATM   24  O   UNL     5      -6.646  19.646  71.189  1.00  0.00     0.188 OA 
HETATM   25  H   UNL     5      -7.432  19.607  71.721  1.00  0.00     0.000 HD 
BRANCH  23  26
HETATM   26  C   UNL     5      -8.045  18.970  69.291  1.00  0.00     0.015 C  
HETATM   27  O   UNL     5      -7.927  20.258  68.647  1.00  0.00    -0.013 OA 
HETATM   28  H   UNL     5      -8.708  20.425  68.132  1.00  0.00     0.000 HD 
BRANCH  26  29
HETATM   29  C   UNL     5      -8.482  17.890  68.262  1.00  0.00    -0.278 C  
HETATM   30  O   UNL     5      -8.754  16.626  68.864  1.00  0.00    -0.251 OA 
HETATM   31  H   UNL     5      -9.022  15.966  68.235  1.00  0.00     0.000 HD 
BRANCH  29  32
HETATM   32  C   UNL     5      -7.641  17.733  66.985  1.00  0.00    -0.204 C  
HETATM   33  C   UNL     5      -6.909  16.384  66.819  1.00  0.00    -0.148 C  
HETATM   34  O   UNL     5      -6.687  18.847  66.857  1.00  0.00    -0.192 OA 
HETATM   35  O   UNL     5      -7.492  15.352  67.267  1.00  0.00    -0.186 OA 
HETATM   36  O   UNL     5      -5.743  16.497  66.296  1.00  0.00    -0.145 OA 
HETATM   37  H   UNL     5      -6.167  18.749  66.068  1.00  0.00     0.000 HD 
ENDBRANCH  29  32
ENDBRANCH  26  29
ENDBRANCH  23  26
ENDBRANCH   7  23
TORSDOF 8
ENDMDL
MODEL      486
REMARK 921   NORMALIZED FREE ENERGY PREDICTED BY IDOCK:   -0.92 KCAL/MOL
REMARK 922        TOTAL FREE ENERGY PREDICTED BY IDOCK:   -3.60 KCAL/MOL
REMARK 923 INTER-LIGAND FREE ENERGY PREDICTED BY IDOCK:   -1.92 KCAL/MOL
REMARK 924 INTRA-LIGAND FREE ENERGY PREDICTED BY IDOCK:   -1.68 KCAL/MOL
REMARK 927      BINDING AFFINITY PREDICTED BY RF-SCORE:    0.00 PKD
ROOT
HETATM    1 MG   UNL     3     -11.161   1.762  68.229  1.00  0.00     0.929 Mg 
HETATM    2  O   UNL     4     -11.626   3.651  62.336  1.00  0.00     0.243 OA 
HETATM    3  C   UNL     4     -10.816   3.129  63.371  1.00  0.00    -0.209 C  
HETATM    4  H   UNL     4     -11.875   2.995  61.694  1.00  0.00     0.000 HD 
HETATM    5  O   UNL     5      -8.005   4.804  74.554  1.00  0.00    -0.094 OA 
HETATM    6  H   UNL     5      -8.620   5.356  75.022  1.00  0.00     0.000 HD 
HETATM    7  C   UNL     5      -7.962   5.120  73.163  1.00  0.00    -0.104 C  
ENDROOT
BRANCH   3   8
HETATM    8  C   UNL     4     -10.414   4.189  64.408  1.00  0.00    -0.137 C  
HETATM    9  O   UNL     4     -11.596   4.767  64.992  1.00  0.00    -0.995 OA 
HETATM   10  H   UNL     4     -11.347   5.423  65.633  1.00  0.00     0.000 HD 
BRANCH   8  11
HETATM   11  C   UNL     4      -9.497   3.768  65.594  1.00  0.00    -0.170 C  
HETATM   12  O   UNL     4      -9.829   2.496  66.139  1.00  0.00    -0.252 OA 
HETATM   13  H   UNL     4      -9.269   2.240  66.862  1.00  0.00     0.000 HD 
BRANCH  11  14
HETATM   14  C   UNL     4      -7.962   3.926  65.419  1.00  0.00    -0.093 C  
HETATM   15  H   UNL     4      -6.396   3.066  66.210  1.00  0.00     0.000 HD 
HETATM   16  O   UNL     4      -7.335   2.970  66.316  1.00  0.00    -0.068 OA 
BRANCH  14  17
HETATM   17  C   UNL     4      -7.300   5.327  65.564  1.00  0.00    -0.069 C  
HETATM   18  C   UNL     4      -6.429   5.723  64.301  1.00  0.00    -0.033 C  
HETATM   19  H   UNL     4      -6.227   6.337  66.914  1.00  0.00     0.000 HD 
HETATM   20  O   UNL     4      -6.631   5.481  66.825  1.00  0.00    -0.052 OA 
HETATM   21  O   UNL     4      -6.945   5.343  63.168  1.00  0.00    -0.036 OA 
HETATM   22  O   UNL     4      -5.306   6.271  64.482  1.00  0.00    -0.017 OA 
ENDBRANCH  14  17
ENDBRANCH  11  14
ENDBRANCH   8  11
ENDBRANCH   3   8
BRANCH   7  23
HETATM   23  C   UNL     5      -6.963   4.224  72.403  1.00  0.00    -0.056 C  
HETATM   24  O   UNL     5      -7.559   2.937  72.229  1.00  0.00    -0.050 OA 
HETATM   25  H   UNL     5      -6.943   2.385  71.761  1.00  0.00     0.000 HD 
BRANCH  23  26
HETATM   26  C   UNL     5      -6.561   4.839  71.046  1.00  0.00    -0.031 C  
HETATM   27  O   UNL     5      -6.283   3.780  70.102  1.00  0.00    -0.025 OA 
HETATM   28  H   UNL     5      -6.035   4.158  69.267  1.00  0.00     0.000 HD 
BRANCH  26  29
HETATM   29  C   UNL     5      -7.516   5.888  70.411  1.00  0.00    -0.089 C  
HETATM   30  O   UNL     5      -8.277   5.361  69.324  1.00  0.00    -0.092 OA 
HETATM   31  H   UNL     5      -8.861   6.002  68.936  1.00  0.00     0.000 HD 
BRANCH  29  32
HETATM   32  C   UNL     5      -6.941   7.273  70.072  1.00  0.00    -0.060 C  
HETATM   33  C   UNL     5      -7.460   8.449  70.925  1.00  0.00    -0.066 C  
HETATM   34  O   UNL     5      -7.119   7.567  68.641  1.00  0.00    -0.076 OA 
HETATM   35  O   UNL     5      -7.726   8.207  72.140  1.00  0.00    -0.101 OA 
HETATM   36  O   UNL     5      -7.624   9.531  70.257  1.00  0.00    -0.120 OA 
HETATM   37  H   UNL     5      -6.763   8.423  68.431  1.00  0.00     0.000 HD 
ENDBRANCH  29  32
ENDBRANCH  26  29
ENDBRANCH  23  26
ENDBRANCH   7  23
TORSDOF 8
ENDMDL
MODEL      487
REMARK 921   NORMALIZED FREE ENERGY PREDICTED BY IDOCK:   -0.74 KCAL/MOL
REMARK 922        TOTAL FREE ENERGY PREDICTED BY IDOCK:   -3.33 KCAL/MOL
REMARK 923 INTER-LIGAND FREE ENERGY PREDICTED BY IDOCK:   -2.23 KCAL/MOL
REMARK 924 INTRA-LIGAND FREE ENERGY PREDICTED BY IDOCK:   -1.10 KCAL/MOL
REMARK 927      BINDING AFFINITY PREDICTED BY RF-SCORE:    0.00 PKD
ROOT
HETATM    1 MG   UNL     3      -7.902   8.288  68.901  1.00  0.00    -0.090 Mg 
HETATM    2  O   UNL     4      -5.821   8.006  63.061  1.00  0.00    -0.062 OA 
HETATM    3  C   UNL     4      -6.055   8.785  64.219  1.00  0.00    -0.071 C  
HETATM    4  H   UNL     4      -4.905   7.784  62.943  1.00  0.00     0.000 HD 
HETATM    5  O   UNL     5     -14.234  11.209  72.154  1.00  0.00     0.258 OA 
HETATM    6  H   UNL     5     -14.941  10.574  72.178  1.00  0.00     0.000 HD 
HETATM    7  C   UNL     5     -13.644  11.296  70.858  1.00  0.00     0.970 C  
ENDROOT
BRANCH   3   8
HETATM    8  C   UNL     4      -7.536   9.145  64.409  1.00  0.00    -0.101 C  
HETATM    9  O   UNL     4      -7.872   9.087  65.808  1.00  0.00    -0.096 OA 
HETATM   10  H   UNL     4      -8.788   9.309  65.926  1.00  0.00     0.000 HD 
BRANCH   8  11
HETATM   11  C   UNL     4      -8.047  10.520  63.889  1.00  0.00    -0.029 C  
HETATM   12  O   UNL     4      -7.358  10.975  62.729  1.00  0.00    -0.368 OA 
HETATM   13  H   UNL     4      -7.670  11.814  62.413  1.00  0.00     0.000 HD 
BRANCH  11  14
HETATM   14  C   UNL     4      -9.580  10.724  63.754  1.00  0.00    -0.295 C  
HETATM   15  H   UNL     4     -10.831  10.762  62.254  1.00  0.00     0.000 HD 
HETATM   16  O   UNL     4      -9.893  10.637  62.337  1.00  0.00    -0.150 OA 
BRANCH  14  17
HETATM   17  C   UNL     4     -10.260  11.970  64.389  1.00  0.00    -0.302 C  
HETATM   18  C   UNL     4     -11.224  11.594  65.590  1.00  0.00    -0.214 C  
HETATM   19  H   UNL     4     -11.261  13.592  63.787  1.00  0.00     0.000 HD 
HETATM   20  O   UNL     4     -10.846  12.831  63.400  1.00  0.00    -0.351 OA 
HETATM   21  O   UNL     4     -10.777  10.624  66.336  1.00  0.00    -0.214 OA 
HETATM   22  O   UNL     4     -12.343  12.170  65.678  1.00  0.00    -0.560 OA 
ENDBRANCH  14  17
ENDBRANCH  11  14
ENDBRANCH   8  11
ENDBRANCH   3   8
BRANCH   7  23
HETATM   23  C   UNL     5     -12.497  12.326  70.820  1.00  0.00    -0.265 C  
HETATM   24  O   UNL     5     -11.533  11.961  71.809  1.00  0.00     1.747 OA 
HETATM   25  H   UNL     5     -10.827  12.595  71.786  1.00  0.00     0.000 HD 
BRANCH  23  26
HETATM   26  C   UNL     5     -11.852  12.412  69.419  1.00  0.00    -0.304 C  
HETATM   27  O   UNL     5     -12.592  11.578  68.499  1.00  0.00    -0.142 OA 
HETATM   28  H   UNL     5     -12.195  11.631  67.637  1.00  0.00     0.000 HD 
BRANCH  26  29
HETATM   29  C   UNL     5     -11.627  13.822  68.807  1.00  0.00    -0.328 C  
HETATM   30  O   UNL     5     -12.647  14.195  67.881  1.00  0.00    -0.447 OA 
HETATM   31  H   UNL     5     -12.510  15.057  67.506  1.00  0.00     0.000 HD 
BRANCH  29  32
HETATM   32  C   UNL     5     -10.228  14.155  68.263  1.00  0.00    -0.243 C  
HETATM   33  C   UNL     5      -9.133  13.098  68.519  1.00  0.00    -0.053 C  
HETATM   34  O   UNL     5      -9.786  15.472  68.751  1.00  0.00    -0.201 OA 
HETATM   35  O   UNL     5      -9.491  11.883  68.510  1.00  0.00    -0.198 OA 
HETATM   36  O   UNL     5      -7.986  13.605  68.784  1.00  0.00    -0.117 OA 
HETATM   37  H   UNL     5      -8.922  15.677  68.416  1.00  0.00     0.000 HD 
ENDBRANCH  29  32
ENDBRANCH  26  29
ENDBRANCH  23  26
ENDBRANCH   7  23
TORSDOF 8
ENDMDL
MODEL      488
REMARK 921   NORMALIZED FREE ENERGY PREDICTED BY IDOCK:   -0.63 KCAL/MOL
REMARK 922        TOTAL FREE ENERGY PREDICTED BY IDOCK:   -3.18 KCAL/MOL
REMARK 923 INTER-LIGAND FREE ENERGY PREDICTED BY IDOCK:   -3.42 KCAL/MOL
REMARK 924 INTRA-LIGAND FREE ENERGY PREDICTED BY IDOCK:    0.25 KCAL/MOL
REMARK 927      BINDING AFFINITY PREDICTED BY RF-SCORE:    0.00 PKD
ROOT
HETATM    1 MG   UNL     3      -9.911  11.325  65.345  1.00  0.00    -0.189 Mg 
HETATM    2  O   UNL     4      -9.535   5.421  67.223  1.00  0.00    -0.117 OA 
HETATM    3  C   UNL     4      -9.816   6.770  67.544  1.00  0.00    -0.132 C  
HETATM    4  H   UNL     4     -10.319   4.892  67.130  1.00  0.00     0.000 HD 
HETATM    5  O   UNL     5      -5.524  17.548  66.458  1.00  0.00    -0.157 OA 
HETATM    6  H   UNL     5      -4.847  17.622  65.796  1.00  0.00     0.000 HD 
HETATM    7  C   UNL     5      -5.568  16.239  67.026  1.00  0.00     0.060 C  
ENDROOT
BRANCH   3   8
HETATM    8  C   UNL     4      -8.549   7.626  67.693  1.00  0.00    -0.116 C  
HETATM    9  O   UNL     4      -8.745   8.897  67.045  1.00  0.00    -0.121 OA 
HETATM   10  H   UNL     4      -7.961   9.426  67.137  1.00  0.00     0.000 HD 
BRANCH   8  11
HETATM   11  C   UNL     4      -8.018   7.936  69.122  1.00  0.00    -0.118 C  
HETATM   12  O   UNL     4      -8.917   7.546  70.154  1.00  0.00    -0.146 OA 
HETATM   13  H   UNL     4      -8.592   7.735  71.027  1.00  0.00     0.000 HD 
BRANCH  11  14
HETATM   14  C   UNL     4      -6.557   7.532  69.461  1.00  0.00    -0.036 C  
HETATM   15  H   UNL     4      -5.728   6.393  70.814  1.00  0.00     0.000 HD 
HETATM   16  O   UNL     4      -6.622   6.640  70.607  1.00  0.00    -0.050 OA 
BRANCH  14  17
HETATM   17  C   UNL     4      -5.476   8.628  69.681  1.00  0.00    -0.030 C  
HETATM   18  C   UNL     4      -5.649   9.387  71.061  1.00  0.00    -0.056 C  
HETATM   19  H   UNL     4      -4.675  10.157  68.673  1.00  0.00     0.000 HD 
HETATM   20  O   UNL     4      -5.336   9.488  68.539  1.00  0.00    -0.034 OA 
HETATM   21  O   UNL     4      -6.026   8.615  72.040  1.00  0.00    -0.054 OA 
HETATM   22  O   UNL     4      -5.505  10.641  71.091  1.00  0.00    -0.138 OA 
ENDBRANCH  14  17
ENDBRANCH  11  14
ENDBRANCH   8  11
ENDBRANCH   3   8
BRANCH   7  23
HETATM   23  C   UNL     5      -6.667  16.118  68.101  1.00  0.00    -0.126 C  
HETATM   24  O   UNL     5      -7.293  17.394  68.246  1.00  0.00    -0.197 OA 
HETATM   25  H   UNL     5      -7.970  17.320  68.908  1.00  0.00     0.000 HD 
BRANCH  23  26
HETATM   26  C   UNL     5      -7.700  15.029  67.741  1.00  0.00    -0.153 C  
HETATM   27  O   UNL     5      -8.303  14.521  68.954  1.00  0.00    -0.186 OA 
HETATM   28  H   UNL     5      -8.939  13.851  68.732  1.00  0.00     0.000 HD 
BRANCH  26  29
HETATM   29  C   UNL     5      -8.800  15.383  66.702  1.00  0.00    -0.295 C  
HETATM   30  O   UNL     5      -8.264  15.851  65.464  1.00  0.00     0.494 OA 
HETATM   31  H   UNL     5      -8.936  16.068  64.828  1.00  0.00     0.000 HD 
BRANCH  29  32
HETATM   32  C   UNL     5      -9.975  16.257  67.168  1.00  0.00    -0.257 C  
HETATM   33  C   UNL     5      -9.738  17.781  67.141  1.00  0.00    -0.288 C  
HETATM   34  O   UNL     5     -10.429  15.838  68.505  1.00  0.00    -0.225 OA 
HETATM   35  O   UNL     5      -9.005  18.235  66.213  1.00  0.00    -0.405 OA 
HETATM   36  O   UNL     5     -10.274  18.399  68.129  1.00  0.00    -0.353 OA 
HETATM   37  H   UNL     5     -11.155  16.377  68.793  1.00  0.00     0.000 HD 
ENDBRANCH  29  32
ENDBRANCH  26  29
ENDBRANCH  23  26
ENDBRANCH   7  23
TORSDOF 8
ENDMDL
MODEL      489
REMARK 921   NORMALIZED FREE ENERGY PREDICTED BY IDOCK:   -0.37 KCAL/MOL
REMARK 922        TOTAL FREE ENERGY PREDICTED BY IDOCK:   -2.78 KCAL/MOL
REMARK 923 INTER-LIGAND FREE ENERGY PREDICTED BY IDOCK:   -2.86 KCAL/MOL
REMARK 924 INTRA-LIGAND FREE ENERGY PREDICTED BY IDOCK:    0.07 KCAL/MOL
REMARK 927      BINDING AFFINITY PREDICTED BY RF-SCORE:    0.00 PKD
ROOT
HETATM    1 MG   UNL     3     -10.072  14.751  66.322  1.00  0.00    -0.233 Mg 
HETATM    2  O   UNL     4     -10.682   8.849  68.142  1.00  0.00    -0.391 OA 
HETATM    3  C   UNL     4     -10.835  10.223  68.443  1.00  0.00    -0.245 C  
HETATM    4  H   UNL     4     -11.505   8.421  67.937  1.00  0.00     0.000 HD 
HETATM    5  O   UNL     5      -5.142  20.383  68.106  1.00  0.00    -0.184 OA 
HETATM    6  H   UNL     5      -4.378  20.372  67.542  1.00  0.00     0.000 HD 
HETATM    7  C   UNL     5      -5.422  19.091  68.643  1.00  0.00    -0.197 C  
ENDROOT
BRANCH   3   8
HETATM    8  C   UNL     4      -9.504  10.915  68.773  1.00  0.00    -0.190 C  
HETATM    9  O   UNL     4      -9.636  11.658  69.999  1.00  0.00     0.927 OA 
HETATM   10  H   UNL     4      -8.813  12.087  70.203  1.00  0.00     0.000 HD 
BRANCH   8  11
HETATM   11  C   UNL     4      -8.222  10.044  68.921  1.00  0.00    -0.121 C  
HETATM   12  O   UNL     4      -8.184   9.300  70.133  1.00  0.00    -0.128 OA 
HETATM   13  H   UNL     4      -7.402   8.768  70.223  1.00  0.00     0.000 HD 
BRANCH  11  14
HETATM   14  C   UNL     4      -7.787   9.177  67.709  1.00  0.00    -0.100 C  
HETATM   15  H   UNL     4      -6.500   7.730  67.450  1.00  0.00     0.000 HD 
HETATM   16  O   UNL     4      -6.766   8.261  68.191  1.00  0.00    -0.062 OA 
BRANCH  14  17
HETATM   17  C   UNL     4      -7.331   9.857  66.386  1.00  0.00    -0.101 C  
HETATM   18  C   UNL     4      -8.441   9.801  65.257  1.00  0.00    -0.145 C  
HETATM   19  H   UNL     4      -5.751   9.828  65.162  1.00  0.00     0.000 HD 
HETATM   20  O   UNL     4      -6.031   9.412  65.969  1.00  0.00    -0.059 OA 
HETATM   21  O   UNL     4      -9.654   9.959  65.706  1.00  0.00    -0.209 OA 
HETATM   22  O   UNL     4      -8.096   9.527  64.074  1.00  0.00    -0.133 OA 
ENDBRANCH  14  17
ENDBRANCH  11  14
ENDBRANCH   8  11
ENDBRANCH   3   8
BRANCH   7  23
HETATM   23  C   UNL     5      -6.662  19.109  69.560  1.00  0.00    -0.241 C  
HETATM   24  O   UNL     5      -6.492  20.150  70.523  1.00  0.00    -0.355 OA 
HETATM   25  H   UNL     5      -7.256  20.161  71.088  1.00  0.00     0.000 HD 
BRANCH  23  26
HETATM   26  C   UNL     5      -7.965  19.304  68.754  1.00  0.00    -0.357 C  
HETATM   27  O   UNL     5      -8.695  20.431  69.290  1.00  0.00     0.564 OA 
HETATM   28  H   UNL     5      -9.497  20.552  68.794  1.00  0.00     0.000 HD 
BRANCH  26  29
HETATM   29  C   UNL     5      -7.854  19.421  67.208  1.00  0.00    -0.257 C  
HETATM   30  O   UNL     5      -7.745  20.771  66.759  1.00  0.00    -0.518 OA 
HETATM   31  H   UNL     5      -7.677  20.843  65.814  1.00  0.00     0.000 HD 
BRANCH  29  32
HETATM   32  C   UNL     5      -8.854  18.625  66.353  1.00  0.00    -0.275 C  
HETATM   33  C   UNL     5      -9.823  19.462  65.492  1.00  0.00     0.404 C  
HETATM   34  O   UNL     5      -9.608  17.679  67.192  1.00  0.00    -0.265 OA 
HETATM   35  O   UNL     5      -9.380  20.549  65.015  1.00  0.00     0.510 OA 
HETATM   36  O   UNL     5     -11.005  18.967  65.427  1.00  0.00    -0.497 OA 
HETATM   37  H   UNL     5     -10.225  17.187  66.664  1.00  0.00     0.000 HD 
ENDBRANCH  29  32
ENDBRANCH  26  29
ENDBRANCH  23  26
ENDBRANCH   7  23
TORSDOF 8
ENDMDL
MODEL      490
REMARK 921   NORMALIZED FREE ENERGY PREDICTED BY IDOCK:    0.23 KCAL/MOL
REMARK 922        TOTAL FREE ENERGY PREDICTED BY IDOCK:   -1.91 KCAL/MOL
REMARK 923 INTER-LIGAND FREE ENERGY PREDICTED BY IDOCK:   -0.55 KCAL/MOL
REMARK 924 INTRA-LIGAND FREE ENERGY PREDICTED BY IDOCK:   -1.36 KCAL/MOL
REMARK 927      BINDING AFFINITY PREDICTED BY RF-SCORE:    0.00 PKD
ROOT
HETATM    1 MG   UNL     3     -14.071  14.843  66.598  1.00  0.00     1.025 Mg 
HETATM    2  O   UNL     4     -12.972  10.445  62.360  1.00  0.00     2.478 OA 
HETATM    3  C   UNL     4     -12.652  11.012  63.615  1.00  0.00     1.778 C  
HETATM    4  H   UNL     4     -13.477   9.643  62.433  1.00  0.00     0.000 HD 
HETATM    5  O   UNL     5     -10.316  21.204  68.756  1.00  0.00     0.608 OA 
HETATM    6  H   UNL     5     -10.580  21.957  68.242  1.00  0.00     0.000 HD 
HETATM    7  C   UNL     5      -9.997  20.085  67.929  1.00  0.00    -0.422 C  
ENDROOT
BRANCH   3   8
HETATM    8  C   UNL     4     -11.835  12.307  63.496  1.00  0.00    -0.514 C  
HETATM    9  O   UNL     4     -12.587  13.405  64.047  1.00  0.00    -0.653 OA 
HETATM   10  H   UNL     4     -12.082  14.207  63.972  1.00  0.00     0.000 HD 
BRANCH   8  11
HETATM   11  C   UNL     4     -10.424  12.367  64.150  1.00  0.00    -0.389 C  
HETATM   12  O   UNL     4      -9.989  13.694  64.429  1.00  0.00    -0.687 OA 
HETATM   13  H   UNL     4      -9.128  13.730  64.828  1.00  0.00     0.000 HD 
BRANCH  11  14
HETATM   14  C   UNL     4     -10.131  11.413  65.339  1.00  0.00    -0.261 C  
HETATM   15  H   UNL     4     -10.793  11.260  67.171  1.00  0.00     0.000 HD 
HETATM   16  O   UNL     4     -10.972  11.844  66.443  1.00  0.00    -0.267 OA 
BRANCH  14  17
HETATM   17  C   UNL     4      -8.668  11.193  65.820  1.00  0.00    -0.150 C  
HETATM   18  C   UNL     4      -8.386   9.694  66.250  1.00  0.00    -0.116 C  
HETATM   19  H   UNL     4      -7.367  12.044  67.077  1.00  0.00     0.000 HD 
HETATM   20  O   UNL     4      -8.261  12.178  66.783  1.00  0.00    -0.164 OA 
HETATM   21  O   UNL     4      -8.981   8.812  65.498  1.00  0.00    -0.193 OA 
HETATM   22  O   UNL     4      -7.713   9.474  67.294  1.00  0.00    -0.091 OA 
ENDBRANCH  14  17
ENDBRANCH  11  14
ENDBRANCH   8  11
ENDBRANCH   3   8
BRANCH   7  23
HETATM   23  C   UNL     5      -9.569  18.861  68.764  1.00  0.00    -0.382 C  
HETATM   24  O   UNL     5     -10.739  18.109  69.090  1.00  0.00    -0.293 OA 
HETATM   25  H   UNL     5     -10.475  17.355  69.604  1.00  0.00     0.000 HD 
BRANCH  23  26
HETATM   26  C   UNL     5      -8.539  17.989  68.013  1.00  0.00    -0.264 C  
HETATM   27  O   UNL     5      -7.805  17.186  68.965  1.00  0.00    -0.234 OA 
HETATM   28  H   UNL     5      -7.171  16.650  68.503  1.00  0.00     0.000 HD 
BRANCH  26  29
HETATM   29  C   UNL     5      -9.051  17.103  66.843  1.00  0.00    -0.238 C  
HETATM   30  O   UNL     5     -10.062  17.741  66.064  1.00  0.00    -0.469 OA 
HETATM   31  H   UNL     5     -10.375  17.200  65.349  1.00  0.00     0.000 HD 
BRANCH  29  32
HETATM   32  C   UNL     5      -9.421  15.644  67.155  1.00  0.00    -0.217 C  
HETATM   33  C   UNL     5     -10.840  15.412  67.715  1.00  0.00    -0.302 C  
HETATM   34  O   UNL     5      -8.419  15.038  68.047  1.00  0.00    -0.143 OA 
HETATM   35  O   UNL     5     -11.761  16.171  67.289  1.00  0.00     0.245 OA 
HETATM   36  O   UNL     5     -10.891  14.500  68.615  1.00  0.00    -0.236 OA 
HETATM   37  H   UNL     5      -8.647  14.137  68.240  1.00  0.00     0.000 HD 
ENDBRANCH  29  32
ENDBRANCH  26  29
ENDBRANCH  23  26
ENDBRANCH   7  23
TORSDOF 8
ENDMDL
MODEL      491
REMARK 921   NORMALIZED FREE ENERGY PREDICTED BY IDOCK:    0.53 KCAL/MOL
REMARK 922        TOTAL FREE ENERGY PREDICTED BY IDOCK:   -1.46 KCAL/MOL
REMARK 923 INTER-LIGAND FREE ENERGY PREDICTED BY IDOCK:   -1.45 KCAL/MOL
REMARK 924 INTRA-LIGAND FREE ENERGY PREDICTED BY IDOCK:   -0.01 KCAL/MOL
REMARK 927      BINDING AFFINITY PREDICTED BY RF-SCORE:    0.00 PKD
ROOT
HETATM    1 MG   UNL     3      -5.983  14.423  67.559  1.00  0.00    -0.115 Mg 
HETATM    2  O   UNL     4      -5.458  20.199  69.770  1.00  0.00    -0.223 OA 
HETATM    3  C   UNL     4      -5.582  18.815  70.037  1.00  0.00    -0.237 C  
HETATM    4  H   UNL     4      -4.577  20.525  69.910  1.00  0.00     0.000 HD 
HETATM    5  O   UNL     5     -11.811   9.421  67.085  1.00  0.00     1.178 OA 
HETATM    6  H   UNL     5     -12.299   9.527  66.277  1.00  0.00     0.000 HD 
HETATM    7  C   UNL     5     -11.613  10.667  67.752  1.00  0.00     0.025 C  
ENDROOT
BRANCH   3   8
HETATM    8  C   UNL     4      -7.007  18.288  69.810  1.00  0.00     0.258 C  
HETATM    9  O   UNL     4      -7.962  19.301  70.175  1.00  0.00     0.701 OA 
HETATM   10  H   UNL     4      -8.844  18.974  70.035  1.00  0.00     0.000 HD 
BRANCH   8  11
HETATM   11  C   UNL     4      -7.407  17.796  68.388  1.00  0.00    -0.257 C  
HETATM   12  O   UNL     4      -6.398  17.014  67.758  1.00  0.00    -0.133 OA 
HETATM   13  H   UNL     4      -6.643  16.714  66.891  1.00  0.00     0.000 HD 
BRANCH  11  14
HETATM   14  C   UNL     4      -8.813  17.162  68.205  1.00  0.00    -0.245 C  
HETATM   15  H   UNL     4      -9.662  15.512  68.815  1.00  0.00     0.000 HD 
HETATM   16  O   UNL     4      -8.802  15.900  68.927  1.00  0.00    -0.195 OA 
BRANCH  14  17
HETATM   17  C   UNL     4      -9.403  16.971  66.779  1.00  0.00    -0.252 C  
HETATM   18  C   UNL     4     -10.908  16.475  66.803  1.00  0.00    -0.070 C  
HETATM   19  H   UNL     4      -8.893  16.087  65.060  1.00  0.00     0.000 HD 
HETATM   20  O   UNL     4      -8.533  16.203  65.932  1.00  0.00    -0.261 OA 
HETATM   21  O   UNL     4     -11.620  17.008  67.754  1.00  0.00     0.209 OA 
HETATM   22  O   UNL     4     -11.267  15.575  65.995  1.00  0.00    -0.247 OA 
ENDBRANCH  14  17
ENDBRANCH  11  14
ENDBRANCH   8  11
ENDBRANCH   3   8
BRANCH   7  23
HETATM   23  C   UNL     5     -10.820  10.494  69.063  1.00  0.00    -0.232 C  
HETATM   24  O   UNL     5     -11.574  11.085  70.124  1.00  0.00    -0.296 OA 
HETATM   25  H   UNL     5     -11.086  10.979  70.931  1.00  0.00     0.000 HD 
BRANCH  23  26
HETATM   26  C   UNL     5     -10.518   9.009  69.357  1.00  0.00    -0.222 C  
HETATM   27  O   UNL     5     -11.633   8.198  68.919  1.00  0.00     0.154 OA 
HETATM   28  H   UNL     5     -11.447   7.284  69.099  1.00  0.00     0.000 HD 
BRANCH  26  29
HETATM   29  C   UNL     5      -9.182   8.419  68.825  1.00  0.00    -0.143 C  
HETATM   30  O   UNL     5      -8.073   8.698  69.679  1.00  0.00    -0.106 OA 
HETATM   31  H   UNL     5      -7.256   8.338  69.354  1.00  0.00     0.000 HD 
BRANCH  29  32
HETATM   32  C   UNL     5      -8.827   8.660  67.349  1.00  0.00    -0.134 C  
HETATM   33  C   UNL     5      -9.432   7.665  66.336  1.00  0.00    -0.161 C  
HETATM   34  O   UNL     5      -7.367   8.734  67.177  1.00  0.00    -0.079 OA 
HETATM   35  O   UNL     5     -10.586   7.210  66.593  1.00  0.00    -0.242 OA 
HETATM   36  O   UNL     5      -8.637   7.369  65.375  1.00  0.00    -0.127 OA 
HETATM   37  H   UNL     5      -7.147   8.883  66.265  1.00  0.00     0.000 HD 
ENDBRANCH  29  32
ENDBRANCH  26  29
ENDBRANCH  23  26
ENDBRANCH   7  23
TORSDOF 8
ENDMDL
MODEL      492
REMARK 921   NORMALIZED FREE ENERGY PREDICTED BY IDOCK:    0.86 KCAL/MOL
REMARK 922        TOTAL FREE ENERGY PREDICTED BY IDOCK:   -0.98 KCAL/MOL
REMARK 923 INTER-LIGAND FREE ENERGY PREDICTED BY IDOCK:    1.16 KCAL/MOL
REMARK 924 INTRA-LIGAND FREE ENERGY PREDICTED BY IDOCK:   -2.14 KCAL/MOL
REMARK 927      BINDING AFFINITY PREDICTED BY RF-SCORE:    0.00 PKD
ROOT
HETATM    1 MG   UNL     3      -7.810  14.142  64.734  1.00  0.00     3.220 Mg 
HETATM    2  O   UNL     4     -13.203  12.000  62.531  1.00  0.00    -0.014 OA 
HETATM    3  C   UNL     4     -12.478  13.070  63.106  1.00  0.00    -0.039 C  
HETATM    4  H   UNL     4     -13.363  12.119  61.602  1.00  0.00     0.000 HD 
HETATM    5  O   UNL     5      -5.146  15.559  71.812  1.00  0.00    -0.160 OA 
HETATM    6  H   UNL     5      -4.732  14.793  72.191  1.00  0.00     0.000 HD 
HETATM    7  C   UNL     5      -6.430  15.253  71.269  1.00  0.00     0.891 C  
ENDROOT
BRANCH   3   8
HETATM    8  C   UNL     4     -12.219  12.879  64.608  1.00  0.00    -0.435 C  
HETATM    9  O   UNL     4     -13.391  12.324  65.234  1.00  0.00     0.200 OA 
HETATM   10  H   UNL     4     -13.230  12.206  66.163  1.00  0.00     0.000 HD 
BRANCH   8  11
HETATM   11  C   UNL     4     -11.019  11.993  65.055  1.00  0.00    -0.306 C  
HETATM   12  O   UNL     4      -9.781  12.388  64.472  1.00  0.00    -0.482 OA 
HETATM   13  H   UNL     4      -9.049  11.847  64.745  1.00  0.00     0.000 HD 
BRANCH  11  14
HETATM   14  C   UNL     4     -10.862  11.690  66.569  1.00  0.00    -0.284 C  
HETATM   15  H   UNL     4     -11.480  12.550  68.211  1.00  0.00     0.000 HD 
HETATM   16  O   UNL     4     -11.576  12.735  67.284  1.00  0.00    -0.319 OA 
BRANCH  14  17
HETATM   17  C   UNL     4      -9.446  11.480  67.180  1.00  0.00    -0.177 C  
HETATM   18  C   UNL     4      -9.166   9.968  67.563  1.00  0.00    -0.137 C  
HETATM   19  H   UNL     4      -8.296  12.296  68.596  1.00  0.00     0.000 HD 
HETATM   20  O   UNL     4      -9.161  12.424  68.223  1.00  0.00    -0.195 OA 
HETATM   21  O   UNL     4      -9.662   9.112  66.715  1.00  0.00    -0.176 OA 
HETATM   22  O   UNL     4      -8.590   9.712  68.656  1.00  0.00    -0.116 OA 
ENDBRANCH  14  17
ENDBRANCH  11  14
ENDBRANCH   8  11
ENDBRANCH   3   8
BRANCH   7  23
HETATM   23  C   UNL     5      -7.103  16.497  70.655  1.00  0.00     2.196 C  
HETATM   24  O   UNL     5      -6.082  17.442  70.326  1.00  0.00    -0.136 OA 
HETATM   25  H   UNL     5      -6.497  18.208  69.948  1.00  0.00     0.000 HD 
BRANCH  23  26
HETATM   26  C   UNL     5      -7.947  16.135  69.413  1.00  0.00    -0.107 C  
HETATM   27  O   UNL     5      -8.828  15.036  69.737  1.00  0.00    -0.451 OA 
HETATM   28  H   UNL     5      -9.348  14.813  68.973  1.00  0.00     0.000 HD 
BRANCH  26  29
HETATM   29  C   UNL     5      -8.743  17.275  68.718  1.00  0.00    -0.232 C  
HETATM   30  O   UNL     5     -10.066  16.886  68.352  1.00  0.00    -0.271 OA 
HETATM   31  H   UNL     5     -10.552  17.583  67.926  1.00  0.00     0.000 HD 
BRANCH  29  32
HETATM   32  C   UNL     5      -8.050  18.044  67.581  1.00  0.00    -0.232 C  
HETATM   33  C   UNL     5      -7.547  17.193  66.396  1.00  0.00    -0.312 C  
HETATM   34  O   UNL     5      -6.955  18.872  68.112  1.00  0.00    -0.234 OA 
HETATM   35  O   UNL     5      -8.237  16.178  66.081  1.00  0.00    -0.299 OA 
HETATM   36  O   UNL     5      -6.429  17.596  65.916  1.00  0.00    -0.234 OA 
HETATM   37  H   UNL     5      -6.527  19.347  67.410  1.00  0.00     0.000 HD 
ENDBRANCH  29  32
ENDBRANCH  26  29
ENDBRANCH  23  26
ENDBRANCH   7  23
TORSDOF 8
ENDMDL
MODEL      493
REMARK 921   NORMALIZED FREE ENERGY PREDICTED BY IDOCK:    1.23 KCAL/MOL
REMARK 922        TOTAL FREE ENERGY PREDICTED BY IDOCK:   -0.44 KCAL/MOL
REMARK 923 INTER-LIGAND FREE ENERGY PREDICTED BY IDOCK:   -2.11 KCAL/MOL
REMARK 924 INTRA-LIGAND FREE ENERGY PREDICTED BY IDOCK:    1.67 KCAL/MOL
REMARK 927      BINDING AFFINITY PREDICTED BY RF-SCORE:    0.00 PKD
ROOT
HETATM    1 MG   UNL     3      -5.135  11.789  70.124  1.00  0.00    -0.059 Mg 
HETATM    2  O   UNL     4      -8.485  17.004  69.813  1.00  0.00     0.600 OA 
HETATM    3  C   UNL     4      -8.414  15.641  70.183  1.00  0.00     0.736 C  
HETATM    4  H   UNL     4      -8.431  17.593  70.557  1.00  0.00     0.000 HD 
HETATM    5  O   UNL     5      -5.182   5.195  66.157  1.00  0.00    -0.008 OA 
HETATM    6  H   UNL     5      -4.615   5.240  65.397  1.00  0.00     0.000 HD 
HETATM    7  C   UNL     5      -6.054   6.323  66.236  1.00  0.00    -0.033 C  
ENDROOT
BRANCH   3   8
HETATM    8  C   UNL     4      -8.501  14.689  68.981  1.00  0.00    -0.095 C  
HETATM    9  O   UNL     4      -8.492  13.325  69.442  1.00  0.00     0.066 OA 
HETATM   10  H   UNL     4      -8.546  12.736  68.697  1.00  0.00     0.000 HD 
BRANCH   8  11
HETATM   11  C   UNL     4      -9.710  14.818  68.008  1.00  0.00    -0.213 C  
HETATM   12  O   UNL     4      -9.370  14.559  66.650  1.00  0.00    -0.256 OA 
HETATM   13  H   UNL     4     -10.108  14.638  66.057  1.00  0.00     0.000 HD 
BRANCH  11  14
HETATM   14  C   UNL     4     -11.040  14.121  68.402  1.00  0.00    -0.252 C  
HETATM   15  H   UNL     4     -12.099  14.014  70.041  1.00  0.00     0.000 HD 
HETATM   16  O   UNL     4     -11.285  14.440  69.800  1.00  0.00    -0.249 OA 
BRANCH  14  17
HETATM   17  C   UNL     4     -11.227  12.597  68.149  1.00  0.00    -0.269 C  
HETATM   18  C   UNL     4     -11.010  12.201  66.630  1.00  0.00    -0.282 C  
HETATM   19  H   UNL     4     -12.555  11.166  68.577  1.00  0.00     0.000 HD 
HETATM   20  O   UNL     4     -12.441  12.097  68.731  1.00  0.00    -0.022 OA 
HETATM   21  O   UNL     4     -10.051  12.862  66.048  1.00  0.00    -0.275 OA 
HETATM   22  O   UNL     4     -11.804  11.379  66.094  1.00  0.00    -0.218 OA 
ENDBRANCH  14  17
ENDBRANCH  11  14
ENDBRANCH   8  11
ENDBRANCH   3   8
BRANCH   7  23
HETATM   23  C   UNL     5      -6.974   6.250  67.471  1.00  0.00    -0.068 C  
HETATM   24  O   UNL     5      -6.430   5.289  68.378  1.00  0.00    -0.037 OA 
HETATM   25  H   UNL     5      -6.997   5.244  69.139  1.00  0.00     0.000 HD 
BRANCH  23  26
HETATM   26  C   UNL     5      -7.131   7.629  68.148  1.00  0.00    -0.081 C  
HETATM   27  O   UNL     5      -5.954   8.427  67.889  1.00  0.00    -0.045 OA 
HETATM   28  H   UNL     5      -6.051   9.275  68.305  1.00  0.00     0.000 HD 
BRANCH  26  29
HETATM   29  C   UNL     5      -8.415   8.448  67.841  1.00  0.00    -0.131 C  
HETATM   30  O   UNL     5      -8.156   9.619  67.069  1.00  0.00    -0.112 OA 
HETATM   31  H   UNL     5      -8.941  10.120  66.881  1.00  0.00     0.000 HD 
BRANCH  29  32
HETATM   32  C   UNL     5      -9.373   8.746  69.006  1.00  0.00    -0.145 C  
HETATM   33  C   UNL     5      -8.773   8.630  70.423  1.00  0.00    -0.155 C  
HETATM   34  O   UNL     5     -10.586   7.918  68.900  1.00  0.00    -0.284 OA 
HETATM   35  O   UNL     5      -7.559   8.963  70.564  1.00  0.00    -0.070 OA 
HETATM   36  O   UNL     5      -9.584   8.133  71.282  1.00  0.00    -0.152 OA 
HETATM   37  H   UNL     5     -11.178   8.102  69.619  1.00  0.00     0.000 HD 
ENDBRANCH  29  32
ENDBRANCH  26  29
ENDBRANCH  23  26
ENDBRANCH   7  23
TORSDOF 8
ENDMDL
MODEL      494
REMARK 921   NORMALIZED FREE ENERGY PREDICTED BY IDOCK:    2.14 KCAL/MOL
REMARK 922        TOTAL FREE ENERGY PREDICTED BY IDOCK:    0.90 KCAL/MOL
REMARK 923 INTER-LIGAND FREE ENERGY PREDICTED BY IDOCK:    1.12 KCAL/MOL
REMARK 924 INTRA-LIGAND FREE ENERGY PREDICTED BY IDOCK:   -0.22 KCAL/MOL
REMARK 927      BINDING AFFINITY PREDICTED BY RF-SCORE:    0.00 PKD
ROOT
HETATM    1 MG   UNL     3      -7.811  14.142  64.734  1.00  0.00     3.220 Mg 
HETATM    2  O   UNL     4     -13.187  11.997  62.493  1.00  0.00    -0.014 OA 
HETATM    3  C   UNL     4     -12.472  13.061  63.091  1.00  0.00    -0.039 C  
HETATM    4  H   UNL     4     -13.350  12.134  61.567  1.00  0.00     0.000 HD 
HETATM    5  O   UNL     5      -5.147  15.427  71.837  1.00  0.00    -0.162 OA 
HETATM    6  H   UNL     5      -4.724  14.657  72.198  1.00  0.00     0.000 HD 
HETATM    7  C   UNL     5      -6.429  15.120  71.289  1.00  0.00     0.778 C  
ENDROOT
BRANCH   3   8
HETATM    8  C   UNL     4     -12.208  12.838  64.587  1.00  0.00    -0.447 C  
HETATM    9  O   UNL     4     -13.373  12.259  65.203  1.00  0.00    -0.096 OA 
HETATM   10  H   UNL     4     -13.210  12.121  66.129  1.00  0.00     0.000 HD 
BRANCH   8  11
HETATM   11  C   UNL     4     -10.998  11.955  65.012  1.00  0.00    -0.312 C  
HETATM   12  O   UNL     4      -9.765  12.376  64.439  1.00  0.00    -0.502 OA 
HETATM   13  H   UNL     4      -9.027  11.837  64.699  1.00  0.00     0.000 HD 
BRANCH  11  14
HETATM   14  C   UNL     4     -10.837  11.617  66.519  1.00  0.00    -0.284 C  
HETATM   15  H   UNL     4     -11.077  10.005  67.596  1.00  0.00     0.000 HD 
HETATM   16  O   UNL     4     -11.176  10.211  66.674  1.00  0.00     0.061 OA 
BRANCH  14  17
HETATM   17  C   UNL     4     -11.563  12.476  67.593  1.00  0.00    -0.355 C  
HETATM   18  C   UNL     4     -10.587  13.482  68.332  1.00  0.00    -0.248 C  
HETATM   19  H   UNL     4     -12.818  12.201  69.125  1.00  0.00     0.000 HD 
HETATM   20  O   UNL     4     -12.374  11.676  68.469  1.00  0.00    -0.406 OA 
HETATM   21  O   UNL     4      -9.688  14.009  67.551  1.00  0.00    -0.224 OA 
HETATM   22  O   UNL     4     -10.687  13.622  69.582  1.00  0.00     0.047 OA 
ENDBRANCH  14  17
ENDBRANCH  11  14
ENDBRANCH   8  11
ENDBRANCH   3   8
BRANCH   7  23
HETATM   23  C   UNL     5      -7.115  16.371  70.704  1.00  0.00     2.056 C  
HETATM   24  O   UNL     5      -6.128  17.393  70.551  1.00  0.00     0.063 OA 
HETATM   25  H   UNL     5      -6.551  18.163  70.190  1.00  0.00     0.000 HD 
BRANCH  23  26
HETATM   26  C   UNL     5      -7.812  16.065  69.361  1.00  0.00    -0.167 C  
HETATM   27  O   UNL     5      -9.068  15.395  69.615  1.00  0.00    -0.330 OA 
HETATM   28  H   UNL     5      -9.497  15.206  68.788  1.00  0.00     0.000 HD 
BRANCH  26  29
HETATM   29  C   UNL     5      -8.021  17.239  68.365  1.00  0.00    -0.253 C  
HETATM   30  O   UNL     5      -9.233  17.127  67.619  1.00  0.00    -0.234 OA 
HETATM   31  H   UNL     5      -9.360  17.845  67.010  1.00  0.00     0.000 HD 
BRANCH  29  32
HETATM   32  C   UNL     5      -6.841  17.633  67.460  1.00  0.00    -0.171 C  
HETATM   33  C   UNL     5      -6.595  19.146  67.290  1.00  0.00    -0.193 C  
HETATM   34  O   UNL     5      -6.966  16.987  66.143  1.00  0.00    -0.220 OA 
HETATM   35  O   UNL     5      -6.839  19.887  68.289  1.00  0.00    -0.276 OA 
HETATM   36  O   UNL     5      -6.231  19.474  66.105  1.00  0.00    -0.173 OA 
HETATM   37  H   UNL     5      -6.238  17.230  65.584  1.00  0.00     0.000 HD 
ENDBRANCH  29  32
ENDBRANCH  26  29
ENDBRANCH  23  26
ENDBRANCH   7  23
TORSDOF 8
ENDMDL
MODEL      495
REMARK 921   NORMALIZED FREE ENERGY PREDICTED BY IDOCK:    7.76 KCAL/MOL
REMARK 922        TOTAL FREE ENERGY PREDICTED BY IDOCK:    9.14 KCAL/MOL
REMARK 923 INTER-LIGAND FREE ENERGY PREDICTED BY IDOCK:    6.89 KCAL/MOL
REMARK 924 INTRA-LIGAND FREE ENERGY PREDICTED BY IDOCK:    2.25 KCAL/MOL
REMARK 927      BINDING AFFINITY PREDICTED BY RF-SCORE:    0.00 PKD
ROOT
HETATM    1 MG   UNL     3      -5.131  11.787  70.160  1.00  0.00    -0.059 Mg 
HETATM    2  O   UNL     4      -8.559  16.914  70.853  1.00  0.00     4.401 OA 
HETATM    3  C   UNL     4      -8.425  15.521  71.056  1.00  0.00     3.105 C  
HETATM    4  H   UNL     4      -8.419  17.419  71.646  1.00  0.00     0.000 HD 
HETATM    5  O   UNL     5      -5.594   5.671  65.513  1.00  0.00    -0.013 OA 
HETATM    6  H   UNL     5      -5.128   5.814  64.698  1.00  0.00     0.000 HD 
HETATM    7  C   UNL     5      -6.463   6.759  65.825  1.00  0.00    -0.050 C  
ENDROOT
BRANCH   3   8
HETATM    8  C   UNL     4      -8.651  14.705  69.774  1.00  0.00     0.439 C  
HETATM    9  O   UNL     4      -8.068  13.397  69.924  1.00  0.00     0.745 OA 
HETATM   10  H   UNL     4      -8.207  12.892  69.131  1.00  0.00     0.000 HD 
BRANCH   8  11
HETATM   11  C   UNL     4     -10.108  14.484  69.273  1.00  0.00    -0.071 C  
HETATM   12  O   UNL     4     -10.628  13.201  69.604  1.00  0.00    -0.334 OA 
HETATM   13  H   UNL     4     -11.517  13.066  69.298  1.00  0.00     0.000 HD 
BRANCH  11  14
HETATM   14  C   UNL     4     -11.149  15.604  69.542  1.00  0.00    -0.298 C  
HETATM   15  H   UNL     4     -11.148  17.549  69.359  1.00  0.00     0.000 HD 
HETATM   16  O   UNL     4     -10.511  16.864  69.194  1.00  0.00    -0.311 OA 
BRANCH  14  17
HETATM   17  C   UNL     4     -11.842  15.707  70.931  1.00  0.00    -0.388 C  
HETATM   18  C   UNL     4     -12.574  14.366  71.349  1.00  0.00    -0.354 C  
HETATM   19  H   UNL     4     -13.071  16.954  71.896  1.00  0.00     0.000 HD 
HETATM   20  O   UNL     4     -12.648  16.890  71.047  1.00  0.00     1.790 OA 
HETATM   21  O   UNL     4     -11.931  13.288  71.002  1.00  0.00    -0.186 OA 
HETATM   22  O   UNL     4     -13.717  14.433  71.879  1.00  0.00    -0.364 OA 
ENDBRANCH  14  17
ENDBRANCH  11  14
ENDBRANCH   8  11
ENDBRANCH   3   8
BRANCH   7  23
HETATM   23  C   UNL     5      -7.219   6.526  67.148  1.00  0.00    -0.081 C  
HETATM   24  O   UNL     5      -6.654   5.383  67.791  1.00  0.00    -0.050 OA 
HETATM   25  H   UNL     5      -7.120   5.239  68.607  1.00  0.00     0.000 HD 
BRANCH  23  26
HETATM   26  C   UNL     5      -7.160   7.767  68.066  1.00  0.00    -0.085 C  
HETATM   27  O   UNL     5      -5.957   8.517  67.780  1.00  0.00    -0.045 OA 
HETATM   28  H   UNL     5      -5.921   9.281  68.345  1.00  0.00     0.000 HD 
BRANCH  26  29
HETATM   29  C   UNL     5      -8.392   8.714  68.090  1.00  0.00    -0.127 C  
HETATM   30  O   UNL     5      -8.127   9.986  67.500  1.00  0.00    -0.109 OA 
HETATM   31  H   UNL     5      -8.880  10.565  67.515  1.00  0.00     0.000 HD 
BRANCH  29  32
HETATM   32  C   UNL     5      -9.161   8.859  69.412  1.00  0.00    -0.146 C  
HETATM   33  C   UNL     5      -8.399   8.443  70.688  1.00  0.00    -0.125 C  
HETATM   34  O   UNL     5     -10.450   8.152  69.338  1.00  0.00    -0.220 OA 
HETATM   35  O   UNL     5      -7.151   8.658  70.711  1.00  0.00    -0.049 OA 
HETATM   36  O   UNL     5      -9.138   7.854  71.555  1.00  0.00    -0.129 OA 
HETATM   37  H   UNL     5     -10.926   8.241  70.155  1.00  0.00     0.000 HD 
ENDBRANCH  29  32
ENDBRANCH  26  29
ENDBRANCH  23  26
ENDBRANCH   7  23
TORSDOF 8
ENDMDL
MODEL      496
REMARK 921   NORMALIZED FREE ENERGY PREDICTED BY IDOCK:   30.74 KCAL/MOL
REMARK 922        TOTAL FREE ENERGY PREDICTED BY IDOCK:   42.87 KCAL/MOL
REMARK 923 INTER-LIGAND FREE ENERGY PREDICTED BY IDOCK:   42.83 KCAL/MOL
REMARK 924 INTRA-LIGAND FREE ENERGY PREDICTED BY IDOCK:    0.05 KCAL/MOL
REMARK 927      BINDING AFFINITY PREDICTED BY RF-SCORE:    0.00 PKD
ROOT
HETATM    1 MG   UNL     3      -5.135  11.751  70.249  1.00  0.00    -0.059 Mg 
HETATM    2  O   UNL     4      -8.491  16.115  73.115  1.00  0.00    13.770 OA 
HETATM    3  C   UNL     4      -8.234  14.740  72.905  1.00  0.00     8.137 C  
HETATM    4  H   UNL     4      -8.161  16.430  73.949  1.00  0.00     0.000 HD 
HETATM    5  O   UNL     5      -6.561   6.903  64.447  1.00  0.00    -0.041 OA 
HETATM    6  H   UNL     5      -6.349   7.291  63.606  1.00  0.00     0.000 HD 
HETATM    7  C   UNL     5      -7.363   7.773  65.244  1.00  0.00    -0.078 C  
ENDROOT
BRANCH   3   8
HETATM    8  C   UNL     4      -8.766  14.231  71.557  1.00  0.00     6.340 C  
HETATM    9  O   UNL     4      -8.216  12.929  71.280  1.00  0.00     7.629 OA 
HETATM   10  H   UNL     4      -8.545  12.614  70.446  1.00  0.00     0.000 HD 
BRANCH   8  11
HETATM   11  C   UNL     4     -10.305  14.111  71.356  1.00  0.00     3.657 C  
HETATM   12  O   UNL     4     -10.953  15.369  71.208  1.00  0.00    -0.434 OA 
HETATM   13  H   UNL     4     -11.892  15.296  71.085  1.00  0.00     0.000 HD 
BRANCH  11  14
HETATM   14  C   UNL     4     -10.826  13.079  70.319  1.00  0.00     1.392 C  
HETATM   15  H   UNL     4     -10.206  12.458  68.573  1.00  0.00     0.000 HD 
HETATM   16  O   UNL     4      -9.887  13.088  69.208  1.00  0.00     0.346 OA 
BRANCH  14  17
HETATM   17  C   UNL     4     -12.289  13.167  69.798  1.00  0.00    -0.102 C  
HETATM   18  C   UNL     4     -13.357  13.113  70.968  1.00  0.00     0.165 C  
HETATM   19  H   UNL     4     -13.430  12.305  68.402  1.00  0.00     0.000 HD 
HETATM   20  O   UNL     4     -12.537  12.251  68.720  1.00  0.00     0.217 OA 
HETATM   21  O   UNL     4     -12.990  13.752  72.042  1.00  0.00    -0.346 OA 
HETATM   22  O   UNL     4     -14.394  12.411  70.816  1.00  0.00     3.238 OA 
ENDBRANCH  14  17
ENDBRANCH  11  14
ENDBRANCH   8  11
ENDBRANCH   3   8
BRANCH   7  23
HETATM   23  C   UNL     5      -7.707   7.143  66.609  1.00  0.00    -0.097 C  
HETATM   24  O   UNL     5      -6.939   5.948  66.757  1.00  0.00    -0.065 OA 
HETATM   25  H   UNL     5      -7.151   5.560  67.598  1.00  0.00     0.000 HD 
BRANCH  23  26
HETATM   26  C   UNL     5      -7.443   8.123  67.773  1.00  0.00    -0.094 C  
HETATM   27  O   UNL     5      -7.456   7.397  69.023  1.00  0.00    -0.094 OA 
HETATM   28  H   UNL     5      -7.293   7.999  69.739  1.00  0.00     0.000 HD 
BRANCH  26  29
HETATM   29  C   UNL     5      -6.182   9.028  67.690  1.00  0.00    -0.055 C  
HETATM   30  O   UNL     5      -5.185   8.681  68.651  1.00  0.00    -0.032 OA 
HETATM   31  H   UNL     5      -4.414   9.234  68.600  1.00  0.00     0.000 HD 
BRANCH  29  32
HETATM   32  C   UNL     5      -6.392  10.549  67.625  1.00  0.00    -0.056 C  
HETATM   33  C   UNL     5      -7.765  11.064  68.105  1.00  0.00    -0.105 C  
HETATM   34  O   UNL     5      -6.108  11.050  66.270  1.00  0.00    -0.124 OA 
HETATM   35  O   UNL     5      -8.315  10.438  69.060  1.00  0.00    -0.130 OA 
HETATM   36  O   UNL     5      -8.214  12.044  67.410  1.00  0.00    -0.150 OA 
HETATM   37  H   UNL     5      -6.237  11.990  66.229  1.00  0.00     0.000 HD 
ENDBRANCH  29  32
ENDBRANCH  26  29
ENDBRANCH  23  26
ENDBRANCH   7  23
TORSDOF 8
ENDMDL
MODEL      497
REMARK 921   NORMALIZED FREE ENERGY PREDICTED BY IDOCK:   31.15 KCAL/MOL
REMARK 922        TOTAL FREE ENERGY PREDICTED BY IDOCK:   43.47 KCAL/MOL
REMARK 923 INTER-LIGAND FREE ENERGY PREDICTED BY IDOCK:   41.42 KCAL/MOL
REMARK 924 INTRA-LIGAND FREE ENERGY PREDICTED BY IDOCK:    2.06 KCAL/MOL
REMARK 927      BINDING AFFINITY PREDICTED BY RF-SCORE:    0.00 PKD
ROOT
HETATM    1 MG   UNL     3      -5.135  11.751  70.249  1.00  0.00    -0.059 Mg 
HETATM    2  O   UNL     4      -8.491  16.115  73.115  1.00  0.00    13.770 OA 
HETATM    3  C   UNL     4      -8.234  14.740  72.905  1.00  0.00     8.137 C  
HETATM    4  H   UNL     4      -8.161  16.430  73.949  1.00  0.00     0.000 HD 
HETATM    5  O   UNL     5      -6.561   6.903  64.447  1.00  0.00    -0.041 OA 
HETATM    6  H   UNL     5      -6.349   7.291  63.606  1.00  0.00     0.000 HD 
HETATM    7  C   UNL     5      -7.363   7.773  65.244  1.00  0.00    -0.078 C  
ENDROOT
BRANCH   3   8
HETATM    8  C   UNL     4      -8.766  14.231  71.557  1.00  0.00     6.340 C  
HETATM    9  O   UNL     4      -8.216  12.929  71.280  1.00  0.00     7.629 OA 
HETATM   10  H   UNL     4      -8.545  12.614  70.446  1.00  0.00     0.000 HD 
BRANCH   8  11
HETATM   11  C   UNL     4     -10.305  14.111  71.356  1.00  0.00     3.657 C  
HETATM   12  O   UNL     4     -10.953  15.369  71.208  1.00  0.00    -0.434 OA 
HETATM   13  H   UNL     4     -11.892  15.296  71.085  1.00  0.00     0.000 HD 
BRANCH  11  14
HETATM   14  C   UNL     4     -10.826  13.079  70.319  1.00  0.00     1.392 C  
HETATM   15  H   UNL     4     -10.294  11.274  69.794  1.00  0.00     0.000 HD 
HETATM   16  O   UNL     4      -9.976  11.905  70.429  1.00  0.00     2.598 OA 
BRANCH  14  17
HETATM   17  C   UNL     4     -10.999  13.491  68.829  1.00  0.00    -0.261 C  
HETATM   18  C   UNL     4     -11.957  14.740  68.648  1.00  0.00    -0.257 C  
HETATM   19  H   UNL     4     -11.420  12.620  67.080  1.00  0.00     0.000 HD 
HETATM   20  O   UNL     4     -11.315  12.369  67.990  1.00  0.00    -0.246 OA 
HETATM   21  O   UNL     4     -11.824  15.641  69.579  1.00  0.00    -0.347 OA 
HETATM   22  O   UNL     4     -12.805  14.730  67.713  1.00  0.00     0.771 OA 
ENDBRANCH  14  17
ENDBRANCH  11  14
ENDBRANCH   8  11
ENDBRANCH   3   8
BRANCH   7  23
HETATM   23  C   UNL     5      -7.707   7.143  66.609  1.00  0.00    -0.097 C  
HETATM   24  O   UNL     5      -6.939   5.948  66.757  1.00  0.00    -0.065 OA 
HETATM   25  H   UNL     5      -7.151   5.560  67.598  1.00  0.00     0.000 HD 
BRANCH  23  26
HETATM   26  C   UNL     5      -7.443   8.123  67.773  1.00  0.00    -0.094 C  
HETATM   27  O   UNL     5      -6.419   9.066  67.382  1.00  0.00    -0.062 OA 
HETATM   28  H   UNL     5      -6.256   9.669  68.098  1.00  0.00     0.000 HD 
BRANCH  26  29
HETATM   29  C   UNL     5      -8.659   8.872  68.385  1.00  0.00    -0.134 C  
HETATM   30  O   UNL     5      -8.651  10.270  68.102  1.00  0.00    -0.117 OA 
HETATM   31  H   UNL     5      -9.395  10.728  68.475  1.00  0.00     0.000 HD 
BRANCH  29  32
HETATM   32  C   UNL     5      -9.003   8.601  69.859  1.00  0.00    -0.149 C  
HETATM   33  C   UNL     5      -7.874   7.991  70.716  1.00  0.00    -0.091 C  
HETATM   34  O   UNL     5     -10.219   7.776  69.960  1.00  0.00    -0.202 OA 
HETATM   35  O   UNL     5      -6.689   8.349  70.448  1.00  0.00    -0.036 OA 
HETATM   36  O   UNL     5      -8.290   7.126  71.566  1.00  0.00    -0.110 OA 
HETATM   37  H   UNL     5     -10.432   7.609  70.870  1.00  0.00     0.000 HD 
ENDBRANCH  29  32
ENDBRANCH  26  29
ENDBRANCH  23  26
ENDBRANCH   7  23
TORSDOF 8
ENDMDL
