MODEL        1
REMARK 921   NORMALIZED FREE ENERGY PREDICTED BY IDOCK:   -6.92 KCAL/MOL
REMARK 922        TOTAL FREE ENERGY PREDICTED BY IDOCK:   -9.55 KCAL/MOL
REMARK 923 INTER-LIGAND FREE ENERGY PREDICTED BY IDOCK:   -8.54 KCAL/MOL
REMARK 924 INTRA-LIGAND FREE ENERGY PREDICTED BY IDOCK:   -1.01 KCAL/MOL
REMARK 927      BINDING AFFINITY PREDICTED BY RF-SCORE:    0.00 PKD
ROOT
HETATM    1 MG   UNL     1     -12.458  15.070  69.964  1.00  0.00    -0.275 Mg 
HETATM    2  C   UNL     2     -10.104  11.037  65.300  1.00  0.00    -0.275 C  
HETATM    3  O   UNL     2     -10.397   9.709  65.759  1.00  0.00    -0.194 OA 
HETATM    4  C   UNL     3     -12.160  14.205  66.594  1.00  0.00    -0.451 C  
HETATM    5  H   UNL     2      -7.778  11.695  68.641  1.00  0.00     0.000 HD 
HETATM    6  O   UNL     3     -12.533  12.795  66.725  1.00  0.00    -0.336 OA 
HETATM    7  O   UNL     3     -11.237  13.310  70.016  1.00  0.00    -0.490 OA 
HETATM    8  C   UNL     3     -11.651  14.500  68.005  1.00  0.00    -0.336 C  
HETATM    9  C   UNL     2      -9.777   9.486  66.950  1.00  0.00    -0.182 C  
HETATM   10  O   UNL     2      -8.562  12.697  66.093  1.00  0.00     0.167 OA 
HETATM   11  C   UNL     3     -12.017  12.254  67.856  1.00  0.00    -0.173 C  
HETATM   12  C   UNL     2      -8.966  10.673  67.265  1.00  0.00    -0.136 C  
HETATM   13  O   UNL     2      -8.302  10.928  68.438  1.00  0.00    -0.122 OA 
HETATM   14  O   UNL     2      -9.875   8.475  67.622  1.00  0.00    -0.156 OA 
HETATM   15  C   UNL     2      -9.052  11.554  66.270  1.00  0.00    -0.208 C  
HETATM   16  O   UNL     3     -11.733  15.686  68.434  1.00  0.00    -0.367 OA 
HETATM   17  H   UNL     3     -10.852  14.019  70.518  1.00  0.00     0.000 HD 
HETATM   18  C   UNL     3     -11.421  13.350  68.633  1.00  0.00    -0.310 C  
HETATM   19  O   UNL     3     -12.292  11.176  68.352  1.00  0.00    -0.556 OA 
ENDROOT
BRANCH   2  20
HETATM   20  C   UNL     2      -9.940  11.062  63.774  1.00  0.00    -0.350 C  
HETATM   21  O   UNL     2      -9.520  12.339  63.250  1.00  0.00    -0.657 OA 
HETATM   22  H   UNL     2      -9.419  12.354  62.306  1.00  0.00     0.000 HD 
BRANCH  20  23
HETATM   23  C   UNL     2      -9.035   9.965  63.240  1.00  0.00    -0.257 C  
HETATM   24  H   UNL     2      -7.120   9.544  63.314  1.00  0.00     0.000 HD 
HETATM   25  O   UNL     2      -7.687  10.229  63.648  1.00  0.00    -0.150 OA 
ENDBRANCH  20  23
ENDBRANCH   2  20
BRANCH   4  26
HETATM   26  C   UNL     3     -11.324  14.358  65.295  1.00  0.00    -0.346 C  
HETATM   27  H   UNL     3     -11.606  13.899  63.416  1.00  0.00     0.000 HD 
HETATM   28  O   UNL     3     -12.118  13.806  64.211  1.00  0.00    -0.426 OA 
BRANCH  26  29
HETATM   29  C   UNL     3     -10.796  15.722  64.855  1.00  0.00    -0.413 C  
HETATM   30  O   UNL     3     -11.556  16.287  63.790  1.00  0.00    -1.539 OA 
HETATM   31  H   UNL     3     -11.228  17.135  63.516  1.00  0.00     0.000 HD 
ENDBRANCH  26  29
ENDBRANCH   4  26
TORSDOF 4
ENDMDL
MODEL        2
REMARK 921   NORMALIZED FREE ENERGY PREDICTED BY IDOCK:   -6.69 KCAL/MOL
REMARK 922        TOTAL FREE ENERGY PREDICTED BY IDOCK:   -9.27 KCAL/MOL
REMARK 923 INTER-LIGAND FREE ENERGY PREDICTED BY IDOCK:   -8.34 KCAL/MOL
REMARK 924 INTRA-LIGAND FREE ENERGY PREDICTED BY IDOCK:   -0.92 KCAL/MOL
REMARK 927      BINDING AFFINITY PREDICTED BY RF-SCORE:    0.00 PKD
ROOT
HETATM    1 MG   UNL     1     -13.275  13.757  62.956  1.00  0.00    -0.619 Mg 
HETATM    2  C   UNL     2      -9.107  13.309  68.054  1.00  0.00    -0.202 C  
HETATM    3  O   UNL     2      -8.668  11.942  68.070  1.00  0.00    -0.158 OA 
HETATM    4  C   UNL     3     -10.548  15.010  64.742  1.00  0.00    -0.291 C  
HETATM    5  H   UNL     2     -13.002  12.079  68.626  1.00  0.00     0.000 HD 
HETATM    6  O   UNL     3      -9.791  13.760  64.837  1.00  0.00    -0.212 OA 
HETATM    7  O   UNL     3     -13.075  12.374  64.580  1.00  0.00    -0.825 OA 
HETATM    8  C   UNL     3     -11.969  14.472  64.568  1.00  0.00    -0.468 C  
HETATM    9  C   UNL     2      -9.737  11.117  68.244  1.00  0.00    -0.188 C  
HETATM   10  O   UNL     2     -11.231  14.309  68.552  1.00  0.00    -0.243 OA 
HETATM   11  C   UNL     3     -10.613  12.703  65.048  1.00  0.00    -0.303 C  
HETATM   12  C   UNL     2     -10.928  11.958  68.439  1.00  0.00    -0.232 C  
HETATM   13  O   UNL     2     -12.232  11.536  68.500  1.00  0.00    -0.524 OA 
HETATM   14  O   UNL     2      -9.699   9.900  68.246  1.00  0.00    -0.142 OA 
HETATM   15  C   UNL     2     -10.577  13.242  68.440  1.00  0.00    -0.252 C  
HETATM   16  O   UNL     3     -12.805  15.188  63.945  1.00  0.00    -0.671 OA 
HETATM   17  H   UNL     3     -13.968  12.689  64.495  1.00  0.00     0.000 HD 
HETATM   18  C   UNL     3     -11.994  13.190  64.916  1.00  0.00    -0.388 C  
HETATM   19  O   UNL     3     -10.329  11.520  64.983  1.00  0.00    -0.255 OA 
ENDROOT
BRANCH   2  20
HETATM   20  C   UNL     2      -8.085  14.218  68.750  1.00  0.00    -0.109 C  
HETATM   21  O   UNL     2      -8.635  15.003  69.827  1.00  0.00    -0.447 OA 
HETATM   22  H   UNL     2      -8.003  15.565  70.258  1.00  0.00     0.000 HD 
BRANCH  20  23
HETATM   23  C   UNL     2      -6.845  13.484  69.232  1.00  0.00    -0.051 C  
HETATM   24  H   UNL     2      -5.578  13.663  70.719  1.00  0.00     0.000 HD 
HETATM   25  O   UNL     2      -6.353  14.122  70.418  1.00  0.00    -0.163 OA 
ENDBRANCH  20  23
ENDBRANCH   2  20
BRANCH   4  26
HETATM   26  C   UNL     3     -10.082  15.937  65.897  1.00  0.00    -0.352 C  
HETATM   27  H   UNL     3      -8.345  16.545  66.557  1.00  0.00     0.000 HD 
HETATM   28  O   UNL     3      -8.631  15.978  65.850  1.00  0.00    -0.270 OA 
BRANCH  26  29
HETATM   29  C   UNL     3     -10.597  17.371  66.011  1.00  0.00    -0.210 C  
HETATM   30  O   UNL     3     -11.192  17.838  64.803  1.00  0.00    -0.767 OA 
HETATM   31  H   UNL     3     -11.512  18.729  64.874  1.00  0.00     0.000 HD 
ENDBRANCH  26  29
ENDBRANCH   4  26
TORSDOF 4
ENDMDL
MODEL        3
REMARK 921   NORMALIZED FREE ENERGY PREDICTED BY IDOCK:   -6.43 KCAL/MOL
REMARK 922        TOTAL FREE ENERGY PREDICTED BY IDOCK:   -8.94 KCAL/MOL
REMARK 923 INTER-LIGAND FREE ENERGY PREDICTED BY IDOCK:   -8.09 KCAL/MOL
REMARK 924 INTRA-LIGAND FREE ENERGY PREDICTED BY IDOCK:   -0.85 KCAL/MOL
REMARK 927      BINDING AFFINITY PREDICTED BY RF-SCORE:    0.00 PKD
ROOT
HETATM    1 MG   UNL     1     -10.413  11.062  63.168  1.00  0.00    -0.290 Mg 
HETATM    2  C   UNL     2     -11.030  14.657  68.669  1.00  0.00    -0.256 C  
HETATM    3  O   UNL     2     -11.521  15.935  68.238  1.00  0.00    -0.363 OA 
HETATM    4  C   UNL     3     -11.526  11.366  66.464  1.00  0.00    -0.015 C  
HETATM    5  H   UNL     2      -7.633  15.178  66.389  1.00  0.00     0.000 HD 
HETATM    6  O   UNL     3     -12.223  12.645  66.313  1.00  0.00    -0.562 OA 
HETATM    7  O   UNL     3      -9.808  13.045  63.709  1.00  0.00    -0.730 OA 
HETATM    8  C   UNL     3     -10.511  11.456  65.325  1.00  0.00    -0.283 C  
HETATM    9  C   UNL     2     -10.630  16.507  67.383  1.00  0.00    -0.300 C  
HETATM   10  O   UNL     2      -8.902  13.585  68.380  1.00  0.00    -0.182 OA 
HETATM   11  C   UNL     3     -11.538  13.485  65.500  1.00  0.00    -0.320 C  
HETATM   12  C   UNL     2      -9.455  15.625  67.301  1.00  0.00    -0.216 C  
HETATM   13  O   UNL     2      -8.392  15.748  66.442  1.00  0.00    -0.284 OA 
HETATM   14  O   UNL     2     -10.784  17.566  66.803  1.00  0.00    -0.244 OA 
HETATM   15  C   UNL     2      -9.612  14.589  68.122  1.00  0.00    -0.212 C  
HETATM   16  O   UNL     3     -10.099  10.380  64.806  1.00  0.00    -0.339 OA 
HETATM   17  H   UNL     3      -9.090  12.549  63.333  1.00  0.00     0.000 HD 
HETATM   18  C   UNL     3     -10.426  12.719  64.917  1.00  0.00    -0.321 C  
HETATM   19  O   UNL     3     -11.928  14.535  65.022  1.00  0.00    -0.382 OA 
ENDROOT
BRANCH   2  20
HETATM   20  C   UNL     2     -11.388  14.404  70.140  1.00  0.00    -0.165 C  
HETATM   21  O   UNL     2     -10.555  15.116  71.077  1.00  0.00    -0.515 OA 
HETATM   22  H   UNL     2     -10.775  14.960  71.988  1.00  0.00     0.000 HD 
BRANCH  20  23
HETATM   23  C   UNL     2     -12.852  14.651  70.464  1.00  0.00    -0.317 C  
HETATM   24  H   UNL     2     -13.869  15.935  71.542  1.00  0.00     0.000 HD 
HETATM   25  O   UNL     2     -12.954  15.781  71.339  1.00  0.00    -0.478 OA 
ENDBRANCH  20  23
ENDBRANCH   2  20
BRANCH   4  26
HETATM   26  C   UNL     3     -11.169  11.193  67.965  1.00  0.00    -0.296 C  
HETATM   27  H   UNL     3     -12.191  10.824  69.590  1.00  0.00     0.000 HD 
HETATM   28  O   UNL     3     -12.410  10.929  68.671  1.00  0.00    -0.501 OA 
BRANCH  26  29
HETATM   29  C   UNL     3     -10.135  10.162  68.414  1.00  0.00    -0.164 C  
HETATM   30  O   UNL     3      -9.198  10.695  69.346  1.00  0.00    -0.355 OA 
HETATM   31  H   UNL     3      -8.554  10.054  69.624  1.00  0.00     0.000 HD 
ENDBRANCH  26  29
ENDBRANCH   4  26
TORSDOF 4
ENDMDL
MODEL        4
REMARK 921   NORMALIZED FREE ENERGY PREDICTED BY IDOCK:   -6.25 KCAL/MOL
REMARK 922        TOTAL FREE ENERGY PREDICTED BY IDOCK:   -8.73 KCAL/MOL
REMARK 923 INTER-LIGAND FREE ENERGY PREDICTED BY IDOCK:   -7.49 KCAL/MOL
REMARK 924 INTRA-LIGAND FREE ENERGY PREDICTED BY IDOCK:   -1.23 KCAL/MOL
REMARK 927      BINDING AFFINITY PREDICTED BY RF-SCORE:    0.00 PKD
ROOT
HETATM    1 MG   UNL     1      -9.900  18.988  65.499  1.00  0.00    -0.317 Mg 
HETATM    2  C   UNL     2     -10.741  12.659  67.171  1.00  0.00    -0.241 C  
HETATM    3  O   UNL     2     -10.689  11.927  65.938  1.00  0.00    -0.265 OA 
HETATM    4  C   UNL     3      -9.084  16.273  67.537  1.00  0.00    -0.192 C  
HETATM    5  H   UNL     2     -14.023  14.752  65.808  1.00  0.00     0.000 HD 
HETATM    6  O   UNL     3      -8.850  15.297  66.471  1.00  0.00    -0.276 OA 
HETATM    7  O   UNL     3     -11.154  17.420  64.752  1.00  0.00    -0.973 OA 
HETATM    8  C   UNL     3     -10.025  17.250  66.831  1.00  0.00    -0.294 C  
HETATM    9  C   UNL     2     -11.686  12.346  65.110  1.00  0.00    -0.382 C  
HETATM   10  O   UNL     2     -12.374  14.179  68.058  1.00  0.00    -0.233 OA 
HETATM   11  C   UNL     3      -9.745  15.446  65.464  1.00  0.00    -0.283 C  
HETATM   12  C   UNL     2     -12.494  13.335  65.844  1.00  0.00    -0.368 C  
HETATM   13  O   UNL     2     -13.501  14.114  65.334  1.00  0.00    -0.648 OA 
HETATM   14  O   UNL     2     -11.872  11.958  63.972  1.00  0.00    -0.383 OA 
HETATM   15  C   UNL     2     -12.032  13.461  67.086  1.00  0.00    -0.366 C  
HETATM   16  O   UNL     3     -10.032  18.454  67.214  1.00  0.00    -0.309 OA 
HETATM   17  H   UNL     3     -11.650  18.211  64.929  1.00  0.00     0.000 HD 
HETATM   18  C   UNL     3     -10.512  16.670  65.738  1.00  0.00    -0.311 C  
HETATM   19  O   UNL     3      -9.710  14.931  64.361  1.00  0.00     0.508 OA 
ENDROOT
BRANCH   2  20
HETATM   20  C   UNL     2     -10.378  11.755  68.357  1.00  0.00    -0.214 C  
HETATM   21  O   UNL     2     -10.819  12.258  69.635  1.00  0.00    -0.453 OA 
HETATM   22  H   UNL     2     -10.594  11.699  70.369  1.00  0.00     0.000 HD 
BRANCH  20  23
HETATM   23  C   UNL     2     -10.834  10.315  68.188  1.00  0.00    -0.265 C  
HETATM   24  H   UNL     2      -9.969   8.559  68.065  1.00  0.00     0.000 HD 
HETATM   25  O   UNL     2      -9.685   9.459  68.171  1.00  0.00    -0.141 OA 
ENDBRANCH  20  23
ENDBRANCH   2  20
BRANCH   4  26
HETATM   26  C   UNL     3      -9.423  15.490  68.834  1.00  0.00    -0.223 C  
HETATM   27  H   UNL     3      -8.368  14.638  70.242  1.00  0.00     0.000 HD 
HETATM   28  O   UNL     3      -8.161  15.118  69.449  1.00  0.00    -0.208 OA 
BRANCH  26  29
HETATM   29  C   UNL     3     -10.318  16.100  69.912  1.00  0.00    -0.209 C  
HETATM   30  O   UNL     3     -10.952  15.114  70.722  1.00  0.00    -0.447 OA 
HETATM   31  H   UNL     3     -11.508  15.494  71.391  1.00  0.00     0.000 HD 
ENDBRANCH  26  29
ENDBRANCH   4  26
TORSDOF 4
ENDMDL
MODEL        5
REMARK 921   NORMALIZED FREE ENERGY PREDICTED BY IDOCK:   -6.20 KCAL/MOL
REMARK 922        TOTAL FREE ENERGY PREDICTED BY IDOCK:   -8.67 KCAL/MOL
REMARK 923 INTER-LIGAND FREE ENERGY PREDICTED BY IDOCK:   -7.36 KCAL/MOL
REMARK 924 INTRA-LIGAND FREE ENERGY PREDICTED BY IDOCK:   -1.31 KCAL/MOL
REMARK 927      BINDING AFFINITY PREDICTED BY RF-SCORE:    0.00 PKD
ROOT
HETATM    1 MG   UNL     1      -9.575  21.023  66.522  1.00  0.00    -0.533 Mg 
HETATM    2  C   UNL     2      -9.167  14.467  67.168  1.00  0.00    -0.223 C  
HETATM    3  O   UNL     2     -10.235  13.937  66.370  1.00  0.00    -0.278 OA 
HETATM    4  C   UNL     3      -7.659  18.104  66.505  1.00  0.00    -0.241 C  
HETATM    5  H   UNL     2     -11.899  16.476  69.515  1.00  0.00     0.000 HD 
HETATM    6  O   UNL     3      -8.510  17.322  65.606  1.00  0.00    -0.475 OA 
HETATM    7  O   UNL     3     -11.011  19.492  66.951  1.00  0.00    -0.462 OA 
HETATM    8  C   UNL     3      -8.674  19.099  67.069  1.00  0.00    -0.294 C  
HETATM    9  C   UNL     2     -11.430  14.396  66.834  1.00  0.00    -0.366 C  
HETATM   10  O   UNL     2      -9.174  15.701  69.227  1.00  0.00    -0.237 OA 
HETATM   11  C   UNL     3      -9.823  17.550  65.850  1.00  0.00    -0.094 C  
HETATM   12  C   UNL     2     -11.166  15.195  68.042  1.00  0.00    -0.323 C  
HETATM   13  O   UNL     2     -12.070  15.960  68.735  1.00  0.00    -0.297 OA 
HETATM   14  O   UNL     2     -12.518  14.171  66.336  1.00  0.00    -0.461 OA 
HETATM   15  C   UNL     2      -9.865  15.168  68.324  1.00  0.00    -0.223 C  
HETATM   16  O   UNL     3      -8.254  20.227  67.453  1.00  0.00    -0.325 OA 
HETATM   17  H   UNL     3     -11.061  20.205  67.576  1.00  0.00     0.000 HD 
HETATM   18  C   UNL     3      -9.902  18.655  66.818  1.00  0.00    -0.341 C  
HETATM   19  O   UNL     3     -10.773  17.213  65.166  1.00  0.00    -0.680 OA 
ENDROOT
BRANCH   2  20
HETATM   20  C   UNL     2      -8.055  13.425  67.351  1.00  0.00    -0.172 C  
HETATM   21  O   UNL     2      -7.234  13.642  68.517  1.00  0.00    -0.096 OA 
HETATM   22  H   UNL     2      -6.546  12.998  68.630  1.00  0.00     0.000 HD 
BRANCH  20  23
HETATM   23  C   UNL     2      -8.555  11.991  67.335  1.00  0.00    -0.171 C  
HETATM   24  H   UNL     2      -9.505  10.805  68.576  1.00  0.00     0.000 HD 
HETATM   25  O   UNL     2      -9.192  11.702  68.586  1.00  0.00    -0.179 OA 
ENDBRANCH  20  23
ENDBRANCH   2  20
BRANCH   4  26
HETATM   26  C   UNL     3      -6.821  17.109  67.353  1.00  0.00    -0.153 C  
HETATM   27  H   UNL     3      -5.223  16.031  67.029  1.00  0.00     0.000 HD 
HETATM   28  O   UNL     3      -5.735  16.640  66.510  1.00  0.00    -0.333 OA 
BRANCH  26  29
HETATM   29  C   UNL     3      -6.235  17.523  68.701  1.00  0.00    -0.181 C  
HETATM   30  O   UNL     3      -6.471  16.556  69.722  1.00  0.00    -0.218 OA 
HETATM   31  H   UNL     3      -6.107  16.814  70.560  1.00  0.00     0.000 HD 
ENDBRANCH  26  29
ENDBRANCH   4  26
TORSDOF 4
ENDMDL
MODEL        6
REMARK 921   NORMALIZED FREE ENERGY PREDICTED BY IDOCK:   -5.99 KCAL/MOL
REMARK 922        TOTAL FREE ENERGY PREDICTED BY IDOCK:   -8.40 KCAL/MOL
REMARK 923 INTER-LIGAND FREE ENERGY PREDICTED BY IDOCK:   -7.23 KCAL/MOL
REMARK 924 INTRA-LIGAND FREE ENERGY PREDICTED BY IDOCK:   -1.16 KCAL/MOL
REMARK 927      BINDING AFFINITY PREDICTED BY RF-SCORE:    0.00 PKD
ROOT
HETATM    1 MG   UNL     1     -10.568   9.354  68.510  1.00  0.00    -0.177 Mg 
HETATM    2  C   UNL     2      -9.479  15.669  66.929  1.00  0.00    -0.229 C  
HETATM    3  O   UNL     2      -8.283  16.038  67.630  1.00  0.00    -0.143 OA 
HETATM    4  C   UNL     3     -10.327  11.859  66.089  1.00  0.00    -0.226 C  
HETATM    5  H   UNL     2     -11.351  14.868  70.516  1.00  0.00     0.000 HD 
HETATM    6  O   UNL     3      -9.035  12.406  66.508  1.00  0.00    -0.207 OA 
HETATM    7  O   UNL     3     -10.106  11.103  69.658  1.00  0.00    -0.432 OA 
HETATM    8  C   UNL     3     -10.809  11.229  67.397  1.00  0.00    -0.262 C  
HETATM    9  C   UNL     2      -8.473  15.901  68.972  1.00  0.00    -0.242 C  
HETATM   10  O   UNL     2     -11.696  15.175  67.705  1.00  0.00    -0.329 OA 
HETATM   11  C   UNL     3      -8.925  12.428  67.858  1.00  0.00    -0.184 C  
HETATM   12  C   UNL     2      -9.874  15.508  69.189  1.00  0.00    -0.246 C  
HETATM   13  O   UNL     2     -10.446  15.122  70.375  1.00  0.00    -0.208 OA 
HETATM   14  O   UNL     2      -7.628  16.082  69.829  1.00  0.00    -0.077 OA 
HETATM   15  C   UNL     2     -10.517  15.468  68.023  1.00  0.00    -0.259 C  
HETATM   16  O   UNL     3     -11.597  10.243  67.328  1.00  0.00    -0.142 OA 
HETATM   17  H   UNL     3     -10.858  10.641  70.010  1.00  0.00     0.000 HD 
HETATM   18  C   UNL     3     -10.088  11.713  68.403  1.00  0.00    -0.206 C  
HETATM   19  O   UNL     3      -7.922  12.639  68.516  1.00  0.00    -0.141 OA 
ENDROOT
BRANCH   2  20
HETATM   20  C   UNL     2      -9.695  16.572  65.707  1.00  0.00    -0.202 C  
HETATM   21  O   UNL     2     -10.576  16.013  64.712  1.00  0.00    -0.670 OA 
HETATM   22  H   UNL     2     -10.709  16.572  63.956  1.00  0.00     0.000 HD 
BRANCH  20  23
HETATM   23  C   UNL     2     -10.149  17.979  66.062  1.00  0.00    -0.266 C  
HETATM   24  H   UNL     2      -9.325  19.757  66.142  1.00  0.00     0.000 HD 
HETATM   25  O   UNL     2      -9.042  18.878  65.921  1.00  0.00    -0.454 OA 
ENDBRANCH  20  23
ENDBRANCH   2  20
BRANCH   4  26
HETATM   26  C   UNL     3     -11.081  12.966  65.303  1.00  0.00    -0.284 C  
HETATM   27  H   UNL     3     -10.914  13.739  63.515  1.00  0.00     0.000 HD 
HETATM   28  O   UNL     3     -10.453  13.061  63.996  1.00  0.00    -0.418 OA 
BRANCH  26  29
HETATM   29  C   UNL     3     -12.593  12.899  65.104  1.00  0.00    -0.471 C  
HETATM   30  O   UNL     3     -13.226  14.163  65.279  1.00  0.00    -0.760 OA 
HETATM   31  H   UNL     3     -14.167  14.122  65.156  1.00  0.00     0.000 HD 
ENDBRANCH  26  29
ENDBRANCH   4  26
TORSDOF 4
ENDMDL
MODEL        7
REMARK 921   NORMALIZED FREE ENERGY PREDICTED BY IDOCK:   -5.94 KCAL/MOL
REMARK 922        TOTAL FREE ENERGY PREDICTED BY IDOCK:   -8.34 KCAL/MOL
REMARK 923 INTER-LIGAND FREE ENERGY PREDICTED BY IDOCK:   -7.53 KCAL/MOL
REMARK 924 INTRA-LIGAND FREE ENERGY PREDICTED BY IDOCK:   -0.81 KCAL/MOL
REMARK 927      BINDING AFFINITY PREDICTED BY RF-SCORE:    0.00 PKD
ROOT
HETATM    1 MG   UNL     1     -12.223  14.782  71.298  1.00  0.00    -0.257 Mg 
HETATM    2  C   UNL     2     -10.447  13.288  65.119  1.00  0.00    -0.333 C  
HETATM    3  O   UNL     2     -10.291  14.548  64.450  1.00  0.00    -0.141 OA 
HETATM    4  C   UNL     3     -10.205  12.977  69.092  1.00  0.00     0.249 C  
HETATM    5  H   UNL     2     -14.417  14.144  65.837  1.00  0.00     0.000 HD 
HETATM    6  O   UNL     3      -9.770  14.105  68.265  1.00  0.00    -0.215 OA 
HETATM    7  O   UNL     3     -12.898  15.433  69.371  1.00  0.00    -0.465 OA 
HETATM    8  C   UNL     3     -11.524  13.519  69.645  1.00  0.00    -0.217 C  
HETATM    9  C   UNL     2     -11.472  15.227  64.464  1.00  0.00    -0.315 C  
HETATM   10  O   UNL     2     -12.393  12.142  65.931  1.00  0.00    -0.561 OA 
HETATM   11  C   UNL     3     -10.780  14.986  68.065  1.00  0.00    -0.262 C  
HETATM   12  C   UNL     2     -12.483  14.358  65.087  1.00  0.00    -0.357 C  
HETATM   13  O   UNL     2     -13.764  14.705  65.434  1.00  0.00     0.002 OA 
HETATM   14  O   UNL     2     -11.649  16.350  64.027  1.00  0.00    -1.071 OA 
HETATM   15  C   UNL     2     -11.941  13.179  65.384  1.00  0.00    -0.406 C  
HETATM   16  O   UNL     3     -11.923  13.087  70.764  1.00  0.00    -0.267 OA 
HETATM   17  H   UNL     3     -13.622  15.162  69.923  1.00  0.00     0.000 HD 
HETATM   18  C   UNL     3     -11.901  14.567  68.919  1.00  0.00    -0.324 C  
HETATM   19  O   UNL     3     -10.702  16.106  67.592  1.00  0.00    -0.313 OA 
ENDROOT
BRANCH   2  20
HETATM   20  C   UNL     2      -9.625  12.196  64.421  1.00  0.00     0.078 C  
HETATM   21  O   UNL     2      -8.757  11.459  65.306  1.00  0.00    -0.386 OA 
HETATM   22  H   UNL     2      -8.248  10.784  64.874  1.00  0.00     0.000 HD 
BRANCH  20  23
HETATM   23  C   UNL     2     -10.465  11.229  63.603  1.00  0.00    -0.405 C  
HETATM   24  H   UNL     2     -10.138   9.918  62.181  1.00  0.00     0.000 HD 
HETATM   25  O   UNL     2      -9.613  10.523  62.692  1.00  0.00    -0.301 OA 
ENDBRANCH  20  23
ENDBRANCH   2  20
BRANCH   4  26
HETATM   26  C   UNL     3     -10.059  11.682  68.247  1.00  0.00    -0.202 C  
HETATM   27  H   UNL     3      -8.554  10.565  67.692  1.00  0.00     0.000 HD 
HETATM   28  O   UNL     3      -8.644  11.357  68.209  1.00  0.00    -0.143 OA 
BRANCH  26  29
HETATM   29  C   UNL     3     -10.832  10.416  68.608  1.00  0.00    -0.232 C  
HETATM   30  O   UNL     3     -12.161  10.419  68.093  1.00  0.00    -0.688 OA 
HETATM   31  H   UNL     3     -12.642   9.631  68.317  1.00  0.00     0.000 HD 
ENDBRANCH  26  29
ENDBRANCH   4  26
TORSDOF 4
ENDMDL
MODEL        8
REMARK 921   NORMALIZED FREE ENERGY PREDICTED BY IDOCK:   -5.94 KCAL/MOL
REMARK 922        TOTAL FREE ENERGY PREDICTED BY IDOCK:   -8.34 KCAL/MOL
REMARK 923 INTER-LIGAND FREE ENERGY PREDICTED BY IDOCK:   -7.82 KCAL/MOL
REMARK 924 INTRA-LIGAND FREE ENERGY PREDICTED BY IDOCK:   -0.52 KCAL/MOL
REMARK 927      BINDING AFFINITY PREDICTED BY RF-SCORE:    0.00 PKD
ROOT
HETATM    1 MG   UNL     1     -10.811  16.970  70.865  1.00  0.00    -0.227 Mg 
HETATM    2  C   UNL     2     -10.586  12.631  65.896  1.00  0.00    -0.273 C  
HETATM    3  O   UNL     2     -11.485  11.576  66.268  1.00  0.00    -0.342 OA 
HETATM    4  C   UNL     3     -10.902  16.299  67.439  1.00  0.00    -0.242 C  
HETATM    5  H   UNL     2      -8.289  11.868  69.236  1.00  0.00     0.000 HD 
HETATM    6  O   UNL     3     -11.905  15.234  67.479  1.00  0.00    -0.241 OA 
HETATM    7  O   UNL     3     -10.581  14.841  70.775  1.00  0.00    -0.490 OA 
HETATM    8  C   UNL     3     -10.339  16.218  68.858  1.00  0.00    -0.263 C  
HETATM    9  C   UNL     2     -11.069  11.003  67.431  1.00  0.00    -0.305 C  
HETATM   10  O   UNL     2      -8.453  13.293  66.775  1.00  0.00    -0.115 OA 
HETATM   11  C   UNL     3     -11.732  14.436  68.561  1.00  0.00    -0.335 C  
HETATM   12  C   UNL     2      -9.795  11.634  67.813  1.00  0.00    -0.179 C  
HETATM   13  O   UNL     2      -9.112  11.460  68.989  1.00  0.00    -0.069 OA 
HETATM   14  O   UNL     2     -11.650  10.119  68.033  1.00  0.00    -0.253 OA 
HETATM   15  C   UNL     2      -9.432  12.514  66.882  1.00  0.00    -0.219 C  
HETATM   16  O   UNL     3      -9.853  17.267  69.368  1.00  0.00    -0.127 OA 
HETATM   17  H   UNL     3      -9.913  15.244  71.318  1.00  0.00     0.000 HD 
HETATM   18  C   UNL     3     -10.698  15.059  69.402  1.00  0.00    -0.261 C  
HETATM   19  O   UNL     3     -12.497  13.589  68.987  1.00  0.00    -0.141 OA 
ENDROOT
BRANCH   2  20
HETATM   20  C   UNL     2     -10.401  12.678  64.373  1.00  0.00    -0.360 C  
HETATM   21  O   UNL     2      -9.575  11.619  63.849  1.00  0.00    -0.393 OA 
HETATM   22  H   UNL     2      -9.461  11.648  62.906  1.00  0.00     0.000 HD 
BRANCH  20  23
HETATM   23  C   UNL     2     -11.709  12.739  63.602  1.00  0.00    -0.519 C  
HETATM   24  H   UNL     2     -13.344  13.821  63.664  1.00  0.00     0.000 HD 
HETATM   25  O   UNL     2     -12.527  13.783  64.146  1.00  0.00    -0.652 OA 
ENDBRANCH  20  23
ENDBRANCH   2  20
BRANCH   4  26
HETATM   26  C   UNL     3     -10.071  16.122  66.139  1.00  0.00    -0.338 C  
HETATM   27  H   UNL     3     -10.201  16.818  64.317  1.00  0.00     0.000 HD 
HETATM   28  O   UNL     3     -10.710  16.927  65.113  1.00  0.00    -0.663 OA 
BRANCH  26  29
HETATM   29  C   UNL     3      -8.573  16.419  66.117  1.00  0.00    -0.308 C  
HETATM   30  O   UNL     3      -8.278  17.710  65.591  1.00  0.00    -0.501 OA 
HETATM   31  H   UNL     3      -7.346  17.895  65.576  1.00  0.00     0.000 HD 
ENDBRANCH  26  29
ENDBRANCH   4  26
TORSDOF 4
ENDMDL
MODEL        9
REMARK 921   NORMALIZED FREE ENERGY PREDICTED BY IDOCK:   -5.90 KCAL/MOL
REMARK 922        TOTAL FREE ENERGY PREDICTED BY IDOCK:   -8.29 KCAL/MOL
REMARK 923 INTER-LIGAND FREE ENERGY PREDICTED BY IDOCK:   -7.22 KCAL/MOL
REMARK 924 INTRA-LIGAND FREE ENERGY PREDICTED BY IDOCK:   -1.07 KCAL/MOL
REMARK 927      BINDING AFFINITY PREDICTED BY RF-SCORE:    0.00 PKD
ROOT
HETATM    1 MG   UNL     1      -9.978  16.817  69.216  1.00  0.00    -0.213 Mg 
HETATM    2  C   UNL     2     -10.322  12.048  64.665  1.00  0.00    -0.287 C  
HETATM    3  O   UNL     2     -10.762  12.697  63.464  1.00  0.00    -0.417 OA 
HETATM    4  C   UNL     3      -8.538  14.071  67.609  1.00  0.00    -0.188 C  
HETATM    5  H   UNL     2     -13.809  13.166  66.563  1.00  0.00     0.000 HD 
HETATM    6  O   UNL     3      -8.754  14.521  66.232  1.00  0.00    -0.055 OA 
HETATM    7  O   UNL     3     -11.470  16.246  67.787  1.00  0.00    -0.162 OA 
HETATM    8  C   UNL     3      -9.645  14.834  68.337  1.00  0.00    -0.213 C  
HETATM    9  C   UNL     2     -11.984  13.263  63.666  1.00  0.00    -0.486 C  
HETATM   10  O   UNL     2     -11.451  11.577  66.730  1.00  0.00    -0.436 OA 
HETATM   11  C   UNL     3      -9.958  15.129  66.097  1.00  0.00    -0.295 C  
HETATM   12  C   UNL     2     -12.424  12.909  65.025  1.00  0.00    -0.492 C  
HETATM   13  O   UNL     2     -13.525  13.394  65.685  1.00  0.00    -0.325 OA 
HETATM   14  O   UNL     2     -12.598  13.932  62.855  1.00  0.00    -0.580 OA 
HETATM   15  C   UNL     2     -11.523  12.112  65.596  1.00  0.00    -0.355 C  
HETATM   16  O   UNL     3      -9.469  15.122  69.555  1.00  0.00    -0.212 OA 
HETATM   17  H   UNL     3     -11.837  16.342  68.658  1.00  0.00     0.000 HD 
HETATM   18  C   UNL     3     -10.526  15.277  67.445  1.00  0.00    -0.270 C  
HETATM   19  O   UNL     3     -10.358  15.775  65.146  1.00  0.00    -0.425 OA 
ENDROOT
BRANCH   2  20
HETATM   20  C   UNL     2      -9.566  10.753  64.339  1.00  0.00    -0.279 C  
HETATM   21  O   UNL     2      -9.922   9.638  65.182  1.00  0.00    -0.416 OA 
HETATM   22  H   UNL     2      -9.455   8.836  64.981  1.00  0.00     0.000 HD 
BRANCH  20  23
HETATM   23  C   UNL     2      -9.660  10.342  62.879  1.00  0.00    -0.295 C  
HETATM   24  H   UNL     2      -8.853   8.967  61.737  1.00  0.00     0.000 HD 
HETATM   25  O   UNL     2      -8.795   9.224  62.650  1.00  0.00    -0.234 OA 
ENDBRANCH  20  23
ENDBRANCH   2  20
BRANCH   4  26
HETATM   26  C   UNL     3      -8.386  12.526  67.588  1.00  0.00    -0.172 C  
HETATM   27  H   UNL     3      -7.035  11.286  66.911  1.00  0.00     0.000 HD 
HETATM   28  O   UNL     3      -7.128  12.232  66.924  1.00  0.00    -0.081 OA 
BRANCH  26  29
HETATM   29  C   UNL     3      -8.449  11.711  68.878  1.00  0.00     0.058 C  
HETATM   30  O   UNL     3      -9.769  11.272  69.185  1.00  0.00    -0.392 OA 
HETATM   31  H   UNL     3      -9.809  10.766  69.988  1.00  0.00     0.000 HD 
ENDBRANCH  26  29
ENDBRANCH   4  26
TORSDOF 4
ENDMDL
MODEL       10
REMARK 921   NORMALIZED FREE ENERGY PREDICTED BY IDOCK:   -5.88 KCAL/MOL
REMARK 922        TOTAL FREE ENERGY PREDICTED BY IDOCK:   -8.27 KCAL/MOL
REMARK 923 INTER-LIGAND FREE ENERGY PREDICTED BY IDOCK:   -7.15 KCAL/MOL
REMARK 924 INTRA-LIGAND FREE ENERGY PREDICTED BY IDOCK:   -1.12 KCAL/MOL
REMARK 927      BINDING AFFINITY PREDICTED BY RF-SCORE:    0.00 PKD
ROOT
HETATM    1 MG   UNL     1     -12.436  12.252  67.153  1.00  0.00    -0.316 Mg 
HETATM    2  C   UNL     2      -8.631  17.604  67.812  1.00  0.00    -0.228 C  
HETATM    3  O   UNL     2      -9.516  18.654  68.229  1.00  0.00    -0.309 OA 
HETATM    4  C   UNL     3      -9.530  13.755  68.373  1.00  0.00    -0.198 C  
HETATM    5  H   UNL     2     -10.770  17.172  64.313  1.00  0.00     0.000 HD 
HETATM    6  O   UNL     3     -10.165  14.913  69.006  1.00  0.00    -0.232 OA 
HETATM    7  O   UNL     3     -12.613  14.279  66.480  1.00  0.00    -0.545 OA 
HETATM    8  C   UNL     3     -10.573  13.400  67.313  1.00  0.00    -0.255 C  
HETATM    9  C   UNL     2     -10.473  18.854  67.282  1.00  0.00    -0.439 C  
HETATM   10  O   UNL     2      -8.408  16.440  65.725  1.00  0.00    -0.278 OA 
HETATM   11  C   UNL     3     -11.189  15.384  68.254  1.00  0.00    -0.323 C  
HETATM   12  C   UNL     2     -10.173  17.969  66.145  1.00  0.00    -0.363 C  
HETATM   13  O   UNL     2     -10.964  17.744  65.047  1.00  0.00    -0.784 OA 
HETATM   14  O   UNL     2     -11.402  19.637  67.368  1.00  0.00    -0.154 OA 
HETATM   15  C   UNL     2      -9.044  17.303  66.379  1.00  0.00    -0.253 C  
HETATM   16  O   UNL     3     -10.649  12.198  66.931  1.00  0.00    -0.222 OA 
HETATM   17  H   UNL     3     -12.749  13.661  65.772  1.00  0.00     0.000 HD 
HETATM   18  C   UNL     3     -11.401  14.428  67.156  1.00  0.00    -0.343 C  
HETATM   19  O   UNL     3     -12.031  16.201  68.579  1.00  0.00    -0.214 OA 
ENDROOT
BRANCH   2  20
HETATM   20  C   UNL     2      -7.187  17.909  68.235  1.00  0.00    -0.236 C  
HETATM   21  O   UNL     2      -6.217  16.969  67.730  1.00  0.00    -0.130 OA 
HETATM   22  H   UNL     2      -5.324  17.157  67.992  1.00  0.00     0.000 HD 
BRANCH  20  23
HETATM   23  C   UNL     2      -6.743  19.326  67.914  1.00  0.00    -0.229 C  
HETATM   24  H   UNL     2      -5.995  20.839  68.913  1.00  0.00     0.000 HD 
HETATM   25  O   UNL     2      -6.272  19.953  69.113  1.00  0.00    -0.275 OA 
ENDBRANCH  20  23
ENDBRANCH   2  20
BRANCH   4  26
HETATM   26  C   UNL     3      -8.051  14.125  68.079  1.00  0.00    -0.149 C  
HETATM   27  H   UNL     3      -6.587  14.883  69.130  1.00  0.00     0.000 HD 
HETATM   28  O   UNL     3      -7.493  14.657  69.310  1.00  0.00    -0.146 OA 
BRANCH  26  29
HETATM   29  C   UNL     3      -7.077  13.089  67.520  1.00  0.00    -0.154 C  
HETATM   30  O   UNL     3      -7.665  12.271  66.513  1.00  0.00    -0.379 OA 
HETATM   31  H   UNL     3      -7.060  11.627  66.165  1.00  0.00     0.000 HD 
ENDBRANCH  26  29
ENDBRANCH   4  26
TORSDOF 4
ENDMDL
MODEL       11
REMARK 921   NORMALIZED FREE ENERGY PREDICTED BY IDOCK:   -5.88 KCAL/MOL
REMARK 922        TOTAL FREE ENERGY PREDICTED BY IDOCK:   -8.26 KCAL/MOL
REMARK 923 INTER-LIGAND FREE ENERGY PREDICTED BY IDOCK:   -7.63 KCAL/MOL
REMARK 924 INTRA-LIGAND FREE ENERGY PREDICTED BY IDOCK:   -0.63 KCAL/MOL
REMARK 927      BINDING AFFINITY PREDICTED BY RF-SCORE:    0.00 PKD
ROOT
HETATM    1 MG   UNL     1     -13.035  14.807  69.953  1.00  0.00    -0.385 Mg 
HETATM    2  C   UNL     2      -9.544  11.019  65.828  1.00  0.00    -0.222 C  
HETATM    3  O   UNL     2      -9.886   9.667  66.167  1.00  0.00    -0.227 OA 
HETATM    4  C   UNL     3     -11.950  14.079  66.715  1.00  0.00    -0.444 C  
HETATM    5  H   UNL     2      -8.062  11.613  69.631  1.00  0.00     0.000 HD 
HETATM    6  O   UNL     3     -12.293  12.655  66.714  1.00  0.00    -0.450 OA 
HETATM    7  O   UNL     3     -11.797  13.080  70.228  1.00  0.00    -0.481 OA 
HETATM    8  C   UNL     3     -11.785  14.333  68.214  1.00  0.00    -0.342 C  
HETATM    9  C   UNL     2      -9.545   9.416  67.461  1.00  0.00    -0.141 C  
HETATM   10  O   UNL     2      -8.281  12.688  67.002  1.00  0.00    -0.171 OA 
HETATM   11  C   UNL     3     -12.029  12.085  67.916  1.00  0.00    -0.134 C  
HETATM   12  C   UNL     2      -8.870  10.612  67.989  1.00  0.00    -0.130 C  
HETATM   13  O   UNL     2      -8.499  10.840  69.290  1.00  0.00    -0.135 OA 
HETATM   14  O   UNL     2      -9.759   8.378  68.061  1.00  0.00    -0.150 OA 
HETATM   15  C   UNL     2      -8.758  11.527  67.028  1.00  0.00    -0.169 C  
HETATM   16  O   UNL     3     -12.004  15.500  68.648  1.00  0.00    -0.335 OA 
HETATM   17  H   UNL     3     -11.562  13.780  70.826  1.00  0.00     0.000 HD 
HETATM   18  C   UNL     3     -11.664  13.168  68.842  1.00  0.00    -0.326 C  
HETATM   19  O   UNL     3     -12.372  10.983  68.303  1.00  0.00    -0.479 OA 
ENDROOT
BRANCH   2  20
HETATM   20  C   UNL     2      -9.038  11.106  64.381  1.00  0.00    -0.043 C  
HETATM   21  O   UNL     2      -7.614  10.924  64.245  1.00  0.00    -0.331 OA 
HETATM   22  H   UNL     2      -7.301  10.978  63.350  1.00  0.00     0.000 HD 
BRANCH  20  23
HETATM   23  C   UNL     2      -9.768  10.180  63.423  1.00  0.00    -0.067 C  
HETATM   24  H   UNL     2      -9.270   8.755  62.171  1.00  0.00     0.000 HD 
HETATM   25  O   UNL     2      -8.814   9.334  62.770  1.00  0.00    -0.233 OA 
ENDBRANCH  20  23
ENDBRANCH   2  20
BRANCH   4  26
HETATM   26  C   UNL     3     -10.846  14.303  65.646  1.00  0.00    -0.309 C  
HETATM   27  H   UNL     3     -10.609  13.770  63.781  1.00  0.00     0.000 HD 
HETATM   28  O   UNL     3     -11.285  13.633  64.435  1.00  0.00    -0.370 OA 
BRANCH  26  29
HETATM   29  C   UNL     3     -10.385  15.711  65.275  1.00  0.00    -0.375 C  
HETATM   30  O   UNL     3     -11.091  16.241  64.155  1.00  0.00    -1.187 OA 
HETATM   31  H   UNL     3     -10.804  17.116  63.924  1.00  0.00     0.000 HD 
ENDBRANCH  26  29
ENDBRANCH   4  26
TORSDOF 4
ENDMDL
MODEL       12
REMARK 921   NORMALIZED FREE ENERGY PREDICTED BY IDOCK:   -5.86 KCAL/MOL
REMARK 922        TOTAL FREE ENERGY PREDICTED BY IDOCK:   -8.24 KCAL/MOL
REMARK 923 INTER-LIGAND FREE ENERGY PREDICTED BY IDOCK:   -6.96 KCAL/MOL
REMARK 924 INTRA-LIGAND FREE ENERGY PREDICTED BY IDOCK:   -1.28 KCAL/MOL
REMARK 927      BINDING AFFINITY PREDICTED BY RF-SCORE:    0.00 PKD
ROOT
HETATM    1 MG   UNL     1      -6.185  10.440  70.302  1.00  0.00    -0.046 Mg 
HETATM    2  C   UNL     2     -10.240  13.622  66.179  1.00  0.00    -0.304 C  
HETATM    3  O   UNL     2      -9.454  14.680  65.610  1.00  0.00    -0.246 OA 
HETATM    4  C   UNL     3      -8.550  10.356  67.734  1.00  0.00    -0.122 C  
HETATM    5  H   UNL     2      -9.674  15.208  69.943  1.00  0.00     0.000 HD 
HETATM    6  O   UNL     3      -7.919  11.348  66.860  1.00  0.00    -0.147 OA 
HETATM    7  O   UNL     3      -6.646  12.509  69.991  1.00  0.00    -0.357 OA 
HETATM    8  C   UNL     3      -7.986  10.771  69.093  1.00  0.00    -0.134 C  
HETATM    9  C   UNL     2      -9.016  15.511  66.596  1.00  0.00    -0.287 C  
HETATM   10  O   UNL     2     -11.093  13.283  68.396  1.00  0.00    -0.245 OA 
HETATM   11  C   UNL     3      -7.387  12.367  67.578  1.00  0.00    -0.146 C  
HETATM   12  C   UNL     2      -9.598  15.048  67.866  1.00  0.00    -0.203 C  
HETATM   13  O   UNL     2      -9.298  15.507  69.123  1.00  0.00    -0.214 OA 
HETATM   14  O   UNL     2      -8.281  16.469  66.440  1.00  0.00    -0.275 OA 
HETATM   15  C   UNL     2     -10.403  14.011  67.641  1.00  0.00    -0.242 C  
HETATM   16  O   UNL     3      -7.869   9.884  69.986  1.00  0.00    -0.159 OA 
HETATM   17  H   UNL     3      -6.707  12.270  70.908  1.00  0.00     0.000 HD 
HETATM   18  C   UNL     3      -7.482  11.997  68.998  1.00  0.00     0.017 C  
HETATM   19  O   UNL     3      -6.638  13.241  67.180  1.00  0.00    -0.194 OA 
ENDROOT
BRANCH   2  20
HETATM   20  C   UNL     2     -11.414  13.260  65.259  1.00  0.00    -0.295 C  
HETATM   21  O   UNL     2     -12.365  12.352  65.851  1.00  0.00    -0.638 OA 
HETATM   22  H   UNL     2     -13.092  12.128  65.282  1.00  0.00     0.000 HD 
BRANCH  20  23
HETATM   23  C   UNL     2     -12.141  14.469  64.694  1.00  0.00    -0.473 C  
HETATM   24  H   UNL     2     -13.071  14.913  63.025  1.00  0.00     0.000 HD 
HETATM   25  O   UNL     2     -12.616  14.158  63.379  1.00  0.00    -0.818 OA 
ENDBRANCH  20  23
ENDBRANCH   2  20
BRANCH   4  26
HETATM   26  C   UNL     3     -10.059  10.297  67.375  1.00  0.00    -0.202 C  
HETATM   27  H   UNL     3     -11.117   9.363  66.023  1.00  0.00     0.000 HD 
HETATM   28  O   UNL     3     -10.193   9.398  66.242  1.00  0.00    -0.274 OA 
BRANCH  26  29
HETATM   29  C   UNL     3     -11.102   9.908  68.421  1.00  0.00    -0.139 C  
HETATM   30  O   UNL     3     -12.284  10.700  68.338  1.00  0.00    -0.822 OA 
HETATM   31  H   UNL     3     -12.932  10.458  68.989  1.00  0.00     0.000 HD 
ENDBRANCH  26  29
ENDBRANCH   4  26
TORSDOF 4
ENDMDL
MODEL       13
REMARK 921   NORMALIZED FREE ENERGY PREDICTED BY IDOCK:   -5.86 KCAL/MOL
REMARK 922        TOTAL FREE ENERGY PREDICTED BY IDOCK:   -8.24 KCAL/MOL
REMARK 923 INTER-LIGAND FREE ENERGY PREDICTED BY IDOCK:   -7.30 KCAL/MOL
REMARK 924 INTRA-LIGAND FREE ENERGY PREDICTED BY IDOCK:   -0.94 KCAL/MOL
REMARK 927      BINDING AFFINITY PREDICTED BY RF-SCORE:    0.00 PKD
ROOT
HETATM    1 MG   UNL     1     -10.007   8.542  67.681  1.00  0.00    -0.146 Mg 
HETATM    2  C   UNL     2     -10.456  15.053  66.696  1.00  0.00    -0.284 C  
HETATM    3  O   UNL     2      -9.810  15.656  67.827  1.00  0.00    -0.219 OA 
HETATM    4  C   UNL     3      -9.655  11.305  65.576  1.00  0.00    -0.228 C  
HETATM    5  H   UNL     2     -13.213  13.281  69.199  1.00  0.00     0.000 HD 
HETATM    6  O   UNL     3      -8.873  12.142  66.488  1.00  0.00    -0.204 OA 
HETATM    7  O   UNL     3     -10.609  10.183  68.921  1.00  0.00    -0.194 OA 
HETATM    8  C   UNL     3     -10.379  10.397  66.570  1.00  0.00    -0.224 C  
HETATM    9  C   UNL     2     -10.452  15.294  68.972  1.00  0.00    -0.248 C  
HETATM   10  O   UNL     2     -12.519  13.842  66.495  1.00  0.00    -0.404 OA 
HETATM   11  C   UNL     3      -9.309  12.017  67.765  1.00  0.00    -0.190 C  
HETATM   12  C   UNL     2     -11.624  14.488  68.596  1.00  0.00    -0.315 C  
HETATM   13  O   UNL     2     -12.456  13.801  69.443  1.00  0.00    -0.255 OA 
HETATM   14  O   UNL     2     -10.111  15.598  70.101  1.00  0.00    -0.294 OA 
HETATM   15  C   UNL     2     -11.715  14.418  67.269  1.00  0.00    -0.404 C  
HETATM   16  O   UNL     3     -10.721   9.243  66.183  1.00  0.00     0.082 OA 
HETATM   17  H   UNL     3     -11.249   9.481  68.933  1.00  0.00     0.000 HD 
HETATM   18  C   UNL     3     -10.300  10.931  67.784  1.00  0.00    -0.187 C  
HETATM   19  O   UNL     3      -8.763  12.420  68.776  1.00  0.00    -0.015 OA 
ENDROOT
BRANCH   2  20
HETATM   20  C   UNL     2     -10.456  16.008  65.495  1.00  0.00    -0.405 C  
HETATM   21  O   UNL     2     -11.466  15.712  64.509  1.00  0.00    -0.597 OA 
HETATM   22  H   UNL     2     -11.466  16.303  63.766  1.00  0.00     0.000 HD 
BRANCH  20  23
HETATM   23  C   UNL     2     -10.531  17.475  65.882  1.00  0.00    -0.249 C  
HETATM   24  H   UNL     2     -11.189  19.129  65.057  1.00  0.00     0.000 HD 
HETATM   25  O   UNL     2     -11.142  18.211  64.815  1.00  0.00    -0.636 OA 
ENDBRANCH  20  23
ENDBRANCH   2  20
BRANCH   4  26
HETATM   26  C   UNL     3     -10.353  12.241  64.552  1.00  0.00    -0.311 C  
HETATM   27  H   UNL     3     -10.052  12.694  62.675  1.00  0.00     0.000 HD 
HETATM   28  O   UNL     3      -9.625  12.122  63.301  1.00  0.00    -0.327 OA 
BRANCH  26  29
HETATM   29  C   UNL     3     -11.845  12.106  64.252  1.00  0.00    -0.378 C  
HETATM   30  O   UNL     3     -12.389  13.273  63.642  1.00  0.00    -0.665 OA 
HETATM   31  H   UNL     3     -13.317  13.189  63.456  1.00  0.00     0.000 HD 
ENDBRANCH  26  29
ENDBRANCH   4  26
TORSDOF 4
ENDMDL
MODEL       14
REMARK 921   NORMALIZED FREE ENERGY PREDICTED BY IDOCK:   -5.80 KCAL/MOL
REMARK 922        TOTAL FREE ENERGY PREDICTED BY IDOCK:   -8.16 KCAL/MOL
REMARK 923 INTER-LIGAND FREE ENERGY PREDICTED BY IDOCK:   -6.93 KCAL/MOL
REMARK 924 INTRA-LIGAND FREE ENERGY PREDICTED BY IDOCK:   -1.24 KCAL/MOL
REMARK 927      BINDING AFFINITY PREDICTED BY RF-SCORE:    0.00 PKD
ROOT
HETATM    1 MG   UNL     1     -12.197  15.899  69.347  1.00  0.00    -0.304 Mg 
HETATM    2  C   UNL     2      -9.786  10.263  66.901  1.00  0.00    -0.197 C  
HETATM    3  O   UNL     2      -9.691   9.370  68.021  1.00  0.00    -0.140 OA 
HETATM    4  C   UNL     3     -12.267  13.391  66.919  1.00  0.00    -0.289 C  
HETATM    5  H   UNL     2      -7.155  12.859  68.730  1.00  0.00     0.000 HD 
HETATM    6  O   UNL     3     -12.283  12.244  67.829  1.00  0.00    -0.425 OA 
HETATM    7  O   UNL     3     -10.617  14.585  69.954  1.00  0.00    -0.442 OA 
HETATM    8  C   UNL     3     -11.613  14.452  67.805  1.00  0.00    -0.356 C  
HETATM    9  C   UNL     2      -8.849   9.891  68.956  1.00  0.00    -0.156 C  
HETATM   10  O   UNL     2      -8.552  12.239  66.326  1.00  0.00    -0.040 OA 
HETATM   11  C   UNL     3     -11.480  12.455  68.900  1.00  0.00    -0.307 C  
HETATM   12  C   UNL     2      -8.289  11.138  68.412  1.00  0.00    -0.149 C  
HETATM   13  O   UNL     2      -7.517  12.053  69.081  1.00  0.00    -0.035 OA 
HETATM   14  O   UNL     2      -8.605   9.398  70.042  1.00  0.00    -0.163 OA 
HETATM   15  C   UNL     2      -8.734  11.328  67.171  1.00  0.00    -0.151 C  
HETATM   16  O   UNL     3     -11.891  15.665  67.587  1.00  0.00    -0.104 OA 
HETATM   17  H   UNL     3     -10.326  15.488  69.914  1.00  0.00     0.000 HD 
HETATM   18  C   UNL     3     -11.029  13.854  68.839  1.00  0.00    -0.263 C  
HETATM   19  O   UNL     3     -11.418  11.793  69.920  1.00  0.00    -0.272 OA 
ENDROOT
BRANCH   2  20
HETATM   20  C   UNL     2      -9.884   9.478  65.585  1.00  0.00    -0.272 C  
HETATM   21  O   UNL     2     -10.048  10.309  64.418  1.00  0.00    -0.324 OA 
HETATM   22  H   UNL     2     -10.109   9.824  63.604  1.00  0.00     0.000 HD 
BRANCH  20  23
HETATM   23  C   UNL     2      -8.736   8.507  65.367  1.00  0.00    -0.159 C  
HETATM   24  H   UNL     2      -6.963   8.571  64.530  1.00  0.00     0.000 HD 
HETATM   25  O   UNL     2      -7.681   9.178  64.667  1.00  0.00    -0.106 OA 
ENDBRANCH  20  23
ENDBRANCH   2  20
BRANCH   4  26
HETATM   26  C   UNL     3     -11.711  12.906  65.552  1.00  0.00    -0.383 C  
HETATM   27  H   UNL     3     -12.492  12.062  63.971  1.00  0.00     0.000 HD 
HETATM   28  O   UNL     3     -12.832  12.359  64.807  1.00  0.00    -0.728 OA 
BRANCH  26  29
HETATM   29  C   UNL     3     -10.944  13.855  64.633  1.00  0.00    -0.398 C  
HETATM   30  O   UNL     3      -9.978  13.180  63.832  1.00  0.00    -0.760 OA 
HETATM   31  H   UNL     3      -9.500  13.770  63.261  1.00  0.00     0.000 HD 
ENDBRANCH  26  29
ENDBRANCH   4  26
TORSDOF 4
ENDMDL
MODEL       15
REMARK 921   NORMALIZED FREE ENERGY PREDICTED BY IDOCK:   -5.76 KCAL/MOL
REMARK 922        TOTAL FREE ENERGY PREDICTED BY IDOCK:   -8.12 KCAL/MOL
REMARK 923 INTER-LIGAND FREE ENERGY PREDICTED BY IDOCK:   -6.87 KCAL/MOL
REMARK 924 INTRA-LIGAND FREE ENERGY PREDICTED BY IDOCK:   -1.25 KCAL/MOL
REMARK 927      BINDING AFFINITY PREDICTED BY RF-SCORE:    0.00 PKD
ROOT
HETATM    1 MG   UNL     1      -7.535   9.889  62.474  1.00  0.00    -0.110 Mg 
HETATM    2  C   UNL     2     -11.324  12.347  67.287  1.00  0.00    -0.323 C  
HETATM    3  O   UNL     2     -12.528  12.786  66.640  1.00  0.00    -0.373 OA 
HETATM    4  C   UNL     3      -8.950   9.585  65.652  1.00  0.00    -0.183 C  
HETATM    5  H   UNL     2      -9.124  14.994  65.015  1.00  0.00     0.000 HD 
HETATM    6  O   UNL     3     -10.331   9.899  65.277  1.00  0.00    -0.186 OA 
HETATM    7  O   UNL     3      -8.654  11.704  62.689  1.00  0.00    -0.640 OA 
HETATM    8  C   UNL     3      -8.182  10.288  64.533  1.00  0.00    -0.158 C  
HETATM    9  C   UNL     2     -12.234  13.743  65.718  1.00  0.00    -0.462 C  
HETATM   10  O   UNL     2      -9.078  13.191  67.219  1.00  0.00    -0.199 OA 
HETATM   11  C   UNL     3     -10.376  10.885  64.349  1.00  0.00    -0.361 C  
HETATM   12  C   UNL     2     -10.793  14.025  65.806  1.00  0.00    -0.291 C  
HETATM   13  O   UNL     2     -10.055  14.812  64.958  1.00  0.00    -0.371 OA 
HETATM   14  O   UNL     2     -13.033  14.272  64.967  1.00  0.00    -0.693 OA 
HETATM   15  C   UNL     2     -10.252  13.303  66.785  1.00  0.00    -0.254 C  
HETATM   16  O   UNL     3      -7.049   9.831  64.208  1.00  0.00    -0.115 OA 
HETATM   17  H   UNL     3      -7.761  11.873  62.413  1.00  0.00     0.000 HD 
HETATM   18  C   UNL     3      -8.993  11.147  63.922  1.00  0.00     0.011 C  
HETATM   19  O   UNL     3     -11.339  11.242  63.695  1.00  0.00    -0.325 OA 
ENDROOT
BRANCH   2  20
HETATM   20  C   UNL     2     -11.578  12.058  68.773  1.00  0.00    -0.311 C  
HETATM   21  O   UNL     2     -10.455  11.468  69.457  1.00  0.00    -0.441 OA 
HETATM   22  H   UNL     2     -10.612  11.289  70.376  1.00  0.00     0.000 HD 
BRANCH  20  23
HETATM   23  C   UNL     2     -12.078  13.264  69.552  1.00  0.00    -0.258 C  
HETATM   24  H   UNL     2     -12.781  13.597  71.352  1.00  0.00     0.000 HD 
HETATM   25  O   UNL     2     -12.470  12.844  70.865  1.00  0.00    -0.367 OA 
ENDBRANCH  20  23
ENDBRANCH   2  20
BRANCH   4  26
HETATM   26  C   UNL     3      -8.789   9.884  67.167  1.00  0.00    -0.138 C  
HETATM   27  H   UNL     3      -9.331   8.980  68.813  1.00  0.00     0.000 HD 
HETATM   28  O   UNL     3      -9.430   8.797  67.886  1.00  0.00    -0.140 OA 
BRANCH  26  29
HETATM   29  C   UNL     3      -7.409  10.115  67.781  1.00  0.00    -0.088 C  
HETATM   30  O   UNL     3      -7.408  11.162  68.748  1.00  0.00    -0.097 OA 
HETATM   31  H   UNL     3      -6.550  11.306  69.129  1.00  0.00     0.000 HD 
ENDBRANCH  26  29
ENDBRANCH   4  26
TORSDOF 4
ENDMDL
MODEL       16
REMARK 921   NORMALIZED FREE ENERGY PREDICTED BY IDOCK:   -5.61 KCAL/MOL
REMARK 922        TOTAL FREE ENERGY PREDICTED BY IDOCK:   -7.93 KCAL/MOL
REMARK 923 INTER-LIGAND FREE ENERGY PREDICTED BY IDOCK:   -6.97 KCAL/MOL
REMARK 924 INTRA-LIGAND FREE ENERGY PREDICTED BY IDOCK:   -0.96 KCAL/MOL
REMARK 927      BINDING AFFINITY PREDICTED BY RF-SCORE:    0.00 PKD
ROOT
HETATM    1 MG   UNL     1     -12.922  14.615  70.054  1.00  0.00    -0.321 Mg 
HETATM    2  C   UNL     2      -9.250  10.693  66.221  1.00  0.00    -0.170 C  
HETATM    3  O   UNL     2      -9.627   9.353  66.571  1.00  0.00    -0.175 OA 
HETATM    4  C   UNL     3     -11.664  13.799  66.901  1.00  0.00    -0.395 C  
HETATM    5  H   UNL     2      -7.978  11.359  70.087  1.00  0.00     0.000 HD 
HETATM    6  O   UNL     3     -12.024  12.379  66.913  1.00  0.00    -0.550 OA 
HETATM    7  O   UNL     3     -11.722  12.881  70.438  1.00  0.00    -0.534 OA 
HETATM    8  C   UNL     3     -11.581  14.087  68.400  1.00  0.00    -0.331 C  
HETATM    9  C   UNL     2      -9.363   9.128  67.887  1.00  0.00    -0.137 C  
HETATM   10  O   UNL     2      -8.035  12.375  67.427  1.00  0.00    -0.159 OA 
HETATM   11  C   UNL     3     -11.835  11.835  68.140  1.00  0.00    -0.254 C  
HETATM   12  C   UNL     2      -8.704  10.329  68.425  1.00  0.00    -0.129 C  
HETATM   13  O   UNL     2      -8.404  10.584  69.740  1.00  0.00    -0.087 OA 
HETATM   14  O   UNL     2      -9.623   8.108  68.498  1.00  0.00    -0.146 OA 
HETATM   15  C   UNL     2      -8.526  11.220  67.451  1.00  0.00    -0.137 C  
HETATM   16  O   UNL     3     -11.810  15.265  68.795  1.00  0.00    -0.338 OA 
HETATM   17  H   UNL     3     -11.512  13.592  71.032  1.00  0.00     0.000 HD 
HETATM   18  C   UNL     3     -11.510  12.935  69.060  1.00  0.00    -0.308 C  
HETATM   19  O   UNL     3     -12.213  10.746  68.531  1.00  0.00    -0.470 OA 
ENDROOT
BRANCH   2  20
HETATM   20  C   UNL     2      -8.662  10.741  64.804  1.00  0.00    -0.109 C  
HETATM   21  O   UNL     2      -7.221  10.695  64.764  1.00  0.00    -0.346 OA 
HETATM   22  H   UNL     2      -6.858  10.724  63.887  1.00  0.00     0.000 HD 
BRANCH  20  23
HETATM   23  C   UNL     2      -9.235   9.688  63.869  1.00  0.00    -0.132 C  
HETATM   24  H   UNL     2     -10.002   9.660  62.064  1.00  0.00     0.000 HD 
HETATM   25  O   UNL     2      -9.644  10.318  62.648  1.00  0.00    -0.310 OA 
ENDBRANCH  20  23
ENDBRANCH   2  20
BRANCH   4  26
HETATM   26  C   UNL     3     -10.499  13.986  65.891  1.00  0.00    -0.309 C  
HETATM   27  H   UNL     3     -10.339  13.905  63.945  1.00  0.00     0.000 HD 
HETATM   28  O   UNL     3     -11.052  13.790  64.562  1.00  0.00    -0.373 OA 
BRANCH  26  29
HETATM   29  C   UNL     3      -9.667  15.267  65.879  1.00  0.00    -0.355 C  
HETATM   30  O   UNL     3      -8.373  15.085  66.449  1.00  0.00    -0.400 OA 
HETATM   31  H   UNL     3      -7.855  15.881  66.442  1.00  0.00     0.000 HD 
ENDBRANCH  26  29
ENDBRANCH   4  26
TORSDOF 4
ENDMDL
MODEL       17
REMARK 921   NORMALIZED FREE ENERGY PREDICTED BY IDOCK:   -5.50 KCAL/MOL
REMARK 922        TOTAL FREE ENERGY PREDICTED BY IDOCK:   -7.80 KCAL/MOL
REMARK 923 INTER-LIGAND FREE ENERGY PREDICTED BY IDOCK:   -6.76 KCAL/MOL
REMARK 924 INTRA-LIGAND FREE ENERGY PREDICTED BY IDOCK:   -1.03 KCAL/MOL
REMARK 927      BINDING AFFINITY PREDICTED BY RF-SCORE:    0.00 PKD
ROOT
HETATM    1 MG   UNL     1     -10.988  13.158  62.330  1.00  0.00    -0.371 Mg 
HETATM    2  C   UNL     2     -10.571  11.610  68.733  1.00  0.00    -0.212 C  
HETATM    3  O   UNL     2     -11.676  12.278  69.361  1.00  0.00    -0.296 OA 
HETATM    4  C   UNL     3     -10.578  10.757  64.832  1.00  0.00    -0.188 C  
HETATM    5  H   UNL     2      -9.047  15.245  67.518  1.00  0.00     0.000 HD 
HETATM    6  O   UNL     3     -11.726  11.141  65.656  1.00  0.00     0.094 OA 
HETATM    7  O   UNL     3     -11.081  14.309  64.135  1.00  0.00    -0.594 OA 
HETATM    8  C   UNL     3     -10.293  12.072  64.106  1.00  0.00    -0.347 C  
HETATM    9  C   UNL     2     -11.566  13.623  69.179  1.00  0.00    -0.309 C  
HETATM   10  O   UNL     2      -8.550  12.450  67.748  1.00  0.00    -0.153 OA 
HETATM   11  C   UNL     3     -11.873  12.488  65.698  1.00  0.00    -0.438 C  
HETATM   12  C   UNL     2     -10.297  13.880  68.479  1.00  0.00    -0.244 C  
HETATM   13  O   UNL     2      -9.867  15.079  67.970  1.00  0.00    -0.214 OA 
HETATM   14  O   UNL     2     -12.375  14.455  69.544  1.00  0.00    -0.305 OA 
HETATM   15  C   UNL     2      -9.642  12.734  68.299  1.00  0.00    -0.211 C  
HETATM   16  O   UNL     3      -9.747  12.018  62.967  1.00  0.00    -0.383 OA 
HETATM   17  H   UNL     3     -10.465  14.680  63.513  1.00  0.00     0.000 HD 
HETATM   18  C   UNL     3     -10.919  13.061  64.736  1.00  0.00    -0.327 C  
HETATM   19  O   UNL     3     -12.823  13.115  66.128  1.00  0.00    -0.242 OA 
ENDROOT
BRANCH   2  20
HETATM   20  C   UNL     2     -10.117  10.406  69.568  1.00  0.00    -0.219 C  
HETATM   21  O   UNL     2      -8.734  10.462  69.975  1.00  0.00    -0.365 OA 
HETATM   22  H   UNL     2      -8.453   9.717  70.492  1.00  0.00     0.000 HD 
BRANCH  20  23
HETATM   23  C   UNL     2     -10.997  10.134  70.777  1.00  0.00    -0.242 C  
HETATM   24  H   UNL     2     -11.019   8.845  72.254  1.00  0.00     0.000 HD 
HETATM   25  O   UNL     2     -10.469   9.014  71.499  1.00  0.00    -0.287 OA 
ENDBRANCH  20  23
ENDBRANCH   2  20
BRANCH   4  26
HETATM   26  C   UNL     3      -9.569  10.006  65.743  1.00  0.00    -0.231 C  
HETATM   27  H   UNL     3      -9.481   8.212  66.513  1.00  0.00     0.000 HD 
HETATM   28  O   UNL     3     -10.099   8.671  65.955  1.00  0.00    -0.189 OA 
BRANCH  26  29
HETATM   29  C   UNL     3      -8.098   9.881  65.351  1.00  0.00    -0.137 C  
HETATM   30  O   UNL     3      -7.338  11.037  65.694  1.00  0.00    -0.358 OA 
HETATM   31  H   UNL     3      -6.424  10.959  65.450  1.00  0.00     0.000 HD 
ENDBRANCH  26  29
ENDBRANCH   4  26
TORSDOF 4
ENDMDL
MODEL       18
REMARK 921   NORMALIZED FREE ENERGY PREDICTED BY IDOCK:   -5.50 KCAL/MOL
REMARK 922        TOTAL FREE ENERGY PREDICTED BY IDOCK:   -7.80 KCAL/MOL
REMARK 923 INTER-LIGAND FREE ENERGY PREDICTED BY IDOCK:   -6.68 KCAL/MOL
REMARK 924 INTRA-LIGAND FREE ENERGY PREDICTED BY IDOCK:   -1.12 KCAL/MOL
REMARK 927      BINDING AFFINITY PREDICTED BY RF-SCORE:    0.00 PKD
ROOT
HETATM    1 MG   UNL     1     -14.053  12.422  64.567  1.00  0.00    -0.593 Mg 
HETATM    2  C   UNL     2      -8.800  14.288  68.100  1.00  0.00    -0.183 C  
HETATM    3  O   UNL     2      -9.332  14.838  69.315  1.00  0.00    -0.150 OA 
HETATM    4  C   UNL     3     -10.890  11.720  65.869  1.00  0.00    -0.291 C  
HETATM    5  H   UNL     2     -10.783  17.168  65.913  1.00  0.00     0.000 HD 
HETATM    6  O   UNL     3     -11.162  12.114  67.253  1.00  0.00    -0.268 OA 
HETATM    7  O   UNL     3     -13.550  14.216  65.625  1.00  0.00    -0.671 OA 
HETATM    8  C   UNL     3     -11.935  12.552  65.124  1.00  0.00    -0.434 C  
HETATM    9  C   UNL     2     -10.127  15.905  69.029  1.00  0.00    -0.228 C  
HETATM   10  O   UNL     2      -8.846  15.081  65.835  1.00  0.00    -0.048 OA 
HETATM   11  C   UNL     3     -11.946  13.218  67.305  1.00  0.00    -0.343 C  
HETATM   12  C   UNL     2     -10.062  16.139  67.577  1.00  0.00    -0.256 C  
HETATM   13  O   UNL     2     -10.825  17.017  66.851  1.00  0.00    -0.176 OA 
HETATM   14  O   UNL     2     -10.767  16.550  69.840  1.00  0.00    -0.329 OA 
HETATM   15  C   UNL     2      -9.212  15.278  67.021  1.00  0.00    -0.218 C  
HETATM   16  O   UNL     3     -12.365  12.117  64.018  1.00  0.00    -0.442 OA 
HETATM   17  H   UNL     3     -13.836  14.400  64.738  1.00  0.00     0.000 HD 
HETATM   18  C   UNL     3     -12.390  13.504  65.933  1.00  0.00    -0.456 C  
HETATM   19  O   UNL     3     -12.505  13.683  68.282  1.00  0.00    -0.080 OA 
ENDROOT
BRANCH   2  20
HETATM   20  C   UNL     2      -7.358  13.805  68.306  1.00  0.00    -0.118 C  
HETATM   21  O   UNL     2      -6.660  13.501  67.081  1.00  0.00    -0.451 OA 
HETATM   22  H   UNL     2      -5.768  13.202  67.209  1.00  0.00     0.000 HD 
BRANCH  20  23
HETATM   23  C   UNL     2      -6.517  14.742  69.157  1.00  0.00    -0.109 C  
HETATM   24  H   UNL     2      -5.688  14.686  70.934  1.00  0.00     0.000 HD 
HETATM   25  O   UNL     2      -6.214  14.100  70.402  1.00  0.00    -0.171 OA 
ENDBRANCH  20  23
ENDBRANCH   2  20
BRANCH   4  26
HETATM   26  C   UNL     3      -9.357  11.806  65.642  1.00  0.00    -0.152 C  
HETATM   27  H   UNL     3      -7.785  11.143  66.597  1.00  0.00     0.000 HD 
HETATM   28  O   UNL     3      -8.724  11.091  66.736  1.00  0.00    -0.144 OA 
BRANCH  26  29
HETATM   29  C   UNL     3      -8.727  11.332  64.333  1.00  0.00     0.292 C  
HETATM   30  O   UNL     3      -9.286  11.976  63.191  1.00  0.00    -0.662 OA 
HETATM   31  H   UNL     3      -8.895  11.681  62.377  1.00  0.00     0.000 HD 
ENDBRANCH  26  29
ENDBRANCH   4  26
TORSDOF 4
ENDMDL
MODEL       19
REMARK 921   NORMALIZED FREE ENERGY PREDICTED BY IDOCK:   -5.36 KCAL/MOL
REMARK 922        TOTAL FREE ENERGY PREDICTED BY IDOCK:   -7.63 KCAL/MOL
REMARK 923 INTER-LIGAND FREE ENERGY PREDICTED BY IDOCK:   -7.16 KCAL/MOL
REMARK 924 INTRA-LIGAND FREE ENERGY PREDICTED BY IDOCK:   -0.47 KCAL/MOL
REMARK 927      BINDING AFFINITY PREDICTED BY RF-SCORE:    0.00 PKD
ROOT
HETATM    1 MG   UNL     1      -6.080  10.358  68.906  1.00  0.00    -0.041 Mg 
HETATM    2  C   UNL     2     -11.715  13.123  66.865  1.00  0.00    -0.387 C  
HETATM    3  O   UNL     2     -11.811  14.365  67.577  1.00  0.00    -0.373 OA 
HETATM    4  C   UNL     3      -8.211  11.293  66.303  1.00  0.00    -0.126 C  
HETATM    5  H   UNL     2     -11.755  11.059  70.435  1.00  0.00     0.000 HD 
HETATM    6  O   UNL     3      -8.427  12.679  66.722  1.00  0.00    -0.154 OA 
HETATM    7  O   UNL     3      -7.735  11.257  69.926  1.00  0.00    -0.272 OA 
HETATM    8  C   UNL     3      -7.848  10.643  67.638  1.00  0.00    -0.105 C  
HETATM    9  C   UNL     2     -11.846  14.128  68.917  1.00  0.00    -0.347 C  
HETATM   10  O   UNL     2     -11.898  10.845  67.599  1.00  0.00    -0.572 OA 
HETATM   11  C   UNL     3      -8.537  12.774  68.069  1.00  0.00    -0.186 C  
HETATM   12  C   UNL     2     -11.861  12.670  69.115  1.00  0.00    -0.297 C  
HETATM   13  O   UNL     2     -11.745  12.001  70.307  1.00  0.00    -0.292 OA 
HETATM   14  O   UNL     2     -11.869  14.979  69.787  1.00  0.00    -0.284 OA 
HETATM   15  C   UNL     2     -11.893  12.055  67.934  1.00  0.00    -0.250 C  
HETATM   16  O   UNL     3      -7.105   9.620  67.621  1.00  0.00    -0.086 OA 
HETATM   17  H   UNL     3      -7.522  10.405  70.287  1.00  0.00     0.000 HD 
HETATM   18  C   UNL     3      -8.207  11.454  68.628  1.00  0.00    -0.142 C  
HETATM   19  O   UNL     3      -8.528  13.789  68.743  1.00  0.00    -0.097 OA 
ENDROOT
BRANCH   2  20
HETATM   20  C   UNL     2     -12.534  13.173  65.568  1.00  0.00    -0.458 C  
HETATM   21  O   UNL     2     -13.548  14.198  65.554  1.00  0.00    -0.685 OA 
HETATM   22  H   UNL     2     -14.056  14.229  64.752  1.00  0.00     0.000 HD 
BRANCH  20  23
HETATM   23  C   UNL     2     -11.684  13.274  64.313  1.00  0.00    -0.407 C  
HETATM   24  H   UNL     2     -12.013  13.426  62.385  1.00  0.00     0.000 HD 
HETATM   25  O   UNL     2     -12.544  13.363  63.170  1.00  0.00    -0.710 OA 
ENDBRANCH  20  23
ENDBRANCH   2  20
BRANCH   4  26
HETATM   26  C   UNL     3      -9.407  10.875  65.404  1.00  0.00    -0.208 C  
HETATM   27  H   UNL     3      -9.729  10.829  63.477  1.00  0.00     0.000 HD 
HETATM   28  O   UNL     3      -8.997  11.084  64.026  1.00  0.00    -0.146 OA 
BRANCH  26  29
HETATM   29  C   UNL     3     -10.024   9.482  65.513  1.00  0.00    -0.139 C  
HETATM   30  O   UNL     3      -9.069   8.442  65.315  1.00  0.00    -0.398 OA 
HETATM   31  H   UNL     3      -9.452   7.576  65.382  1.00  0.00     0.000 HD 
ENDBRANCH  26  29
ENDBRANCH   4  26
TORSDOF 4
ENDMDL
MODEL       20
REMARK 921   NORMALIZED FREE ENERGY PREDICTED BY IDOCK:   -5.36 KCAL/MOL
REMARK 922        TOTAL FREE ENERGY PREDICTED BY IDOCK:   -7.63 KCAL/MOL
REMARK 923 INTER-LIGAND FREE ENERGY PREDICTED BY IDOCK:   -6.83 KCAL/MOL
REMARK 924 INTRA-LIGAND FREE ENERGY PREDICTED BY IDOCK:   -0.80 KCAL/MOL
REMARK 927      BINDING AFFINITY PREDICTED BY RF-SCORE:    0.00 PKD
ROOT
HETATM    1 MG   UNL     1     -10.998  11.901  67.950  1.00  0.00    -0.179 Mg 
HETATM    2  C   UNL     2      -9.945   6.275  71.238  1.00  0.00    -0.180 C  
HETATM    3  O   UNL     2      -8.546   5.997  71.081  1.00  0.00    -0.127 OA 
HETATM    4  C   UNL     3     -11.408   9.967  70.829  1.00  0.00    -0.360 C  
HETATM    5  H   UNL     2     -10.458   6.060  67.151  1.00  0.00     0.000 HD 
HETATM    6  O   UNL     3     -10.005   9.586  71.005  1.00  0.00    -0.278 OA 
HETATM    7  O   UNL     3      -9.983  10.077  67.465  1.00  0.00    -0.174 OA 
HETATM    8  C   UNL     3     -11.442  10.251  69.327  1.00  0.00    -0.160 C  
HETATM    9  C   UNL     2      -8.249   5.848  69.761  1.00  0.00    -0.113 C  
HETATM   10  O   UNL     2     -11.766   6.223  69.675  1.00  0.00    -0.382 OA 
HETATM   11  C   UNL     3      -9.411   9.334  69.813  1.00  0.00    -0.191 C  
HETATM   12  C   UNL     2      -9.508   5.944  69.004  1.00  0.00    -0.127 C  
HETATM   13  O   UNL     2      -9.645   5.999  67.640  1.00  0.00    -0.112 OA 
HETATM   14  O   UNL     2      -7.138   5.661  69.301  1.00  0.00    -0.061 OA 
HETATM   15  C   UNL     2     -10.530   6.086  69.846  1.00  0.00    -0.249 C  
HETATM   16  O   UNL     3     -12.293  11.080  68.896  1.00  0.00    -0.516 OA 
HETATM   17  H   UNL     3     -10.597  10.328  66.785  1.00  0.00     0.000 HD 
HETATM   18  C   UNL     3     -10.362   9.722  68.760  1.00  0.00    -0.208 C  
HETATM   19  O   UNL     3      -8.222   9.184  69.596  1.00  0.00    -0.103 OA 
ENDROOT
BRANCH   2  20
HETATM   20  C   UNL     2     -10.500   5.589  72.493  1.00  0.00    -0.216 C  
HETATM   21  O   UNL     2     -11.935   5.662  72.617  1.00  0.00    -0.466 OA 
HETATM   22  H   UNL     2     -12.278   5.238  73.394  1.00  0.00     0.000 HD 
BRANCH  20  23
HETATM   23  C   UNL     2     -10.044   4.148  72.653  1.00  0.00    -0.165 C  
HETATM   24  H   UNL     2     -10.820   2.483  73.339  1.00  0.00     0.000 HD 
HETATM   25  O   UNL     2     -11.105   3.383  73.239  1.00  0.00    -0.186 OA 
ENDBRANCH  20  23
ENDBRANCH   2  20
BRANCH   4  26
HETATM   26  C   UNL     3     -12.283   8.910  71.556  1.00  0.00    -0.327 C  
HETATM   27  H   UNL     3     -12.145   7.937  73.246  1.00  0.00     0.000 HD 
HETATM   28  O   UNL     3     -11.609   8.584  72.801  1.00  0.00    -0.312 OA 
BRANCH  26  29
HETATM   29  C   UNL     3     -13.753   9.185  71.866  1.00  0.00    -0.424 C  
HETATM   30  O   UNL     3     -14.075   8.966  73.237  1.00  0.00    -1.211 OA 
HETATM   31  H   UNL     3     -14.989   9.136  73.430  1.00  0.00     0.000 HD 
ENDBRANCH  26  29
ENDBRANCH   4  26
TORSDOF 4
ENDMDL
MODEL       21
REMARK 921   NORMALIZED FREE ENERGY PREDICTED BY IDOCK:   -5.27 KCAL/MOL
REMARK 922        TOTAL FREE ENERGY PREDICTED BY IDOCK:   -7.51 KCAL/MOL
REMARK 923 INTER-LIGAND FREE ENERGY PREDICTED BY IDOCK:   -7.06 KCAL/MOL
REMARK 924 INTRA-LIGAND FREE ENERGY PREDICTED BY IDOCK:   -0.45 KCAL/MOL
REMARK 927      BINDING AFFINITY PREDICTED BY RF-SCORE:    0.00 PKD
ROOT
HETATM    1 MG   UNL     1     -10.017   8.163  70.815  1.00  0.00    -0.175 Mg 
HETATM    2  C   UNL     2     -10.199  11.690  65.240  1.00  0.00    -0.272 C  
HETATM    3  O   UNL     2     -10.184  10.726  64.176  1.00  0.00    -0.336 OA 
HETATM    4  C   UNL     3     -11.421  10.737  68.919  1.00  0.00    -0.293 C  
HETATM    5  H   UNL     2      -6.533  10.326  66.546  1.00  0.00     0.000 HD 
HETATM    6  O   UNL     3     -11.637   9.972  67.689  1.00  0.00    -0.099 OA 
HETATM    7  O   UNL     3      -8.884   8.107  68.997  1.00  0.00    -0.143 OA 
HETATM    8  C   UNL     3     -10.282   9.940  69.556  1.00  0.00    -0.225 C  
HETATM    9  C   UNL     2      -9.044   9.983  64.243  1.00  0.00    -0.255 C  
HETATM   10  O   UNL     2      -8.515  12.353  66.817  1.00  0.00    -0.174 OA 
HETATM   11  C   UNL     3     -10.610   9.120  67.453  1.00  0.00    -0.244 C  
HETATM   12  C   UNL     2      -8.219  10.522  65.336  1.00  0.00    -0.152 C  
HETATM   13  O   UNL     2      -7.065   9.978  65.840  1.00  0.00    -0.101 OA 
HETATM   14  O   UNL     2      -8.765   9.049  63.515  1.00  0.00    -0.178 OA 
HETATM   15  C   UNL     2      -8.817  11.586  65.869  1.00  0.00    -0.105 C  
HETATM   16  O   UNL     3     -10.173   9.958  70.815  1.00  0.00    -0.240 OA 
HETATM   17  H   UNL     3      -8.320   8.127  69.762  1.00  0.00     0.000 HD 
HETATM   18  C   UNL     3      -9.737   9.151  68.636  1.00  0.00    -0.155 C  
HETATM   19  O   UNL     3     -10.568   8.220  66.634  1.00  0.00    -0.268 OA 
ENDROOT
BRANCH   2  20
HETATM   20  C   UNL     2     -10.821  13.012  64.768  1.00  0.00    -0.337 C  
HETATM   21  O   UNL     2      -9.855  14.011  64.383  1.00  0.00    -0.656 OA 
HETATM   22  H   UNL     2     -10.239  14.828  64.091  1.00  0.00     0.000 HD 
BRANCH  20  23
HETATM   23  C   UNL     2     -11.851  12.841  63.665  1.00  0.00    -0.532 C  
HETATM   24  H   UNL     2     -13.723  12.267  63.548  1.00  0.00     0.000 HD 
HETATM   25  O   UNL     2     -13.079  12.373  64.237  1.00  0.00    -0.756 OA 
ENDBRANCH  20  23
ENDBRANCH   2  20
BRANCH   4  26
HETATM   26  C   UNL     3     -11.352  12.241  68.538  1.00  0.00    -0.286 C  
HETATM   27  H   UNL     3     -12.246  13.367  67.214  1.00  0.00     0.000 HD 
HETATM   28  O   UNL     3     -12.289  12.447  67.447  1.00  0.00    -0.343 OA 
BRANCH  26  29
HETATM   29  C   UNL     3     -11.589  13.329  69.584  1.00  0.00    -0.261 C  
HETATM   30  O   UNL     3     -12.118  12.812  70.802  1.00  0.00    -0.474 OA 
HETATM   31  H   UNL     3     -12.266  13.488  71.452  1.00  0.00     0.000 HD 
ENDBRANCH  26  29
ENDBRANCH   4  26
TORSDOF 4
ENDMDL
MODEL       22
REMARK 921   NORMALIZED FREE ENERGY PREDICTED BY IDOCK:   -5.22 KCAL/MOL
REMARK 922        TOTAL FREE ENERGY PREDICTED BY IDOCK:   -7.46 KCAL/MOL
REMARK 923 INTER-LIGAND FREE ENERGY PREDICTED BY IDOCK:   -6.44 KCAL/MOL
REMARK 924 INTRA-LIGAND FREE ENERGY PREDICTED BY IDOCK:   -1.02 KCAL/MOL
REMARK 927      BINDING AFFINITY PREDICTED BY RF-SCORE:    0.00 PKD
ROOT
HETATM    1 MG   UNL     1      -5.588   8.282  69.029  1.00  0.00    -0.028 Mg 
HETATM    2  C   UNL     2     -11.665   7.951  71.582  1.00  0.00    -0.281 C  
HETATM    3  O   UNL     2     -11.483   7.946  73.006  1.00  0.00    -0.383 OA 
HETATM    4  C   UNL     3      -8.889   9.417  69.116  1.00  0.00    -0.143 C  
HETATM    5  H   UNL     2      -9.502   4.453  71.279  1.00  0.00     0.000 HD 
HETATM    6  O   UNL     3      -8.983   9.621  70.563  1.00  0.00    -0.236 OA 
HETATM    7  O   UNL     3      -6.485   7.066  70.548  1.00  0.00    -0.045 OA 
HETATM    8  C   UNL     3      -7.780   8.366  69.045  1.00  0.00    -0.097 C  
HETATM    9  C   UNL     2     -10.744   6.863  73.373  1.00  0.00    -0.324 C  
HETATM   10  O   UNL     2     -11.168   6.308  69.904  1.00  0.00    -0.366 OA 
HETATM   11  C   UNL     3      -8.337   8.641  71.240  1.00  0.00    -0.168 C  
HETATM   12  C   UNL     2     -10.492   6.061  72.165  1.00  0.00    -0.206 C  
HETATM   13  O   UNL     2      -9.664   4.971  72.059  1.00  0.00    -0.155 OA 
HETATM   14  O   UNL     2     -10.372   6.610  74.504  1.00  0.00    -0.328 OA 
HETATM   15  C   UNL     2     -11.107   6.613  71.121  1.00  0.00    -0.279 C  
HETATM   16  O   UNL     3      -7.068   8.320  68.003  1.00  0.00    -0.082 OA 
HETATM   17  H   UNL     3      -6.019   6.541  69.908  1.00  0.00     0.000 HD 
HETATM   18  C   UNL     3      -7.615   7.828  70.250  1.00  0.00    -0.087 C  
HETATM   19  O   UNL     3      -8.065   8.618  72.427  1.00  0.00    -0.328 OA 
ENDROOT
BRANCH   2  20
HETATM   20  C   UNL     2     -13.066   8.460  71.214  1.00  0.00    -0.142 C  
HETATM   21  O   UNL     2     -13.987   7.419  70.831  1.00  0.00    -0.619 OA 
HETATM   22  H   UNL     2     -14.853   7.734  70.603  1.00  0.00     0.000 HD 
BRANCH  20  23
HETATM   23  C   UNL     2     -13.697   9.336  72.284  1.00  0.00    -0.462 C  
HETATM   24  H   UNL     2     -13.668  11.239  72.759  1.00  0.00     0.000 HD 
HETATM   25  O   UNL     2     -13.273  10.691  72.091  1.00  0.00    -0.464 OA 
ENDBRANCH  20  23
ENDBRANCH   2  20
BRANCH   4  26
HETATM   26  C   UNL     3     -10.330   9.230  68.567  1.00  0.00    -0.209 C  
HETATM   27  H   UNL     3     -11.861  10.413  68.291  1.00  0.00     0.000 HD 
HETATM   28  O   UNL     3     -10.979  10.527  68.626  1.00  0.00    -0.217 OA 
BRANCH  26  29
HETATM   29  C   UNL     3     -10.572   8.637  67.180  1.00  0.00    -0.234 C  
HETATM   30  O   UNL     3     -11.170   7.344  67.233  1.00  0.00    -0.554 OA 
HETATM   31  H   UNL     3     -11.321   6.975  66.371  1.00  0.00     0.000 HD 
ENDBRANCH  26  29
ENDBRANCH   4  26
TORSDOF 4
ENDMDL
MODEL       23
REMARK 921   NORMALIZED FREE ENERGY PREDICTED BY IDOCK:   -5.19 KCAL/MOL
REMARK 922        TOTAL FREE ENERGY PREDICTED BY IDOCK:   -7.41 KCAL/MOL
REMARK 923 INTER-LIGAND FREE ENERGY PREDICTED BY IDOCK:   -6.41 KCAL/MOL
REMARK 924 INTRA-LIGAND FREE ENERGY PREDICTED BY IDOCK:   -1.00 KCAL/MOL
REMARK 927      BINDING AFFINITY PREDICTED BY RF-SCORE:    0.00 PKD
ROOT
HETATM    1 MG   UNL     1      -9.828   3.273  70.727  1.00  0.00    -0.129 Mg 
HETATM    2  C   UNL     2     -10.640   9.455  68.561  1.00  0.00    -0.197 C  
HETATM    3  O   UNL     2     -10.635   9.362  67.129  1.00  0.00    -0.260 OA 
HETATM    4  C   UNL     3     -11.533   6.318  70.863  1.00  0.00    -0.312 C  
HETATM    5  H   UNL     2      -6.807   7.936  68.685  1.00  0.00     0.000 HD 
HETATM    6  O   UNL     3     -11.783   6.461  69.427  1.00  0.00    -0.327 OA 
HETATM    7  O   UNL     3      -8.825   4.463  69.254  1.00  0.00    -0.084 OA 
HETATM    8  C   UNL     3     -10.301   5.412  70.850  1.00  0.00    -0.242 C  
HETATM    9  C   UNL     2      -9.446   8.852  66.703  1.00  0.00    -0.202 C  
HETATM   10  O   UNL     2      -8.897   9.159  70.185  1.00  0.00    -0.161 OA 
HETATM   11  C   UNL     3     -10.720   6.042  68.699  1.00  0.00    -0.297 C  
HETATM   12  C   UNL     2      -8.584   8.675  67.883  1.00  0.00    -0.137 C  
HETATM   13  O   UNL     2      -7.364   8.051  67.923  1.00  0.00    -0.088 OA 
HETATM   14  O   UNL     2      -9.156   8.600  65.548  1.00  0.00    -0.193 OA 
HETATM   15  C   UNL     2      -9.213   9.117  68.970  1.00  0.00    -0.143 C  
HETATM   16  O   UNL     3     -10.105   4.658  71.845  1.00  0.00    -0.188 OA 
HETATM   17  H   UNL     3      -8.211   4.060  69.857  1.00  0.00     0.000 HD 
HETATM   18  C   UNL     3      -9.769   5.418  69.632  1.00  0.00    -0.177 C  
HETATM   19  O   UNL     3     -10.676   5.851  67.497  1.00  0.00    -0.251 OA 
ENDROOT
BRANCH   2  20
HETATM   20  C   UNL     2     -11.381  10.717  69.023  1.00  0.00    -0.277 C  
HETATM   21  O   UNL     2     -11.225  11.008  70.426  1.00  0.00    -0.461 OA 
HETATM   22  H   UNL     2     -11.684  11.789  70.712  1.00  0.00     0.000 HD 
BRANCH  20  23
HETATM   23  C   UNL     2     -11.051  11.953  68.202  1.00  0.00    -0.242 C  
HETATM   24  H   UNL     2     -11.902  12.959  66.749  1.00  0.00     0.000 HD 
HETATM   25  O   UNL     2     -12.108  12.187  67.262  1.00  0.00    -0.565 OA 
ENDBRANCH  20  23
ENDBRANCH   2  20
BRANCH   4  26
HETATM   26  C   UNL     3     -11.592   7.732  71.500  1.00  0.00    -0.270 C  
HETATM   27  H   UNL     3     -13.032   8.945  72.025  1.00  0.00     0.000 HD 
HETATM   28  O   UNL     3     -12.996   8.079  71.635  1.00  0.00    -0.321 OA 
BRANCH  26  29
HETATM   29  C   UNL     3     -10.896   8.027  72.828  1.00  0.00    -0.369 C  
HETATM   30  O   UNL     3     -10.984   6.941  73.746  1.00  0.00    -0.519 OA 
HETATM   31  H   UNL     3     -10.552   7.124  74.571  1.00  0.00     0.000 HD 
ENDBRANCH  26  29
ENDBRANCH   4  26
TORSDOF 4
ENDMDL
MODEL       24
REMARK 921   NORMALIZED FREE ENERGY PREDICTED BY IDOCK:   -5.10 KCAL/MOL
REMARK 922        TOTAL FREE ENERGY PREDICTED BY IDOCK:   -7.30 KCAL/MOL
REMARK 923 INTER-LIGAND FREE ENERGY PREDICTED BY IDOCK:   -6.21 KCAL/MOL
REMARK 924 INTRA-LIGAND FREE ENERGY PREDICTED BY IDOCK:   -1.09 KCAL/MOL
REMARK 927      BINDING AFFINITY PREDICTED BY RF-SCORE:    0.00 PKD
ROOT
HETATM    1 MG   UNL     1      -8.719   4.030  68.269  1.00  0.00    -0.087 Mg 
HETATM    2  C   UNL     2     -11.504   9.877  69.542  1.00  0.00    -0.068 C  
HETATM    3  O   UNL     2     -11.719  10.485  68.261  1.00  0.00    -0.401 OA 
HETATM    4  C   UNL     3     -11.123   5.923  69.950  1.00  0.00    -0.347 C  
HETATM    5  H   UNL     2      -7.442   9.783  68.831  1.00  0.00     0.000 HD 
HETATM    6  O   UNL     3     -11.644   6.647  68.788  1.00  0.00    -0.091 OA 
HETATM    7  O   UNL     3      -8.335   6.025  67.589  1.00  0.00    -0.109 OA 
HETATM    8  C   UNL     3      -9.715   5.576  69.465  1.00  0.00    -0.161 C  
HETATM    9  C   UNL     2     -10.528  10.645  67.620  1.00  0.00    -0.227 C  
HETATM   10  O   UNL     2      -9.495   9.410  70.770  1.00  0.00    -0.258 OA 
HETATM   11  C   UNL     3     -10.648   6.987  67.934  1.00  0.00    -0.218 C  
HETATM   12  C   UNL     2      -9.462  10.210  68.536  1.00  0.00    -0.158 C  
HETATM   13  O   UNL     2      -8.131  10.064  68.239  1.00  0.00    -0.102 OA 
HETATM   14  O   UNL     2     -10.383  11.082  66.493  1.00  0.00    -0.229 OA 
HETATM   15  C   UNL     2      -9.991   9.855  69.706  1.00  0.00    -0.243 C  
HETATM   16  O   UNL     3      -9.159   4.545  69.938  1.00  0.00    -0.092 OA 
HETATM   17  H   UNL     3      -7.543   5.601  67.897  1.00  0.00     0.000 HD 
HETATM   18  C   UNL     3      -9.421   6.330  68.411  1.00  0.00    -0.118 C  
HETATM   19  O   UNL     3     -10.760   7.417  66.801  1.00  0.00    -0.319 OA 
ENDROOT
BRANCH   2  20
HETATM   20  C   UNL     2     -12.464  10.457  70.589  1.00  0.00    -0.348 C  
HETATM   21  O   UNL     2     -12.352   9.848  71.891  1.00  0.00    -0.380 OA 
HETATM   22  H   UNL     2     -12.946  10.207  72.539  1.00  0.00     0.000 HD 
BRANCH  20  23
HETATM   23  C   UNL     2     -12.382  11.969  70.721  1.00  0.00    -0.308 C  
HETATM   24  H   UNL     2     -13.133  13.332  71.915  1.00  0.00     0.000 HD 
HETATM   25  O   UNL     2     -13.184  12.387  71.832  1.00  0.00    -0.464 OA 
ENDBRANCH  20  23
ENDBRANCH   2  20
BRANCH   4  26
HETATM   26  C   UNL     3     -11.448   6.761  71.217  1.00  0.00    -0.302 C  
HETATM   27  H   UNL     3     -13.088   7.444  72.032  1.00  0.00     0.000 HD 
HETATM   28  O   UNL     3     -12.889   6.931  71.257  1.00  0.00    -0.359 OA 
BRANCH  26  29
HETATM   29  C   UNL     3     -10.981   6.310  72.599  1.00  0.00    -0.252 C  
HETATM   30  O   UNL     3     -11.262   7.271  73.614  1.00  0.00    -0.570 OA 
HETATM   31  H   UNL     3     -10.972   6.990  74.473  1.00  0.00     0.000 HD 
ENDBRANCH  26  29
ENDBRANCH   4  26
TORSDOF 4
ENDMDL
MODEL       25
REMARK 921   NORMALIZED FREE ENERGY PREDICTED BY IDOCK:   -5.09 KCAL/MOL
REMARK 922        TOTAL FREE ENERGY PREDICTED BY IDOCK:   -7.30 KCAL/MOL
REMARK 923 INTER-LIGAND FREE ENERGY PREDICTED BY IDOCK:   -6.87 KCAL/MOL
REMARK 924 INTRA-LIGAND FREE ENERGY PREDICTED BY IDOCK:   -0.43 KCAL/MOL
REMARK 927      BINDING AFFINITY PREDICTED BY RF-SCORE:    0.00 PKD
ROOT
HETATM    1 MG   UNL     1     -11.075   8.265  71.032  1.00  0.00    -0.223 Mg 
HETATM    2  C   UNL     2      -9.827  12.456  66.088  1.00  0.00    -0.252 C  
HETATM    3  O   UNL     2      -9.673  11.636  64.921  1.00  0.00    -0.243 OA 
HETATM    4  C   UNL     3     -11.849  11.190  69.290  1.00  0.00    -0.352 C  
HETATM    5  H   UNL     2      -6.628  10.553  67.864  1.00  0.00     0.000 HD 
HETATM    6  O   UNL     3     -11.870  10.612  67.944  1.00  0.00    -0.485 OA 
HETATM    7  O   UNL     3      -9.602   8.313  69.476  1.00  0.00    -0.168 OA 
HETATM    8  C   UNL     3     -10.932  10.203  70.012  1.00  0.00    -0.307 C  
HETATM    9  C   UNL     2      -8.635  10.772  65.097  1.00  0.00    -0.128 C  
HETATM   10  O   UNL     2      -8.453  12.733  68.037  1.00  0.00    -0.159 OA 
HETATM   11  C   UNL     3     -10.888   9.690  67.790  1.00  0.00    -0.217 C  
HETATM   12  C   UNL     2      -8.010  11.079  66.394  1.00  0.00    -0.161 C  
HETATM   13  O   UNL     2      -7.031  10.356  67.027  1.00  0.00    -0.085 OA 
HETATM   14  O   UNL     2      -8.289   9.911  64.310  1.00  0.00    -0.144 OA 
HETATM   15  C   UNL     2      -8.617  12.126  66.949  1.00  0.00    -0.191 C  
HETATM   16  O   UNL     3     -11.082  10.052  71.258  1.00  0.00    -0.309 OA 
HETATM   17  H   UNL     3      -9.207   8.177  70.329  1.00  0.00     0.000 HD 
HETATM   18  C   UNL     3     -10.276   9.480  69.110  1.00  0.00    -0.201 C  
HETATM   19  O   UNL     3     -10.753   8.900  66.874  1.00  0.00    -0.230 OA 
ENDROOT
BRANCH   2  20
HETATM   20  C   UNL     2     -10.231  13.885  65.700  1.00  0.00    -0.328 C  
HETATM   21  O   UNL     2      -9.126  14.810  65.633  1.00  0.00    -0.433 OA 
HETATM   22  H   UNL     2      -9.376  15.694  65.393  1.00  0.00     0.000 HD 
BRANCH  20  23
HETATM   23  C   UNL     2     -11.045  13.963  64.419  1.00  0.00    -0.319 C  
HETATM   24  H   UNL     2     -12.947  14.038  63.950  1.00  0.00     0.000 HD 
HETATM   25  O   UNL     2     -12.439  13.989  64.750  1.00  0.00    -0.541 OA 
ENDBRANCH  20  23
ENDBRANCH   2  20
BRANCH   4  26
HETATM   26  C   UNL     3     -11.582  12.714  69.149  1.00  0.00    -0.320 C  
HETATM   27  H   UNL     3     -12.118  14.091  67.869  1.00  0.00     0.000 HD 
HETATM   28  O   UNL     3     -12.281  13.159  67.956  1.00  0.00    -0.260 OA 
BRANCH  26  29
HETATM   29  C   UNL     3     -11.913  13.679  70.285  1.00  0.00    -0.327 C  
HETATM   30  O   UNL     3     -10.883  14.638  70.507  1.00  0.00    -0.483 OA 
HETATM   31  H   UNL     3     -11.088  15.238  71.214  1.00  0.00     0.000 HD 
ENDBRANCH  26  29
ENDBRANCH   4  26
TORSDOF 4
ENDMDL
MODEL       26
REMARK 921   NORMALIZED FREE ENERGY PREDICTED BY IDOCK:   -5.08 KCAL/MOL
REMARK 922        TOTAL FREE ENERGY PREDICTED BY IDOCK:   -7.28 KCAL/MOL
REMARK 923 INTER-LIGAND FREE ENERGY PREDICTED BY IDOCK:   -6.10 KCAL/MOL
REMARK 924 INTRA-LIGAND FREE ENERGY PREDICTED BY IDOCK:   -1.18 KCAL/MOL
REMARK 927      BINDING AFFINITY PREDICTED BY RF-SCORE:    0.00 PKD
ROOT
HETATM    1 MG   UNL     1     -10.039   9.587  68.932  1.00  0.00    -0.157 Mg 
HETATM    2  C   UNL     2      -8.580  15.788  67.204  1.00  0.00    -0.201 C  
HETATM    3  O   UNL     2      -7.253  15.731  66.660  1.00  0.00    -0.168 OA 
HETATM    4  C   UNL     3     -10.930  12.563  67.339  1.00  0.00    -0.259 C  
HETATM    5  H   UNL     2      -7.170  14.407  70.825  1.00  0.00     0.000 HD 
HETATM    6  O   UNL     3      -9.707  12.733  66.553  1.00  0.00    -0.244 OA 
HETATM    7  O   UNL     3      -8.339  10.849  69.264  1.00  0.00    -0.318 OA 
HETATM    8  C   UNL     3     -10.413  11.704  68.493  1.00  0.00    -0.217 C  
HETATM    9  C   UNL     2      -6.386  15.275  67.606  1.00  0.00    -0.146 C  
HETATM   10  O   UNL     2      -9.400  15.514  69.443  1.00  0.00    -0.254 OA 
HETATM   11  C   UNL     3      -8.611  12.372  67.264  1.00  0.00    -0.185 C  
HETATM   12  C   UNL     2      -7.138  15.100  68.859  1.00  0.00    -0.125 C  
HETATM   13  O   UNL     2      -6.684  14.520  70.016  1.00  0.00    -0.160 OA 
HETATM   14  O   UNL     2      -5.199  15.064  67.436  1.00  0.00    -0.336 OA 
HETATM   15  C   UNL     2      -8.399  15.492  68.686  1.00  0.00    -0.172 C  
HETATM   16  O   UNL     3     -11.228  10.932  69.073  1.00  0.00    -0.223 OA 
HETATM   17  H   UNL     3      -8.646  10.454  70.071  1.00  0.00     0.000 HD 
HETATM   18  C   UNL     3      -9.085  11.760  68.515  1.00  0.00    -0.144 C  
HETATM   19  O   UNL     3      -7.478  12.213  66.848  1.00  0.00    -0.117 OA 
ENDROOT
BRANCH   2  20
HETATM   20  C   UNL     2      -9.337  17.010  66.667  1.00  0.00    -0.255 C  
HETATM   21  O   UNL     2     -10.608  17.241  67.308  1.00  0.00    -0.338 OA 
HETATM   22  H   UNL     2     -11.077  17.997  66.976  1.00  0.00     0.000 HD 
BRANCH  20  23
HETATM   23  C   UNL     2      -8.517  18.289  66.678  1.00  0.00    -0.265 C  
HETATM   24  H   UNL     2      -8.619  20.033  67.570  1.00  0.00     0.000 HD 
HETATM   25  O   UNL     2      -9.131  19.233  67.563  1.00  0.00    -0.290 OA 
ENDBRANCH  20  23
ENDBRANCH   2  20
BRANCH   4  26
HETATM   26  C   UNL     3     -11.594  13.959  67.495  1.00  0.00    -0.360 C  
HETATM   27  H   UNL     3     -12.959  14.951  66.509  1.00  0.00     0.000 HD 
HETATM   28  O   UNL     3     -12.554  14.097  66.414  1.00  0.00    -0.427 OA 
BRANCH  26  29
HETATM   29  C   UNL     3     -12.280  14.362  68.798  1.00  0.00    -0.165 C  
HETATM   30  O   UNL     3     -12.285  15.773  69.002  1.00  0.00    -0.575 OA 
HETATM   31  H   UNL     3     -12.712  16.024  69.812  1.00  0.00     0.000 HD 
ENDBRANCH  26  29
ENDBRANCH   4  26
TORSDOF 4
ENDMDL
MODEL       27
REMARK 921   NORMALIZED FREE ENERGY PREDICTED BY IDOCK:   -5.00 KCAL/MOL
REMARK 922        TOTAL FREE ENERGY PREDICTED BY IDOCK:   -7.18 KCAL/MOL
REMARK 923 INTER-LIGAND FREE ENERGY PREDICTED BY IDOCK:   -6.47 KCAL/MOL
REMARK 924 INTRA-LIGAND FREE ENERGY PREDICTED BY IDOCK:   -0.71 KCAL/MOL
REMARK 927      BINDING AFFINITY PREDICTED BY RF-SCORE:    0.00 PKD
ROOT
HETATM    1 MG   UNL     1     -13.369  13.379  63.001  1.00  0.00    -0.524 Mg 
HETATM    2  C   UNL     2      -8.264  12.064  66.971  1.00  0.00    -0.169 C  
HETATM    3  O   UNL     2      -7.548  10.996  66.333  1.00  0.00    -0.143 OA 
HETATM    4  C   UNL     3     -10.672  14.496  64.917  1.00  0.00    -0.429 C  
HETATM    5  H   UNL     2     -11.608   9.668  67.263  1.00  0.00     0.000 HD 
HETATM    6  O   UNL     3      -9.662  13.586  64.373  1.00  0.00    -0.047 OA 
HETATM    7  O   UNL     3     -12.556  11.567  63.806  1.00  0.00    -0.391 OA 
HETATM    8  C   UNL     3     -11.950  13.703  64.643  1.00  0.00    -0.407 C  
HETATM    9  C   UNL     2      -8.357   9.908  66.209  1.00  0.00    -0.125 C  
HETATM   10  O   UNL     2     -10.408  12.129  68.048  1.00  0.00    -0.193 OA 
HETATM   11  C   UNL     3     -10.178  12.352  64.156  1.00  0.00    -0.351 C  
HETATM   12  C   UNL     2      -9.637  10.222  66.864  1.00  0.00    -0.173 C  
HETATM   13  O   UNL     2     -10.781   9.465  66.840  1.00  0.00    -0.205 OA 
HETATM   14  O   UNL     2      -8.060   8.863  65.659  1.00  0.00    -0.104 OA 
HETATM   15  C   UNL     2      -9.577  11.434  67.412  1.00  0.00    -0.174 C  
HETATM   16  O   UNL     3     -13.028  14.344  64.483  1.00  0.00    -0.560 OA 
HETATM   17  H   UNL     3     -13.493  11.625  63.949  1.00  0.00     0.000 HD 
HETATM   18  C   UNL     3     -11.629  12.440  64.378  1.00  0.00    -0.354 C  
HETATM   19  O   UNL     3      -9.666  11.433  63.542  1.00  0.00    -0.286 OA 
ENDROOT
BRANCH   2  20
HETATM   20  C   UNL     2      -7.341  12.853  67.911  1.00  0.00    -0.127 C  
HETATM   21  O   UNL     2      -7.821  14.174  68.231  1.00  0.00    -0.120 OA 
HETATM   22  H   UNL     2      -7.250  14.662  68.812  1.00  0.00     0.000 HD 
BRANCH  20  23
HETATM   23  C   UNL     2      -6.993  12.109  69.190  1.00  0.00    -0.053 C  
HETATM   24  H   UNL     2      -5.431  11.965  70.367  1.00  0.00     0.000 HD 
HETATM   25  O   UNL     2      -5.649  12.430  69.568  1.00  0.00    -0.076 OA 
ENDBRANCH  20  23
ENDBRANCH   2  20
BRANCH   4  26
HETATM   26  C   UNL     3     -10.193  14.956  66.320  1.00  0.00    -0.294 C  
HETATM   27  H   UNL     3      -9.068  16.412  66.981  1.00  0.00     0.000 HD 
HETATM   28  O   UNL     3      -9.362  16.131  66.122  1.00  0.00    -0.286 OA 
BRANCH  26  29
HETATM   29  C   UNL     3     -11.194  15.261  67.433  1.00  0.00    -0.311 C  
HETATM   30  O   UNL     3     -12.232  14.288  67.518  1.00  0.00    -0.571 OA 
HETATM   31  H   UNL     3     -12.855  14.477  68.210  1.00  0.00     0.000 HD 
ENDBRANCH  26  29
ENDBRANCH   4  26
TORSDOF 4
ENDMDL
MODEL       28
REMARK 921   NORMALIZED FREE ENERGY PREDICTED BY IDOCK:   -5.00 KCAL/MOL
REMARK 922        TOTAL FREE ENERGY PREDICTED BY IDOCK:   -7.18 KCAL/MOL
REMARK 923 INTER-LIGAND FREE ENERGY PREDICTED BY IDOCK:   -6.18 KCAL/MOL
REMARK 924 INTRA-LIGAND FREE ENERGY PREDICTED BY IDOCK:   -0.99 KCAL/MOL
REMARK 927      BINDING AFFINITY PREDICTED BY RF-SCORE:    0.00 PKD
ROOT
HETATM    1 MG   UNL     1     -12.357   9.983  70.194  1.00  0.00    -0.258 Mg 
HETATM    2  C   UNL     2     -10.656  15.803  67.587  1.00  0.00    -0.301 C  
HETATM    3  O   UNL     2     -10.805  15.645  66.168  1.00  0.00    -0.314 OA 
HETATM    4  C   UNL     3     -12.601  13.466  70.174  1.00  0.00    -0.077 C  
HETATM    5  H   UNL     2      -7.825  12.805  67.637  1.00  0.00     0.000 HD 
HETATM    6  O   UNL     3     -12.882  13.630  68.746  1.00  0.00     0.602 OA 
HETATM    7  O   UNL     3     -11.067  10.556  68.582  1.00  0.00    -0.236 OA 
HETATM    8  C   UNL     3     -11.871  12.122  70.171  1.00  0.00    -0.287 C  
HETATM    9  C   UNL     2      -9.981  14.656  65.725  1.00  0.00    -0.338 C  
HETATM   10  O   UNL     2      -9.077  14.875  69.139  1.00  0.00    -0.192 OA 
HETATM   11  C   UNL     3     -12.157  12.761  68.000  1.00  0.00    -0.121 C  
HETATM   12  C   UNL     2      -9.183  14.189  66.870  1.00  0.00    -0.257 C  
HETATM   13  O   UNL     2      -8.340  13.107  66.897  1.00  0.00    -0.129 OA 
HETATM   14  O   UNL     2      -9.918  14.247  64.580  1.00  0.00    -0.178 OA 
HETATM   15  C   UNL     2      -9.478  14.911  67.949  1.00  0.00    -0.200 C  
HETATM   16  O   UNL     3     -11.933  11.408  71.212  1.00  0.00    -0.117 OA 
HETATM   17  H   UNL     3     -10.634   9.961  69.183  1.00  0.00     0.000 HD 
HETATM   18  C   UNL     3     -11.486  11.840  68.930  1.00  0.00    -0.297 C  
HETATM   19  O   UNL     3     -12.293  12.509  66.817  1.00  0.00    -0.457 OA 
ENDROOT
BRANCH   2  20
HETATM   20  C   UNL     2     -10.757  17.282  67.984  1.00  0.00    -0.367 C  
HETATM   21  O   UNL     2     -10.611  17.521  69.399  1.00  0.00    -0.404 OA 
HETATM   22  H   UNL     2     -10.673  18.436  69.644  1.00  0.00     0.000 HD 
BRANCH  20  23
HETATM   23  C   UNL     2      -9.812  18.187  67.210  1.00  0.00    -0.314 C  
HETATM   24  H   UNL     2      -9.956  19.878  66.227  1.00  0.00     0.000 HD 
HETATM   25  O   UNL     2     -10.546  19.312  66.710  1.00  0.00    -0.411 OA 
ENDBRANCH  20  23
ENDBRANCH   2  20
BRANCH   4  26
HETATM   26  C   UNL     3     -12.008  14.801  70.699  1.00  0.00    -0.309 C  
HETATM   27  H   UNL     3     -12.524  16.682  70.568  1.00  0.00     0.000 HD 
HETATM   28  O   UNL     3     -12.888  15.865  70.247  1.00  0.00    -0.335 OA 
BRANCH  26  29
HETATM   29  C   UNL     3     -11.731  15.009  72.187  1.00  0.00    -0.349 C  
HETATM   30  O   UNL     3     -11.922  16.360  72.597  1.00  0.00    -0.538 OA 
HETATM   31  H   UNL     3     -11.750  16.489  73.522  1.00  0.00     0.000 HD 
ENDBRANCH  26  29
ENDBRANCH   4  26
TORSDOF 4
ENDMDL
MODEL       29
REMARK 921   NORMALIZED FREE ENERGY PREDICTED BY IDOCK:   -4.99 KCAL/MOL
REMARK 922        TOTAL FREE ENERGY PREDICTED BY IDOCK:   -7.17 KCAL/MOL
REMARK 923 INTER-LIGAND FREE ENERGY PREDICTED BY IDOCK:   -6.65 KCAL/MOL
REMARK 924 INTRA-LIGAND FREE ENERGY PREDICTED BY IDOCK:   -0.52 KCAL/MOL
REMARK 927      BINDING AFFINITY PREDICTED BY RF-SCORE:    0.00 PKD
ROOT
HETATM    1 MG   UNL     1     -11.086  13.074  62.336  1.00  0.00    -0.564 Mg 
HETATM    2  C   UNL     2     -10.519  11.791  68.786  1.00  0.00    -0.198 C  
HETATM    3  O   UNL     2     -11.651  12.422  69.402  1.00  0.00    -0.282 OA 
HETATM    4  C   UNL     3     -10.521  10.794  64.920  1.00  0.00    -0.254 C  
HETATM    5  H   UNL     2      -9.205  15.454  67.420  1.00  0.00     0.000 HD 
HETATM    6  O   UNL     3     -11.680  11.147  65.743  1.00  0.00     0.061 OA 
HETATM    7  O   UNL     3     -11.221  14.286  64.098  1.00  0.00    -0.599 OA 
HETATM    8  C   UNL     3     -10.315  12.094  64.142  1.00  0.00    -0.354 C  
HETATM    9  C   UNL     2     -11.615  13.764  69.170  1.00  0.00    -0.317 C  
HETATM   10  O   UNL     2      -8.556  12.699  67.746  1.00  0.00    -0.157 OA 
HETATM   11  C   UNL     3     -11.898  12.485  65.738  1.00  0.00    -0.437 C  
HETATM   12  C   UNL     2     -10.369  14.061  68.446  1.00  0.00    -0.251 C  
HETATM   13  O   UNL     2     -10.009  15.261  67.888  1.00  0.00    -0.225 OA 
HETATM   14  O   UNL     2     -12.464  14.565  69.515  1.00  0.00    -0.257 OA 
HETATM   15  C   UNL     2      -9.656  12.946  68.300  1.00  0.00    -0.212 C  
HETATM   16  O   UNL     3      -9.779  12.027  63.000  1.00  0.00    -0.383 OA 
HETATM   17  H   UNL     3     -10.632  14.665  63.456  1.00  0.00     0.000 HD 
HETATM   18  C   UNL     3     -10.986  13.071  64.744  1.00  0.00    -0.327 C  
HETATM   19  O   UNL     3     -12.876  13.076  66.156  1.00  0.00    -0.209 OA 
ENDROOT
BRANCH   2  20
HETATM   20  C   UNL     2      -9.992  10.644  69.659  1.00  0.00    -0.050 C  
HETATM   21  O   UNL     2     -10.808   9.456  69.623  1.00  0.00    -0.235 OA 
HETATM   22  H   UNL     2     -10.482   8.746  70.163  1.00  0.00     0.000 HD 
BRANCH  20  23
HETATM   23  C   UNL     2      -8.543  10.281  69.380  1.00  0.00    -0.156 C  
HETATM   24  H   UNL     2      -7.025   9.603  70.420  1.00  0.00     0.000 HD 
HETATM   25  O   UNL     2      -7.931   9.830  70.594  1.00  0.00    -0.272 OA 
ENDBRANCH  20  23
ENDBRANCH   2  20
BRANCH   4  26
HETATM   26  C   UNL     3      -9.464  10.132  65.845  1.00  0.00    -0.196 C  
HETATM   27  H   UNL     3      -9.285   8.383  66.698  1.00  0.00     0.000 HD 
HETATM   28  O   UNL     3      -9.931   8.788  66.132  1.00  0.00    -0.275 OA 
BRANCH  26  29
HETATM   29  C   UNL     3      -7.996  10.050  65.430  1.00  0.00    -0.141 C  
HETATM   30  O   UNL     3      -7.286  11.259  65.687  1.00  0.00    -0.359 OA 
HETATM   31  H   UNL     3      -6.373  11.208  65.428  1.00  0.00     0.000 HD 
ENDBRANCH  26  29
ENDBRANCH   4  26
TORSDOF 4
ENDMDL
MODEL       30
REMARK 921   NORMALIZED FREE ENERGY PREDICTED BY IDOCK:   -4.99 KCAL/MOL
REMARK 922        TOTAL FREE ENERGY PREDICTED BY IDOCK:   -7.17 KCAL/MOL
REMARK 923 INTER-LIGAND FREE ENERGY PREDICTED BY IDOCK:   -6.05 KCAL/MOL
REMARK 924 INTRA-LIGAND FREE ENERGY PREDICTED BY IDOCK:   -1.11 KCAL/MOL
REMARK 927      BINDING AFFINITY PREDICTED BY RF-SCORE:    0.00 PKD
ROOT
HETATM    1 MG   UNL     1      -6.774   9.076  63.684  1.00  0.00    -0.084 Mg 
HETATM    2  C   UNL     2     -10.965  11.224  68.308  1.00  0.00    -0.224 C  
HETATM    3  O   UNL     2     -12.065  11.800  67.590  1.00  0.00    -0.598 OA 
HETATM    4  C   UNL     3      -8.553   8.517  66.636  1.00  0.00    -0.115 C  
HETATM    5  H   UNL     2      -8.398  13.964  66.601  1.00  0.00     0.000 HD 
HETATM    6  O   UNL     3      -9.866   8.951  66.153  1.00  0.00    -0.271 OA 
HETATM    7  O   UNL     3      -7.823  10.921  63.981  1.00  0.00    -0.343 OA 
HETATM    8  C   UNL     3      -7.631   9.290  65.693  1.00  0.00    -0.094 C  
HETATM    9  C   UNL     2     -11.624  12.832  66.819  1.00  0.00    -0.370 C  
HETATM   10  O   UNL     2      -8.688  11.935  68.579  1.00  0.00    -0.165 OA 
HETATM   11  C   UNL     3      -9.759  10.032  65.343  1.00  0.00    -0.302 C  
HETATM   12  C   UNL     2     -10.189  13.017  67.093  1.00  0.00    -0.243 C  
HETATM   13  O   UNL     2      -9.324  13.845  66.424  1.00  0.00    -0.266 OA 
HETATM   14  O   UNL     2     -12.306  13.485  66.051  1.00  0.00    -0.433 OA 
HETATM   15  C   UNL     2      -9.798  12.163  68.037  1.00  0.00    -0.202 C  
HETATM   16  O   UNL     3      -6.491   8.804  65.442  1.00  0.00    -0.065 OA 
HETATM   17  H   UNL     3      -6.897  11.065  63.824  1.00  0.00     0.000 HD 
HETATM   18  C   UNL     3      -8.326  10.256  65.100  1.00  0.00    -0.161 C  
HETATM   19  O   UNL     3     -10.624  10.514  64.634  1.00  0.00    -0.250 OA 
ENDROOT
BRANCH   2  20
HETATM   20  C   UNL     2     -11.399  10.793  69.716  1.00  0.00    -0.300 C  
HETATM   21  O   UNL     2     -10.335  10.237  70.514  1.00  0.00    -0.410 OA 
HETATM   22  H   UNL     2     -10.603   9.969  71.385  1.00  0.00     0.000 HD 
BRANCH  20  23
HETATM   23  C   UNL     2     -12.109  11.886  70.497  1.00  0.00    -0.331 C  
HETATM   24  H   UNL     2     -13.435  11.965  71.940  1.00  0.00     0.000 HD 
HETATM   25  O   UNL     2     -12.992  11.282  71.451  1.00  0.00    -0.407 OA 
ENDBRANCH  20  23
ENDBRANCH   2  20
BRANCH   4  26
HETATM   26  C   UNL     3      -8.551   8.641  68.184  1.00  0.00    -0.141 C  
HETATM   27  H   UNL     3      -9.724   8.014  69.616  1.00  0.00     0.000 HD 
HETATM   28  O   UNL     3      -9.726   7.938  68.669  1.00  0.00    -0.153 OA 
BRANCH  26  29
HETATM   29  C   UNL     3      -7.347   8.187  69.008  1.00  0.00    -0.083 C  
HETATM   30  O   UNL     3      -6.132   8.799  68.586  1.00  0.00    -0.044 OA 
HETATM   31  H   UNL     3      -5.383   8.516  69.097  1.00  0.00     0.000 HD 
ENDBRANCH  26  29
ENDBRANCH   4  26
TORSDOF 4
ENDMDL
MODEL       31
REMARK 921   NORMALIZED FREE ENERGY PREDICTED BY IDOCK:   -4.97 KCAL/MOL
REMARK 922        TOTAL FREE ENERGY PREDICTED BY IDOCK:   -7.15 KCAL/MOL
REMARK 923 INTER-LIGAND FREE ENERGY PREDICTED BY IDOCK:   -6.09 KCAL/MOL
REMARK 924 INTRA-LIGAND FREE ENERGY PREDICTED BY IDOCK:   -1.05 KCAL/MOL
REMARK 927      BINDING AFFINITY PREDICTED BY RF-SCORE:    0.00 PKD
ROOT
HETATM    1 MG   UNL     1      -9.504   7.954  67.869  1.00  0.00    -0.137 Mg 
HETATM    2  C   UNL     2     -10.473  14.297  66.323  1.00  0.00    -0.291 C  
HETATM    3  O   UNL     2     -11.885  14.513  66.461  1.00  0.00    -0.383 OA 
HETATM    4  C   UNL     3      -8.613  11.312  68.213  1.00  0.00    -0.153 C  
HETATM    5  H   UNL     2     -11.178  11.466  63.408  1.00  0.00     0.000 HD 
HETATM    6  O   UNL     3      -9.951  11.838  68.491  1.00  0.00    -0.205 OA 
HETATM    7  O   UNL     3     -10.894   8.964  66.588  1.00  0.00    -0.072 OA 
HETATM    8  C   UNL     3      -8.959  10.036  67.445  1.00  0.00    -0.131 C  
HETATM    9  C   UNL     2     -12.563  13.697  65.607  1.00  0.00    -0.484 C  
HETATM   10  O   UNL     2      -9.201  13.036  64.725  1.00  0.00     0.608 OA 
HETATM   11  C   UNL     3     -10.890  11.215  67.738  1.00  0.00    -0.239 C  
HETATM   12  C   UNL     2     -11.571  12.966  64.801  1.00  0.00    -0.331 C  
HETATM   13  O   UNL     2     -11.818  11.937  63.928  1.00  0.00    -0.412 OA 
HETATM   14  O   UNL     2     -13.774  13.604  65.527  1.00  0.00    -0.234 OA 
HETATM   15  C   UNL     2     -10.344  13.372  65.121  1.00  0.00    -0.336 C  
HETATM   16  O   UNL     3      -8.143   9.073  67.491  1.00  0.00    -0.107 OA 
HETATM   17  H   UNL     3     -10.464   8.243  66.142  1.00  0.00     0.000 HD 
HETATM   18  C   UNL     3     -10.226  10.100  67.046  1.00  0.00    -0.234 C  
HETATM   19  O   UNL     3     -12.099  11.279  67.862  1.00  0.00    -0.634 OA 
ENDROOT
BRANCH   2  20
HETATM   20  C   UNL     2      -9.704  15.617  66.467  1.00  0.00    -0.266 C  
HETATM   21  O   UNL     2      -8.291  15.504  66.203  1.00  0.00    -0.363 OA 
HETATM   22  H   UNL     2      -7.814  16.320  66.293  1.00  0.00     0.000 HD 
BRANCH  20  23
HETATM   23  C   UNL     2     -10.289  16.757  65.651  1.00  0.00    -0.265 C  
HETATM   24  H   UNL     2      -9.925  18.670  65.421  1.00  0.00     0.000 HD 
HETATM   25  O   UNL     2      -9.559  17.957  65.931  1.00  0.00    -0.525 OA 
ENDBRANCH  20  23
ENDBRANCH   2  20
BRANCH   4  26
HETATM   26  C   UNL     3      -7.749  12.479  67.660  1.00  0.00    -0.151 C  
HETATM   27  H   UNL     3      -7.377  14.309  68.237  1.00  0.00     0.000 HD 
HETATM   28  O   UNL     3      -7.905  13.595  68.575  1.00  0.00    -0.136 OA 
BRANCH  26  29
HETATM   29  C   UNL     3      -6.259  12.291  67.383  1.00  0.00    -0.153 C  
HETATM   30  O   UNL     3      -6.007  11.712  66.105  1.00  0.00    -0.461 OA 
HETATM   31  H   UNL     3      -5.080  11.595  65.933  1.00  0.00     0.000 HD 
ENDBRANCH  26  29
ENDBRANCH   4  26
TORSDOF 4
ENDMDL
MODEL       32
REMARK 921   NORMALIZED FREE ENERGY PREDICTED BY IDOCK:   -4.97 KCAL/MOL
REMARK 922        TOTAL FREE ENERGY PREDICTED BY IDOCK:   -7.15 KCAL/MOL
REMARK 923 INTER-LIGAND FREE ENERGY PREDICTED BY IDOCK:   -5.84 KCAL/MOL
REMARK 924 INTRA-LIGAND FREE ENERGY PREDICTED BY IDOCK:   -1.30 KCAL/MOL
REMARK 927      BINDING AFFINITY PREDICTED BY RF-SCORE:    0.00 PKD
ROOT
HETATM    1 MG   UNL     1     -12.292  12.041  69.306  1.00  0.00    -0.265 Mg 
HETATM    2  C   UNL     2      -9.247   6.193  69.608  1.00  0.00    -0.143 C  
HETATM    3  O   UNL     2      -8.288   6.205  68.540  1.00  0.00    -0.113 OA 
HETATM    4  C   UNL     3     -10.683   9.571  71.178  1.00  0.00    -0.338 C  
HETATM    5  H   UNL     2     -12.309   6.641  66.881  1.00  0.00     0.000 HD 
HETATM    6  O   UNL     3      -9.501   9.424  70.325  1.00  0.00    -0.215 OA 
HETATM    7  O   UNL     3     -11.812  10.551  67.843  1.00  0.00    -0.731 OA 
HETATM    8  C   UNL     3     -11.698  10.114  70.171  1.00  0.00    -0.256 C  
HETATM    9  C   UNL     2      -8.927   6.357  67.347  1.00  0.00    -0.109 C  
HETATM   10  O   UNL     2     -11.645   6.099  69.598  1.00  0.00    -0.407 OA 
HETATM   11  C   UNL     3      -9.830   9.506  69.012  1.00  0.00    -0.176 C  
HETATM   12  C   UNL     2     -10.375   6.361  67.610  1.00  0.00    -0.197 C  
HETATM   13  O   UNL     2     -11.373   6.639  66.711  1.00  0.00    -0.270 OA 
HETATM   14  O   UNL     2      -8.386   6.462  66.262  1.00  0.00    -0.113 OA 
HETATM   15  C   UNL     2     -10.598   6.159  68.908  1.00  0.00    -0.276 C  
HETATM   16  O   UNL     3     -12.637  10.840  70.605  1.00  0.00    -0.329 OA 
HETATM   17  H   UNL     3     -12.726  10.807  67.796  1.00  0.00     0.000 HD 
HETATM   18  C   UNL     3     -11.244   9.902  68.940  1.00  0.00    -0.079 C  
HETATM   19  O   UNL     3      -9.072   9.615  68.066  1.00  0.00    -0.126 OA 
ENDROOT
BRANCH   2  20
HETATM   20  C   UNL     2      -8.832   5.200  70.702  1.00  0.00    -0.128 C  
HETATM   21  O   UNL     2      -9.764   5.110  71.798  1.00  0.00    -0.151 OA 
HETATM   22  H   UNL     2      -9.507   4.496  72.476  1.00  0.00     0.000 HD 
BRANCH  20  23
HETATM   23  C   UNL     2      -8.522   3.808  70.177  1.00  0.00    -0.060 C  
HETATM   24  H   UNL     2      -9.547   2.187  69.765  1.00  0.00     0.000 HD 
HETATM   25  O   UNL     2      -9.740   3.057  70.093  1.00  0.00    -0.124 OA 
ENDBRANCH  20  23
ENDBRANCH   2  20
BRANCH   4  26
HETATM   26  C   UNL     3     -10.849   8.259  71.991  1.00  0.00    -0.301 C  
HETATM   27  H   UNL     3     -10.020   7.525  73.602  1.00  0.00     0.000 HD 
HETATM   28  O   UNL     3      -9.919   8.328  73.105  1.00  0.00    -0.246 OA 
BRANCH  26  29
HETATM   29  C   UNL     3     -12.213   7.836  72.533  1.00  0.00    -0.147 C  
HETATM   30  O   UNL     3     -12.425   6.429  72.447  1.00  0.00    -0.543 OA 
HETATM   31  H   UNL     3     -13.273   6.166  72.783  1.00  0.00     0.000 HD 
ENDBRANCH  26  29
ENDBRANCH   4  26
TORSDOF 4
ENDMDL
MODEL       33
REMARK 921   NORMALIZED FREE ENERGY PREDICTED BY IDOCK:   -4.96 KCAL/MOL
REMARK 922        TOTAL FREE ENERGY PREDICTED BY IDOCK:   -7.13 KCAL/MOL
REMARK 923 INTER-LIGAND FREE ENERGY PREDICTED BY IDOCK:   -5.77 KCAL/MOL
REMARK 924 INTRA-LIGAND FREE ENERGY PREDICTED BY IDOCK:   -1.36 KCAL/MOL
REMARK 927      BINDING AFFINITY PREDICTED BY RF-SCORE:    0.00 PKD
ROOT
HETATM    1 MG   UNL     1     -13.266   6.242  72.634  1.00  0.00    -0.495 Mg 
HETATM    2  C   UNL     2      -8.920  10.038  69.430  1.00  0.00    -0.194 C  
HETATM    3  O   UNL     2      -9.704  11.039  68.764  1.00  0.00    -0.188 OA 
HETATM    4  C   UNL     3     -10.295   8.077  72.624  1.00  0.00    -0.329 C  
HETATM    5  H   UNL     2     -10.852   7.085  67.295  1.00  0.00     0.000 HD 
HETATM    6  O   UNL     3     -10.834   9.309  72.043  1.00  0.00    -0.309 OA 
HETATM    7  O   UNL     3     -13.160   6.993  70.630  1.00  0.00    -0.541 OA 
HETATM    8  C   UNL     3     -11.297   7.050  72.097  1.00  0.00    -0.265 C  
HETATM    9  C   UNL     2     -10.565  10.446  67.891  1.00  0.00    -0.232 C  
HETATM   10  O   UNL     2      -8.691   7.678  69.054  1.00  0.00    -0.135 OA 
HETATM   11  C   UNL     3     -11.743   9.039  71.074  1.00  0.00    -0.296 C  
HETATM   12  C   UNL     2     -10.293   8.999  67.904  1.00  0.00    -0.235 C  
HETATM   13  O   UNL     2     -11.027   8.019  67.287  1.00  0.00    -0.175 OA 
HETATM   14  O   UNL     2     -11.400  11.022  67.218  1.00  0.00    -0.408 OA 
HETATM   15  C   UNL     2      -9.266   8.742  68.712  1.00  0.00    -0.141 C  
HETATM   16  O   UNL     3     -11.486   5.999  72.775  1.00  0.00    -0.267 OA 
HETATM   17  H   UNL     3     -13.319   6.057  70.645  1.00  0.00     0.000 HD 
HETATM   18  C   UNL     3     -11.989   7.589  71.098  1.00  0.00    -0.308 C  
HETATM   19  O   UNL     3     -12.505   9.821  70.536  1.00  0.00    -0.188 OA 
ENDROOT
BRANCH   2  20
HETATM   20  C   UNL     2      -7.483  10.530  69.651  1.00  0.00    -0.141 C  
HETATM   21  O   UNL     2      -6.561   9.492  70.040  1.00  0.00    -0.052 OA 
HETATM   22  H   UNL     2      -5.672   9.796  70.177  1.00  0.00     0.000 HD 
BRANCH  20  23
HETATM   23  C   UNL     2      -6.916  11.306  68.474  1.00  0.00    -0.078 C  
HETATM   24  H   UNL     2      -6.114  10.866  66.739  1.00  0.00     0.000 HD 
HETATM   25  O   UNL     2      -6.469  10.382  67.474  1.00  0.00    -0.058 OA 
ENDBRANCH  20  23
ENDBRANCH   2  20
BRANCH   4  26
HETATM   26  C   UNL     3      -8.767   8.051  72.353  1.00  0.00    -0.167 C  
HETATM   27  H   UNL     3      -7.199   8.813  73.238  1.00  0.00     0.000 HD 
HETATM   28  O   UNL     3      -8.135   8.829  73.404  1.00  0.00    -0.402 OA 
BRANCH  26  29
HETATM   29  C   UNL     3      -8.014   6.729  72.217  1.00  0.00    -0.095 C  
HETATM   30  O   UNL     3      -7.012   6.770  71.204  1.00  0.00    -0.067 OA 
HETATM   31  H   UNL     3      -6.544   5.948  71.119  1.00  0.00     0.000 HD 
ENDBRANCH  26  29
ENDBRANCH   4  26
TORSDOF 4
ENDMDL
MODEL       34
REMARK 921   NORMALIZED FREE ENERGY PREDICTED BY IDOCK:   -4.95 KCAL/MOL
REMARK 922        TOTAL FREE ENERGY PREDICTED BY IDOCK:   -7.11 KCAL/MOL
REMARK 923 INTER-LIGAND FREE ENERGY PREDICTED BY IDOCK:   -6.01 KCAL/MOL
REMARK 924 INTRA-LIGAND FREE ENERGY PREDICTED BY IDOCK:   -1.11 KCAL/MOL
REMARK 927      BINDING AFFINITY PREDICTED BY RF-SCORE:    0.00 PKD
ROOT
HETATM    1 MG   UNL     1     -11.673  11.601  71.232  1.00  0.00    -0.277 Mg 
HETATM    2  C   UNL     2      -9.629  10.556  65.043  1.00  0.00    -0.276 C  
HETATM    3  O   UNL     2      -9.532   9.130  64.908  1.00  0.00    -0.113 OA 
HETATM    4  C   UNL     3     -11.955  12.247  67.812  1.00  0.00    -0.159 C  
HETATM    5  H   UNL     2      -6.808  10.474  68.052  1.00  0.00     0.000 HD 
HETATM    6  O   UNL     3     -11.991  10.856  67.357  1.00  0.00    -0.343 OA 
HETATM    7  O   UNL     3     -10.134  10.381  70.373  1.00  0.00    -0.375 OA 
HETATM    8  C   UNL     3     -11.218  12.095  69.143  1.00  0.00    -0.244 C  
HETATM    9  C   UNL     2      -8.631   8.641  65.805  1.00  0.00    -0.163 C  
HETATM   10  O   UNL     2      -8.325  12.131  66.300  1.00  0.00     0.020 OA 
HETATM   11  C   UNL     3     -11.138  10.083  68.072  1.00  0.00    -0.201 C  
HETATM   12  C   UNL     2      -8.034   9.786  66.511  1.00  0.00    -0.112 C  
HETATM   13  O   UNL     2      -7.194   9.735  67.595  1.00  0.00    -0.087 OA 
HETATM   14  O   UNL     2      -8.369   7.465  65.975  1.00  0.00    -0.128 OA 
HETATM   15  C   UNL     2      -8.517  10.923  66.016  1.00  0.00    -0.167 C  
HETATM   16  O   UNL     3     -11.447  12.943  70.051  1.00  0.00    -0.162 OA 
HETATM   17  H   UNL     3      -9.803  10.913  71.086  1.00  0.00     0.000 HD 
HETATM   18  C   UNL     3     -10.624  10.906  69.176  1.00  0.00    -0.220 C  
HETATM   19  O   UNL     3     -11.068   8.867  68.077  1.00  0.00     0.018 OA 
ENDROOT
BRANCH   2  20
HETATM   20  C   UNL     2      -9.815  11.222  63.673  1.00  0.00    -0.340 C  
HETATM   21  O   UNL     2      -9.661  12.656  63.692  1.00  0.00    -0.672 OA 
HETATM   22  H   UNL     2      -9.776  13.068  62.844  1.00  0.00     0.000 HD 
BRANCH  20  23
HETATM   23  C   UNL     2      -8.941  10.626  62.582  1.00  0.00    -0.284 C  
HETATM   24  H   UNL     2      -7.018  10.378  62.281  1.00  0.00     0.000 HD 
HETATM   25  O   UNL     2      -7.565  10.750  62.963  1.00  0.00    -0.037 OA 
ENDBRANCH  20  23
ENDBRANCH   2  20
BRANCH   4  26
HETATM   26  C   UNL     3     -11.477  13.125  66.623  1.00  0.00    -0.348 C  
HETATM   27  H   UNL     3     -12.052  13.363  64.770  1.00  0.00     0.000 HD 
HETATM   28  O   UNL     3     -12.345  12.826  65.498  1.00  0.00    -0.496 OA 
BRANCH  26  29
HETATM   29  C   UNL     3     -11.373  14.643  66.758  1.00  0.00    -0.356 C  
HETATM   30  O   UNL     3     -12.133  15.149  67.852  1.00  0.00    -0.484 OA 
HETATM   31  H   UNL     3     -12.069  16.093  67.936  1.00  0.00     0.000 HD 
ENDBRANCH  26  29
ENDBRANCH   4  26
TORSDOF 4
ENDMDL
MODEL       35
REMARK 921   NORMALIZED FREE ENERGY PREDICTED BY IDOCK:   -4.95 KCAL/MOL
REMARK 922        TOTAL FREE ENERGY PREDICTED BY IDOCK:   -7.11 KCAL/MOL
REMARK 923 INTER-LIGAND FREE ENERGY PREDICTED BY IDOCK:   -5.95 KCAL/MOL
REMARK 924 INTRA-LIGAND FREE ENERGY PREDICTED BY IDOCK:   -1.17 KCAL/MOL
REMARK 927      BINDING AFFINITY PREDICTED BY RF-SCORE:    0.00 PKD
ROOT
HETATM    1 MG   UNL     1     -10.832  11.233  66.421  1.00  0.00    -0.218 Mg 
HETATM    2  C   UNL     2      -9.326   6.165  70.373  1.00  0.00    -0.161 C  
HETATM    3  O   UNL     2      -8.147   5.575  69.807  1.00  0.00    -0.097 OA 
HETATM    4  C   UNL     3     -10.340   9.955  69.634  1.00  0.00    -0.241 C  
HETATM    5  H   UNL     2     -11.409   5.361  66.905  1.00  0.00     0.000 HD 
HETATM    6  O   UNL     3      -9.041   9.323  69.391  1.00  0.00    -0.141 OA 
HETATM    7  O   UNL     3     -10.331   9.180  66.062  1.00  0.00    -0.287 OA 
HETATM    8  C   UNL     3     -10.917   9.976  68.218  1.00  0.00    -0.227 C  
HETATM    9  C   UNL     2      -8.408   5.143  68.542  1.00  0.00    -0.089 C  
HETATM   10  O   UNL     2     -11.602   6.229  69.611  1.00  0.00    -0.430 OA 
HETATM   11  C   UNL     3      -8.995   8.750  68.164  1.00  0.00    -0.141 C  
HETATM   12  C   UNL     2      -9.838   5.369  68.276  1.00  0.00    -0.150 C  
HETATM   13  O   UNL     2     -10.485   5.215  67.077  1.00  0.00    -0.231 OA 
HETATM   14  O   UNL     2      -7.597   4.649  67.781  1.00  0.00    -0.077 OA 
HETATM   15  C   UNL     2     -10.425   5.866  69.363  1.00  0.00    -0.275 C  
HETATM   16  O   UNL     3     -11.753  10.879  67.928  1.00  0.00    -0.557 OA 
HETATM   17  H   UNL     3     -11.123   9.434  65.602  1.00  0.00     0.000 HD 
HETATM   18  C   UNL     3     -10.220   9.142  67.452  1.00  0.00    -0.247 C  
HETATM   19  O   UNL     3      -8.014   8.318  67.586  1.00  0.00    -0.114 OA 
ENDROOT
BRANCH   2  20
HETATM   20  C   UNL     2      -9.435   5.838  71.869  1.00  0.00    -0.151 C  
HETATM   21  O   UNL     2     -10.696   6.209  72.461  1.00  0.00    -0.205 OA 
HETATM   22  H   UNL     2     -10.763   6.008  73.386  1.00  0.00     0.000 HD 
BRANCH  20  23
HETATM   23  C   UNL     2      -9.118   4.390  72.201  1.00  0.00    -0.121 C  
HETATM   24  H   UNL     2     -10.141   2.735  72.448  1.00  0.00     0.000 HD 
HETATM   25  O   UNL     2     -10.339   3.640  72.241  1.00  0.00    -0.156 OA 
ENDBRANCH  20  23
ENDBRANCH   2  20
BRANCH   4  26
HETATM   26  C   UNL     3     -10.993   9.248  70.852  1.00  0.00    -0.299 C  
HETATM   27  H   UNL     3     -10.392   8.769  72.649  1.00  0.00     0.000 HD 
HETATM   28  O   UNL     3      -9.993   9.201  71.904  1.00  0.00    -0.308 OA 
BRANCH  26  29
HETATM   29  C   UNL     3     -12.298   9.765  71.455  1.00  0.00    -0.405 C  
HETATM   30  O   UNL     3     -13.335   9.896  70.487  1.00  0.00    -0.620 OA 
HETATM   31  H   UNL     3     -14.146  10.218  70.862  1.00  0.00     0.000 HD 
ENDBRANCH  26  29
ENDBRANCH   4  26
TORSDOF 4
ENDMDL
MODEL       36
REMARK 921   NORMALIZED FREE ENERGY PREDICTED BY IDOCK:   -4.93 KCAL/MOL
REMARK 922        TOTAL FREE ENERGY PREDICTED BY IDOCK:   -7.09 KCAL/MOL
REMARK 923 INTER-LIGAND FREE ENERGY PREDICTED BY IDOCK:   -5.85 KCAL/MOL
REMARK 924 INTRA-LIGAND FREE ENERGY PREDICTED BY IDOCK:   -1.24 KCAL/MOL
REMARK 927      BINDING AFFINITY PREDICTED BY RF-SCORE:    0.00 PKD
ROOT
HETATM    1 MG   UNL     1      -6.229   4.821  68.403  1.00  0.00    -0.023 Mg 
HETATM    2  C   UNL     2     -10.900   8.228  71.586  1.00  0.00    -0.256 C  
HETATM    3  O   UNL     2     -10.511   8.213  72.968  1.00  0.00    -0.325 OA 
HETATM    4  C   UNL     3      -8.252   7.656  68.654  1.00  0.00    -0.128 C  
HETATM    5  H   UNL     2     -11.161   4.112  71.599  1.00  0.00     0.000 HD 
HETATM    6  O   UNL     3      -7.966   7.972  70.055  1.00  0.00    -0.102 OA 
HETATM    7  O   UNL     3      -7.378   4.449  70.173  1.00  0.00    -0.045 OA 
HETATM    8  C   UNL     3      -7.955   6.156  68.631  1.00  0.00    -0.101 C  
HETATM    9  C   UNL     2     -10.457   6.929  73.417  1.00  0.00    -0.331 C  
HETATM   10  O   UNL     2     -11.706   6.494  70.136  1.00  0.00    -0.418 OA 
HETATM   11  C   UNL     3      -7.875   6.846  70.804  1.00  0.00    -0.097 C  
HETATM   12  C   UNL     2     -10.909   6.051  72.327  1.00  0.00    -0.245 C  
HETATM   13  O   UNL     2     -10.868   4.680  72.304  1.00  0.00    -0.136 OA 
HETATM   14  O   UNL     2     -10.104   6.582  74.530  1.00  0.00    -0.344 OA 
HETATM   15  C   UNL     2     -11.277   6.787  71.280  1.00  0.00    -0.276 C  
HETATM   16  O   UNL     3      -7.583   5.639  67.540  1.00  0.00    -0.087 OA 
HETATM   17  H   UNL     3      -7.404   3.710  69.576  1.00  0.00     0.000 HD 
HETATM   18  C   UNL     3      -7.916   5.702  69.880  1.00  0.00    -0.095 C  
HETATM   19  O   UNL     3      -7.465   6.748  71.946  1.00  0.00    -0.091 OA 
ENDROOT
BRANCH   2  20
HETATM   20  C   UNL     2     -11.812   9.427  71.291  1.00  0.00    -0.360 C  
HETATM   21  O   UNL     2     -12.201   9.541  69.907  1.00  0.00    -0.367 OA 
HETATM   22  H   UNL     2     -12.765  10.283  69.724  1.00  0.00     0.000 HD 
BRANCH  20  23
HETATM   23  C   UNL     2     -13.044   9.489  72.177  1.00  0.00    -0.436 C  
HETATM   24  H   UNL     2     -14.901   8.867  72.071  1.00  0.00     0.000 HD 
HETATM   25  O   UNL     2     -14.131   8.828  71.517  1.00  0.00    -0.395 OA 
ENDBRANCH  20  23
ENDBRANCH   2  20
BRANCH   4  26
HETATM   26  C   UNL     3      -9.618   8.299  68.290  1.00  0.00    -0.147 C  
HETATM   27  H   UNL     3     -10.287  10.132  68.171  1.00  0.00     0.000 HD 
HETATM   28  O   UNL     3      -9.451   9.738  68.393  1.00  0.00    -0.139 OA 
BRANCH  26  29
HETATM   29  C   UNL     3     -10.304   7.991  66.961  1.00  0.00    -0.344 C  
HETATM   30  O   UNL     3     -11.179   6.869  67.042  1.00  0.00    -0.562 OA 
HETATM   31  H   UNL     3     -11.605   6.676  66.216  1.00  0.00     0.000 HD 
ENDBRANCH  26  29
ENDBRANCH   4  26
TORSDOF 4
ENDMDL
MODEL       37
REMARK 921   NORMALIZED FREE ENERGY PREDICTED BY IDOCK:   -4.90 KCAL/MOL
REMARK 922        TOTAL FREE ENERGY PREDICTED BY IDOCK:   -7.06 KCAL/MOL
REMARK 923 INTER-LIGAND FREE ENERGY PREDICTED BY IDOCK:   -6.23 KCAL/MOL
REMARK 924 INTRA-LIGAND FREE ENERGY PREDICTED BY IDOCK:   -0.83 KCAL/MOL
REMARK 927      BINDING AFFINITY PREDICTED BY RF-SCORE:    0.00 PKD
ROOT
HETATM    1 MG   UNL     1     -13.480  11.319  71.600  1.00  0.00    -0.345 Mg 
HETATM    2  C   UNL     2      -9.382  13.960  67.151  1.00  0.00    -0.243 C  
HETATM    3  O   UNL     2      -9.288  12.992  66.096  1.00  0.00    -0.198 OA 
HETATM    4  C   UNL     3     -12.495  14.043  69.650  1.00  0.00    -0.157 C  
HETATM    5  H   UNL     2      -7.836  11.222  69.819  1.00  0.00     0.000 HD 
HETATM    6  O   UNL     3     -12.408  13.339  68.368  1.00  0.00    -0.158 OA 
HETATM    7  O   UNL     3     -11.775  10.572  70.539  1.00  0.00    -0.298 OA 
HETATM    8  C   UNL     3     -12.290  12.885  70.628  1.00  0.00    -0.302 C  
HETATM    9  C   UNL     2      -8.785  11.824  66.584  1.00  0.00    -0.186 C  
HETATM   10  O   UNL     2      -8.569  13.943  69.409  1.00  0.00     0.384 OA 
HETATM   11  C   UNL     3     -11.893  12.095  68.525  1.00  0.00    -0.310 C  
HETATM   12  C   UNL     2      -8.447  12.038  68.000  1.00  0.00    -0.168 C  
HETATM   13  O   UNL     2      -8.055  11.084  68.905  1.00  0.00    -0.142 OA 
HETATM   14  O   UNL     2      -8.638  10.796  65.949  1.00  0.00    -0.170 OA 
HETATM   15  C   UNL     2      -8.684  13.305  68.334  1.00  0.00    -0.126 C  
HETATM   16  O   UNL     3     -12.804  12.979  71.779  1.00  0.00    -0.314 OA 
HETATM   17  H   UNL     3     -11.706  10.411  71.473  1.00  0.00     0.000 HD 
HETATM   18  C   UNL     3     -11.785  11.846  69.971  1.00  0.00    -0.286 C  
HETATM   19  O   UNL     3     -11.868  11.196  67.704  1.00  0.00    -0.612 OA 
ENDROOT
BRANCH   2  20
HETATM   20  C   UNL     2      -9.042  15.365  66.634  1.00  0.00    -0.279 C  
HETATM   21  O   UNL     2      -7.662  15.531  66.250  1.00  0.00    -0.144 OA 
HETATM   22  H   UNL     2      -7.451  16.400  65.931  1.00  0.00     0.000 HD 
BRANCH  20  23
HETATM   23  C   UNL     2      -9.948  15.837  65.509  1.00  0.00    -0.306 C  
HETATM   24  H   UNL     2     -10.672  17.553  64.896  1.00  0.00     0.000 HD 
HETATM   25  O   UNL     2     -10.106  17.258  65.599  1.00  0.00    -0.566 OA 
ENDBRANCH  20  23
ENDBRANCH   2  20
BRANCH   4  26
HETATM   26  C   UNL     3     -11.594  15.305  69.562  1.00  0.00    -0.322 C  
HETATM   27  H   UNL     3     -11.474  16.827  68.342  1.00  0.00     0.000 HD 
HETATM   28  O   UNL     3     -12.026  16.055  68.396  1.00  0.00    -0.220 OA 
BRANCH  26  29
HETATM   29  C   UNL     3     -11.479  16.273  70.738  1.00  0.00    -0.297 C  
HETATM   30  O   UNL     3     -12.462  16.034  71.742  1.00  0.00    -0.464 OA 
HETATM   31  H   UNL     3     -12.391  16.636  72.473  1.00  0.00     0.000 HD 
ENDBRANCH  26  29
ENDBRANCH   4  26
TORSDOF 4
ENDMDL
MODEL       38
REMARK 921   NORMALIZED FREE ENERGY PREDICTED BY IDOCK:   -4.80 KCAL/MOL
REMARK 922        TOTAL FREE ENERGY PREDICTED BY IDOCK:   -6.93 KCAL/MOL
REMARK 923 INTER-LIGAND FREE ENERGY PREDICTED BY IDOCK:   -5.68 KCAL/MOL
REMARK 924 INTRA-LIGAND FREE ENERGY PREDICTED BY IDOCK:   -1.25 KCAL/MOL
REMARK 927      BINDING AFFINITY PREDICTED BY RF-SCORE:    0.00 PKD
ROOT
HETATM    1 MG   UNL     1      -9.026  17.868  69.090  1.00  0.00    -0.269 Mg 
HETATM    2  C   UNL     2      -9.513  11.847  66.433  1.00  0.00    -0.228 C  
HETATM    3  O   UNL     2     -10.534  11.952  65.430  1.00  0.00    -0.250 OA 
HETATM    4  C   UNL     3      -7.498  15.044  67.720  1.00  0.00    -0.159 C  
HETATM    5  H   UNL     2     -12.240  12.904  69.341  1.00  0.00     0.000 HD 
HETATM    6  O   UNL     3      -8.324  14.945  66.515  1.00  0.00    -0.125 OA 
HETATM    7  O   UNL     3     -10.681  16.584  68.642  1.00  0.00    -0.294 OA 
HETATM    8  C   UNL     3      -8.443  15.798  68.655  1.00  0.00    -0.193 C  
HETATM    9  C   UNL     2     -11.710  12.324  66.007  1.00  0.00    -0.388 C  
HETATM   10  O   UNL     2      -9.616  11.920  68.830  1.00  0.00    -0.135 OA 
HETATM   11  C   UNL     3      -9.619  15.244  66.781  1.00  0.00    -0.241 C  
HETATM   12  C   UNL     2     -11.498  12.387  67.461  1.00  0.00    -0.346 C  
HETATM   13  O   UNL     2     -12.377  12.863  68.401  1.00  0.00    -0.071 OA 
HETATM   14  O   UNL     2     -12.749  12.551  65.414  1.00  0.00    -0.624 OA 
HETATM   15  C   UNL     2     -10.254  12.010  67.752  1.00  0.00    -0.202 C  
HETATM   16  O   UNL     3      -7.936  16.514  69.565  1.00  0.00    -0.081 OA 
HETATM   17  H   UNL     3     -10.719  16.906  69.535  1.00  0.00     0.000 HD 
HETATM   18  C   UNL     3      -9.677  15.742  68.163  1.00  0.00    -0.211 C  
HETATM   19  O   UNL     3     -10.512  15.440  65.978  1.00  0.00    -0.291 OA 
ENDROOT
BRANCH   2  20
HETATM   20  C   UNL     2      -8.569  10.676  66.128  1.00  0.00    -0.159 C  
HETATM   21  O   UNL     2      -7.741  10.283  67.242  1.00  0.00    -0.095 OA 
HETATM   22  H   UNL     2      -7.157   9.559  67.053  1.00  0.00     0.000 HD 
BRANCH  20  23
HETATM   23  C   UNL     2      -9.273   9.456  65.558  1.00  0.00    -0.232 C  
HETATM   24  H   UNL     2      -9.432   8.602  63.799  1.00  0.00     0.000 HD 
HETATM   25  O   UNL     2      -8.992   9.364  64.156  1.00  0.00    -0.214 OA 
ENDBRANCH  20  23
ENDBRANCH   2  20
BRANCH   4  26
HETATM   26  C   UNL     3      -6.898  13.639  68.003  1.00  0.00    -0.138 C  
HETATM   27  H   UNL     3      -5.298  12.683  67.416  1.00  0.00     0.000 HD 
HETATM   28  O   UNL     3      -5.665  13.542  67.243  1.00  0.00    -0.346 OA 
BRANCH  26  29
HETATM   29  C   UNL     3      -6.618  13.176  69.431  1.00  0.00    -0.065 C  
HETATM   30  O   UNL     3      -7.022  11.829  69.660  1.00  0.00    -0.317 OA 
HETATM   31  H   UNL     3      -6.848  11.541  70.549  1.00  0.00     0.000 HD 
ENDBRANCH  26  29
ENDBRANCH   4  26
TORSDOF 4
ENDMDL
MODEL       39
REMARK 921   NORMALIZED FREE ENERGY PREDICTED BY IDOCK:   -4.78 KCAL/MOL
REMARK 922        TOTAL FREE ENERGY PREDICTED BY IDOCK:   -6.91 KCAL/MOL
REMARK 923 INTER-LIGAND FREE ENERGY PREDICTED BY IDOCK:   -5.84 KCAL/MOL
REMARK 924 INTRA-LIGAND FREE ENERGY PREDICTED BY IDOCK:   -1.07 KCAL/MOL
REMARK 927      BINDING AFFINITY PREDICTED BY RF-SCORE:    0.00 PKD
ROOT
HETATM    1 MG   UNL     1      -9.525  11.964  62.591  1.00  0.00    -0.333 Mg 
HETATM    2  C   UNL     2     -10.650  11.008  69.024  1.00  0.00    -0.225 C  
HETATM    3  O   UNL     2     -11.815  11.788  69.328  1.00  0.00    -0.296 OA 
HETATM    4  C   UNL     3      -9.853   9.792  65.305  1.00  0.00    -0.265 C  
HETATM    5  H   UNL     2      -8.637  14.427  67.900  1.00  0.00     0.000 HD 
HETATM    6  O   UNL     3     -11.125  10.311  65.812  1.00  0.00     0.277 OA 
HETATM    7  O   UNL     3      -9.932  13.284  64.229  1.00  0.00    -0.647 OA 
HETATM    8  C   UNL     3      -9.321  11.016  64.559  1.00  0.00    -0.198 C  
HETATM    9  C   UNL     2     -11.571  13.103  69.070  1.00  0.00    -0.312 C  
HETATM   10  O   UNL     2      -8.406  11.644  68.460  1.00  0.00    -0.152 OA 
HETATM   11  C   UNL     3     -11.180  11.661  65.712  1.00  0.00    -0.230 C  
HETATM   12  C   UNL     2     -10.164  13.226  68.658  1.00  0.00    -0.172 C  
HETATM   13  O   UNL     2      -9.546  14.347  68.165  1.00  0.00    -0.205 OA 
HETATM   14  O   UNL     2     -12.379  14.007  69.173  1.00  0.00    -0.313 OA 
HETATM   15  C   UNL     2      -9.570  12.036  68.724  1.00  0.00     0.016 C  
HETATM   16  O   UNL     3      -8.541  10.826  63.583  1.00  0.00    -0.142 OA 
HETATM   17  H   UNL     3      -9.168  13.561  63.736  1.00  0.00     0.000 HD 
HETATM   18  C   UNL     3      -9.998  12.091  64.950  1.00  0.00    -0.227 C  
HETATM   19  O   UNL     3     -12.155  12.376  65.863  1.00  0.00    -0.580 OA 
ENDROOT
BRANCH   2  20
HETATM   20  C   UNL     2     -10.480   9.865  70.034  1.00  0.00    -0.284 C  
HETATM   21  O   UNL     2      -9.135   9.719  70.534  1.00  0.00    -0.319 OA 
HETATM   22  H   UNL     2      -9.030   9.012  71.159  1.00  0.00     0.000 HD 
BRANCH  20  23
HETATM   23  C   UNL     2     -11.456   9.930  71.198  1.00  0.00    -0.383 C  
HETATM   24  H   UNL     2     -12.109   8.691  72.571  1.00  0.00     0.000 HD 
HETATM   25  O   UNL     2     -11.500   8.651  71.844  1.00  0.00    -0.302 OA 
ENDBRANCH  20  23
ENDBRANCH   2  20
BRANCH   4  26
HETATM   26  C   UNL     3      -9.128   9.079  66.479  1.00  0.00    -0.163 C  
HETATM   27  H   UNL     3      -9.389   7.396  67.438  1.00  0.00     0.000 HD 
HETATM   28  O   UNL     3      -9.833   7.832  66.720  1.00  0.00    -0.207 OA 
BRANCH  26  29
HETATM   29  C   UNL     3      -7.632   8.778  66.412  1.00  0.00    -0.091 C  
HETATM   30  O   UNL     3      -6.834   9.856  66.893  1.00  0.00    -0.084 OA 
HETATM   31  H   UNL     3      -5.903   9.669  66.851  1.00  0.00     0.000 HD 
ENDBRANCH  26  29
ENDBRANCH   4  26
TORSDOF 4
ENDMDL
MODEL       40
REMARK 921   NORMALIZED FREE ENERGY PREDICTED BY IDOCK:   -4.71 KCAL/MOL
REMARK 922        TOTAL FREE ENERGY PREDICTED BY IDOCK:   -6.82 KCAL/MOL
REMARK 923 INTER-LIGAND FREE ENERGY PREDICTED BY IDOCK:   -5.72 KCAL/MOL
REMARK 924 INTRA-LIGAND FREE ENERGY PREDICTED BY IDOCK:   -1.10 KCAL/MOL
REMARK 927      BINDING AFFINITY PREDICTED BY RF-SCORE:    0.00 PKD
ROOT
HETATM    1 MG   UNL     1      -9.220   7.503  71.863  1.00  0.00    -0.127 Mg 
HETATM    2  C   UNL     2      -9.537  11.301  66.475  1.00  0.00    -0.191 C  
HETATM    3  O   UNL     2      -8.774  12.475  66.789  1.00  0.00    -0.200 OA 
HETATM    4  C   UNL     3      -8.963   7.850  68.398  1.00  0.00    -0.133 C  
HETATM    5  H   UNL     2     -12.120  12.132  69.581  1.00  0.00     0.000 HD 
HETATM    6  O   UNL     3      -8.076   9.015  68.388  1.00  0.00    -0.106 OA 
HETATM    7  O   UNL     3      -9.655   9.577  71.545  1.00  0.00    -0.263 OA 
HETATM    8  C   UNL     3      -9.627   8.007  69.767  1.00  0.00    -0.171 C  
HETATM    9  C   UNL     2      -9.323  13.110  67.862  1.00  0.00    -0.215 C  
HETATM   10  O   UNL     2     -11.648  10.504  67.292  1.00  0.00    -0.327 OA 
HETATM   11  C   UNL     3      -8.402   9.889  69.371  1.00  0.00    -0.156 C  
HETATM   12  C   UNL     2     -10.551  12.387  68.231  1.00  0.00    -0.222 C  
HETATM   13  O   UNL     2     -11.327  12.598  69.342  1.00  0.00    -0.254 OA 
HETATM   14  O   UNL     2      -8.875  14.103  68.404  1.00  0.00    -0.181 OA 
HETATM   15  C   UNL     2     -10.761  11.389  67.375  1.00  0.00    -0.232 C  
HETATM   16  O   UNL     3     -10.040   6.965  70.352  1.00  0.00    -0.186 OA 
HETATM   17  H   UNL     3     -10.314   9.159  72.086  1.00  0.00     0.000 HD 
HETATM   18  C   UNL     3      -9.423   9.243  70.210  1.00  0.00    -0.238 C  
HETATM   19  O   UNL     3      -7.755  10.848  69.753  1.00  0.00    -0.033 OA 
ENDROOT
BRANCH   2  20
HETATM   20  C   UNL     2      -9.611  11.090  64.957  1.00  0.00    -0.247 C  
HETATM   21  O   UNL     2     -10.390   9.943  64.561  1.00  0.00    -0.317 OA 
HETATM   22  H   UNL     2     -10.436   9.812  63.622  1.00  0.00     0.000 HD 
BRANCH  20  23
HETATM   23  C   UNL     2     -10.079  12.317  64.192  1.00  0.00    -0.302 C  
HETATM   24  H   UNL     2     -11.422  12.704  62.815  1.00  0.00     0.000 HD 
HETATM   25  O   UNL     2     -11.129  11.937  63.293  1.00  0.00    -0.371 OA 
ENDBRANCH  20  23
ENDBRANCH   2  20
BRANCH   4  26
HETATM   26  C   UNL     3      -9.717   7.814  67.041  1.00  0.00    -0.197 C  
HETATM   27  H   UNL     3      -9.172   7.795  65.165  1.00  0.00     0.000 HD 
HETATM   28  O   UNL     3      -8.710   7.817  65.995  1.00  0.00    -0.150 OA 
BRANCH  26  29
HETATM   29  C   UNL     3     -10.727   6.710  66.731  1.00  0.00    -0.259 C  
HETATM   30  O   UNL     3     -11.626   6.471  67.810  1.00  0.00    -0.646 OA 
HETATM   31  H   UNL     3     -12.254   5.784  67.618  1.00  0.00     0.000 HD 
ENDBRANCH  26  29
ENDBRANCH   4  26
TORSDOF 4
ENDMDL
MODEL       41
REMARK 921   NORMALIZED FREE ENERGY PREDICTED BY IDOCK:   -4.65 KCAL/MOL
REMARK 922        TOTAL FREE ENERGY PREDICTED BY IDOCK:   -6.75 KCAL/MOL
REMARK 923 INTER-LIGAND FREE ENERGY PREDICTED BY IDOCK:   -5.60 KCAL/MOL
REMARK 924 INTRA-LIGAND FREE ENERGY PREDICTED BY IDOCK:   -1.15 KCAL/MOL
REMARK 927      BINDING AFFINITY PREDICTED BY RF-SCORE:    0.00 PKD
ROOT
HETATM    1 MG   UNL     1     -11.418   4.735  66.300  1.00  0.00    -0.487 Mg 
HETATM    2  C   UNL     2      -9.112   7.567  71.797  1.00  0.00    -0.125 C  
HETATM    3  O   UNL     2     -10.233   8.255  72.372  1.00  0.00    -0.278 OA 
HETATM    4  C   UNL     3      -9.596   4.514  69.270  1.00  0.00    -0.188 C  
HETATM    5  H   UNL     2      -9.410   9.891  68.403  1.00  0.00     0.000 HD 
HETATM    6  O   UNL     3     -10.606   5.097  70.157  1.00  0.00    -0.272 OA 
HETATM    7  O   UNL     3     -11.574   6.709  67.119  1.00  0.00    -0.749 OA 
HETATM    8  C   UNL     3     -10.004   5.128  67.930  1.00  0.00    -0.152 C  
HETATM    9  C   UNL     2     -10.695   9.194  71.501  1.00  0.00    -0.367 C  
HETATM   10  O   UNL     2      -7.829   7.987  69.813  1.00  0.00    -0.101 OA 
HETATM   11  C   UNL     3     -11.252   6.126  69.557  1.00  0.00    -0.411 C  
HETATM   12  C   UNL     2      -9.801   9.200  70.332  1.00  0.00    -0.218 C  
HETATM   13  O   UNL     2      -9.987   9.886  69.159  1.00  0.00    -0.178 OA 
HETATM   14  O   UNL     2     -11.669   9.902  71.674  1.00  0.00    -0.372 OA 
HETATM   15  C   UNL     2      -8.805   8.337  70.521  1.00  0.00    -0.145 C  
HETATM   16  O   UNL     3      -9.729   4.490  66.874  1.00  0.00    -0.175 OA 
HETATM   17  H   UNL     3     -11.294   6.727  66.211  1.00  0.00     0.000 HD 
HETATM   18  C   UNL     3     -10.819   6.154  68.152  1.00  0.00    -0.306 C  
HETATM   19  O   UNL     3     -12.260   6.691  69.941  1.00  0.00    -0.123 OA 
ENDROOT
BRANCH   2  20
HETATM   20  C   UNL     2      -8.062   7.244  72.869  1.00  0.00    -0.106 C  
HETATM   21  O   UNL     2      -6.712   7.175  72.367  1.00  0.00    -0.056 OA 
HETATM   22  H   UNL     2      -6.062   6.976  73.030  1.00  0.00     0.000 HD 
BRANCH  20  23
HETATM   23  C   UNL     2      -8.115   8.170  74.073  1.00  0.00    -0.253 C  
HETATM   24  H   UNL     2      -7.123   9.743  74.698  1.00  0.00     0.000 HD 
HETATM   25  O   UNL     2      -7.090   9.164  73.946  1.00  0.00    -0.310 OA 
ENDBRANCH  20  23
ENDBRANCH   2  20
BRANCH   4  26
HETATM   26  C   UNL     3      -8.210   4.691  69.946  1.00  0.00    -0.067 C  
HETATM   27  H   UNL     3      -7.287   3.830  71.439  1.00  0.00     0.000 HD 
HETATM   28  O   UNL     3      -8.136   3.722  71.025  1.00  0.00    -0.064 OA 
BRANCH  26  29
HETATM   29  C   UNL     3      -6.920   4.599  69.132  1.00  0.00    -0.051 C  
HETATM   30  O   UNL     3      -6.641   5.796  68.411  1.00  0.00    -0.048 OA 
HETATM   31  H   UNL     3      -5.840   5.739  67.904  1.00  0.00     0.000 HD 
ENDBRANCH  26  29
ENDBRANCH   4  26
TORSDOF 4
ENDMDL
MODEL       42
REMARK 921   NORMALIZED FREE ENERGY PREDICTED BY IDOCK:   -4.63 KCAL/MOL
REMARK 922        TOTAL FREE ENERGY PREDICTED BY IDOCK:   -6.73 KCAL/MOL
REMARK 923 INTER-LIGAND FREE ENERGY PREDICTED BY IDOCK:   -5.68 KCAL/MOL
REMARK 924 INTRA-LIGAND FREE ENERGY PREDICTED BY IDOCK:   -1.04 KCAL/MOL
REMARK 927      BINDING AFFINITY PREDICTED BY RF-SCORE:    0.00 PKD
ROOT
HETATM    1 MG   UNL     1     -11.082  14.779  68.086  1.00  0.00    -0.231 Mg 
HETATM    2  C   UNL     2     -10.279   8.233  67.837  1.00  0.00    -0.220 C  
HETATM    3  O   UNL     2     -11.106   7.706  68.885  1.00  0.00     0.017 OA 
HETATM    4  C   UNL     3     -10.963  11.823  66.231  1.00  0.00    -0.300 C  
HETATM    5  H   UNL     2      -8.081  10.346  70.613  1.00  0.00     0.000 HD 
HETATM    6  O   UNL     3     -11.877  11.038  67.063  1.00  0.00    -0.322 OA 
HETATM    7  O   UNL     3     -10.674  13.286  69.568  1.00  0.00    -0.442 OA 
HETATM    8  C   UNL     3     -10.460  12.850  67.246  1.00  0.00    -0.234 C  
HETATM    9  C   UNL     2     -10.697   8.198  70.087  1.00  0.00    -0.243 C  
HETATM   10  O   UNL     2      -8.249   9.512  67.895  1.00  0.00    -0.112 OA 
HETATM   11  C   UNL     3     -11.687  11.298  68.380  1.00  0.00    -0.294 C  
HETATM   12  C   UNL     2      -9.497   9.018  69.852  1.00  0.00    -0.177 C  
HETATM   13  O   UNL     2      -8.856   9.816  70.765  1.00  0.00    -0.155 OA 
HETATM   14  O   UNL     2     -11.231   7.983  71.159  1.00  0.00    -0.251 OA 
HETATM   15  C   UNL     2      -9.166   8.972  68.563  1.00  0.00    -0.136 C  
HETATM   16  O   UNL     3     -10.084  13.978  66.817  1.00  0.00    -0.254 OA 
HETATM   17  H   UNL     3     -10.067  14.014  69.627  1.00  0.00     0.000 HD 
HETATM   18  C   UNL     3     -10.747  12.424  68.472  1.00  0.00    -0.238 C  
HETATM   19  O   UNL     3     -12.399  10.963  69.310  1.00  0.00    -0.395 OA 
ENDROOT
BRANCH   2  20
HETATM   20  C   UNL     2     -10.031   7.173  66.754  1.00  0.00    -0.208 C  
HETATM   21  O   UNL     2      -8.711   7.223  66.175  1.00  0.00    -0.145 OA 
HETATM   22  H   UNL     2      -8.558   6.568  65.505  1.00  0.00     0.000 HD 
BRANCH  20  23
HETATM   23  C   UNL     2     -10.341   5.756  67.205  1.00  0.00    -0.240 C  
HETATM   24  H   UNL     2     -10.840   4.068  66.338  1.00  0.00     0.000 HD 
HETATM   25  O   UNL     2     -10.647   4.955  66.057  1.00  0.00    -0.305 OA 
ENDBRANCH  20  23
ENDBRANCH   2  20
BRANCH   4  26
HETATM   26  C   UNL     3     -10.062  10.831  65.446  1.00  0.00    -0.285 C  
HETATM   27  H   UNL     3     -10.065  10.113  63.628  1.00  0.00     0.000 HD 
HETATM   28  O   UNL     3     -10.616  10.721  64.108  1.00  0.00    -0.347 OA 
BRANCH  26  29
HETATM   29  C   UNL     3      -8.557  11.062  65.323  1.00  0.00    -0.046 C  
HETATM   30  O   UNL     3      -7.831   9.851  65.131  1.00  0.00    -0.121 OA 
HETATM   31  H   UNL     3      -6.895   9.995  65.055  1.00  0.00     0.000 HD 
ENDBRANCH  26  29
ENDBRANCH   4  26
TORSDOF 4
ENDMDL
MODEL       43
REMARK 921   NORMALIZED FREE ENERGY PREDICTED BY IDOCK:   -4.62 KCAL/MOL
REMARK 922        TOTAL FREE ENERGY PREDICTED BY IDOCK:   -6.72 KCAL/MOL
REMARK 923 INTER-LIGAND FREE ENERGY PREDICTED BY IDOCK:   -5.68 KCAL/MOL
REMARK 924 INTRA-LIGAND FREE ENERGY PREDICTED BY IDOCK:   -1.04 KCAL/MOL
REMARK 927      BINDING AFFINITY PREDICTED BY RF-SCORE:    0.00 PKD
ROOT
HETATM    1 MG   UNL     1     -12.993  14.136  70.919  1.00  0.00    -0.286 Mg 
HETATM    2  C   UNL     2      -9.937   9.007  68.104  1.00  0.00    -0.175 C  
HETATM    3  O   UNL     2     -10.582   7.840  68.634  1.00  0.00    -0.192 OA 
HETATM    4  C   UNL     3     -11.748  12.565  68.060  1.00  0.00    -0.355 C  
HETATM    5  H   UNL     2      -8.771  10.106  71.904  1.00  0.00     0.000 HD 
HETATM    6  O   UNL     3     -12.372  11.258  68.272  1.00  0.00    -0.542 OA 
HETATM    7  O   UNL     3     -12.169  12.311  71.681  1.00  0.00     0.012 OA 
HETATM    8  C   UNL     3     -11.691  13.093  69.494  1.00  0.00    -0.319 C  
HETATM    9  C   UNL     2     -10.436   7.807  69.988  1.00  0.00    -0.230 C  
HETATM   10  O   UNL     2      -8.490  10.631  69.119  1.00  0.00    -0.153 OA 
HETATM   11  C   UNL     3     -12.356  10.913  69.583  1.00  0.00    -0.221 C  
HETATM   12  C   UNL     2      -9.590   8.946  70.377  1.00  0.00    -0.194 C  
HETATM   13  O   UNL     2      -9.318   9.370  71.653  1.00  0.00    -0.262 OA 
HETATM   14  O   UNL     2     -10.918   6.972  70.732  1.00  0.00    -0.239 OA 
HETATM   15  C   UNL     2      -9.194   9.605  69.290  1.00  0.00    -0.183 C  
HETATM   16  O   UNL     3     -11.712  14.344  69.670  1.00  0.00    -0.272 OA 
HETATM   17  H   UNL     3     -11.859  13.066  72.168  1.00  0.00     0.000 HD 
HETATM   18  C   UNL     3     -11.877  12.082  70.336  1.00  0.00    -0.212 C  
HETATM   19  O   UNL     3     -12.955   9.995  70.114  1.00  0.00    -0.010 OA 
ENDROOT
BRANCH   2  20
HETATM   20  C   UNL     2      -9.276   8.699  66.754  1.00  0.00    -0.169 C  
HETATM   21  O   UNL     2      -8.445   9.764  66.250  1.00  0.00    -0.122 OA 
HETATM   22  H   UNL     2      -8.037   9.574  65.414  1.00  0.00     0.000 HD 
BRANCH  20  23
HETATM   23  C   UNL     2      -8.501   7.392  66.738  1.00  0.00    -0.124 C  
HETATM   24  H   UNL     2      -6.812   6.736  67.491  1.00  0.00     0.000 HD 
HETATM   25  O   UNL     2      -7.297   7.552  67.500  1.00  0.00    -0.096 OA 
ENDBRANCH  20  23
ENDBRANCH   2  20
BRANCH   4  26
HETATM   26  C   UNL     3     -10.516  12.360  67.136  1.00  0.00    -0.219 C  
HETATM   27  H   UNL     3     -10.232  11.546  65.382  1.00  0.00     0.000 HD 
HETATM   28  O   UNL     3     -10.986  11.672  65.947  1.00  0.00    -0.291 OA 
BRANCH  26  29
HETATM   29  C   UNL     3      -9.657  13.544  66.696  1.00  0.00    -0.278 C  
HETATM   30  O   UNL     3      -9.653  13.723  65.282  1.00  0.00    -0.545 OA 
HETATM   31  H   UNL     3      -9.119  14.459  65.008  1.00  0.00     0.000 HD 
ENDBRANCH  26  29
ENDBRANCH   4  26
TORSDOF 4
ENDMDL
MODEL       44
REMARK 921   NORMALIZED FREE ENERGY PREDICTED BY IDOCK:   -4.53 KCAL/MOL
REMARK 922        TOTAL FREE ENERGY PREDICTED BY IDOCK:   -6.60 KCAL/MOL
REMARK 923 INTER-LIGAND FREE ENERGY PREDICTED BY IDOCK:   -5.42 KCAL/MOL
REMARK 924 INTRA-LIGAND FREE ENERGY PREDICTED BY IDOCK:   -1.18 KCAL/MOL
REMARK 927      BINDING AFFINITY PREDICTED BY RF-SCORE:    0.00 PKD
ROOT
HETATM    1 MG   UNL     1     -13.655  13.432  71.535  1.00  0.00    -0.332 Mg 
HETATM    2  C   UNL     2     -10.844   7.695  69.878  1.00  0.00    -0.235 C  
HETATM    3  O   UNL     2     -11.774   6.681  70.285  1.00  0.00    -0.389 OA 
HETATM    4  C   UNL     3     -12.005  11.451  69.180  1.00  0.00    -0.328 C  
HETATM    5  H   UNL     2     -10.493   8.963  73.786  1.00  0.00     0.000 HD 
HETATM    6  O   UNL     3     -12.860  10.267  69.294  1.00  0.00     0.221 OA 
HETATM    7  O   UNL     3     -13.341  11.588  72.579  1.00  0.00    -0.527 OA 
HETATM    8  C   UNL     3     -12.222  12.094  70.550  1.00  0.00    -0.304 C  
HETATM    9  C   UNL     2     -11.974   6.752  71.630  1.00  0.00    -0.347 C  
HETATM   10  O   UNL     2      -9.455   9.188  71.144  1.00  0.00    -0.261 OA 
HETATM   11  C   UNL     3     -13.223  10.045  70.581  1.00  0.00    -0.118 C  
HETATM   12  C   UNL     2     -11.081   7.793  72.163  1.00  0.00    -0.279 C  
HETATM   13  O   UNL     2     -11.069   8.290  73.442  1.00  0.00     0.099 OA 
HETATM   14  O   UNL     2     -12.749   6.064  72.268  1.00  0.00    -0.088 OA 
HETATM   15  C   UNL     2     -10.331   8.289  71.181  1.00  0.00    -0.202 C  
HETATM   16  O   UNL     3     -12.089  13.347  70.649  1.00  0.00    -0.346 OA 
HETATM   17  H   UNL     3     -13.046  12.334  73.088  1.00  0.00     0.000 HD 
HETATM   18  C   UNL     3     -12.766  11.199  71.369  1.00  0.00    -0.418 C  
HETATM   19  O   UNL     3     -14.070   9.271  70.987  1.00  0.00    -0.142 OA 
ENDROOT
BRANCH   2  20
HETATM   20  C   UNL     2      -9.927   7.177  68.761  1.00  0.00    -0.163 C  
HETATM   21  O   UNL     2      -8.813   8.043  68.466  1.00  0.00    -0.134 OA 
HETATM   22  H   UNL     2      -8.246   7.723  67.775  1.00  0.00     0.000 HD 
BRANCH  20  23
HETATM   23  C   UNL     2      -9.429   5.760  68.990  1.00  0.00    -0.124 C  
HETATM   24  H   UNL     2      -7.702   4.905  69.357  1.00  0.00     0.000 HD 
HETATM   25  O   UNL     2      -8.013   5.791  69.214  1.00  0.00    -0.097 OA 
ENDBRANCH  20  23
ENDBRANCH   2  20
BRANCH   4  26
HETATM   26  C   UNL     3     -10.632  10.994  68.617  1.00  0.00    -0.196 C  
HETATM   27  H   UNL     3     -10.058   9.959  67.062  1.00  0.00     0.000 HD 
HETATM   28  O   UNL     3     -10.899  10.239  67.406  1.00  0.00    -0.279 OA 
BRANCH  26  29
HETATM   29  C   UNL     3      -9.528  12.007  68.317  1.00  0.00    -0.199 C  
HETATM   30  O   UNL     3     -10.003  13.350  68.319  1.00  0.00    -0.231 OA 
HETATM   31  H   UNL     3      -9.317  13.980  68.132  1.00  0.00     0.000 HD 
ENDBRANCH  26  29
ENDBRANCH   4  26
TORSDOF 4
ENDMDL
MODEL       45
REMARK 921   NORMALIZED FREE ENERGY PREDICTED BY IDOCK:   -4.51 KCAL/MOL
REMARK 922        TOTAL FREE ENERGY PREDICTED BY IDOCK:   -6.57 KCAL/MOL
REMARK 923 INTER-LIGAND FREE ENERGY PREDICTED BY IDOCK:   -5.58 KCAL/MOL
REMARK 924 INTRA-LIGAND FREE ENERGY PREDICTED BY IDOCK:   -0.99 KCAL/MOL
REMARK 927      BINDING AFFINITY PREDICTED BY RF-SCORE:    0.00 PKD
ROOT
HETATM    1 MG   UNL     1     -14.128   6.014  72.340  1.00  0.00    -0.457 Mg 
HETATM    2  C   UNL     2      -7.946   7.915  71.021  1.00  0.00    -0.090 C  
HETATM    3  O   UNL     2      -7.198   6.701  70.862  1.00  0.00    -0.071 OA 
HETATM    4  C   UNL     3     -11.908   8.017  70.537  1.00  0.00    -0.008 C  
HETATM    5  H   UNL     2      -8.859   6.861  74.903  1.00  0.00     0.000 HD 
HETATM    6  O   UNL     3     -10.992   6.955  70.114  1.00  0.00    -0.252 OA 
HETATM    7  O   UNL     3     -12.212   5.442  73.113  1.00  0.00    -0.493 OA 
HETATM    8  C   UNL     3     -12.510   7.393  71.796  1.00  0.00    -0.336 C  
HETATM    9  C   UNL     2      -7.246   5.975  72.014  1.00  0.00    -0.092 C  
HETATM   10  O   UNL     2      -8.942   8.935  72.953  1.00  0.00    -0.264 OA 
HETATM   11  C   UNL     3     -10.805   6.046  71.102  1.00  0.00    -0.277 C  
HETATM   12  C   UNL     2      -7.980   6.767  73.014  1.00  0.00    -0.104 C  
HETATM   13  O   UNL     2      -8.385   6.349  74.256  1.00  0.00    -0.121 OA 
HETATM   14  O   UNL     2      -6.757   4.872  72.177  1.00  0.00    -0.047 OA 
HETATM   15  C   UNL     2      -8.310   7.949  72.499  1.00  0.00    -0.142 C  
HETATM   16  O   UNL     3     -13.674   7.746  72.138  1.00  0.00    -0.216 OA 
HETATM   17  H   UNL     3     -12.823   5.653  73.810  1.00  0.00     0.000 HD 
HETATM   18  C   UNL     3     -11.750   6.371  72.180  1.00  0.00    -0.321 C  
HETATM   19  O   UNL     3     -10.265   4.958  71.013  1.00  0.00    -0.217 OA 
ENDROOT
BRANCH   2  20
HETATM   20  C   UNL     2      -7.263   9.076  70.287  1.00  0.00    -0.058 C  
HETATM   21  O   UNL     2      -8.040  10.290  70.255  1.00  0.00    -0.388 OA 
HETATM   22  H   UNL     2      -7.618  11.009  69.801  1.00  0.00     0.000 HD 
BRANCH  20  23
HETATM   23  C   UNL     2      -5.861   9.377  70.792  1.00  0.00    -0.058 C  
HETATM   24  H   UNL     2      -5.023  10.748  71.916  1.00  0.00     0.000 HD 
HETATM   25  O   UNL     2      -5.898  10.560  71.600  1.00  0.00    -0.319 OA 
ENDBRANCH  20  23
ENDBRANCH   2  20
BRANCH   4  26
HETATM   26  C   UNL     3     -11.131   9.361  70.493  1.00  0.00    -0.273 C  
HETATM   27  H   UNL     3     -10.187  10.359  69.102  1.00  0.00     0.000 HD 
HETATM   28  O   UNL     3     -10.663   9.537  69.129  1.00  0.00    -0.222 OA 
BRANCH  26  29
HETATM   29  C   UNL     3     -11.787  10.664  70.945  1.00  0.00    -0.331 C  
HETATM   30  O   UNL     3     -12.943  10.445  71.750  1.00  0.00    -0.420 OA 
HETATM   31  H   UNL     3     -13.351  11.255  72.032  1.00  0.00     0.000 HD 
ENDBRANCH  26  29
ENDBRANCH   4  26
TORSDOF 4
ENDMDL
MODEL       46
REMARK 921   NORMALIZED FREE ENERGY PREDICTED BY IDOCK:   -4.41 KCAL/MOL
REMARK 922        TOTAL FREE ENERGY PREDICTED BY IDOCK:   -6.45 KCAL/MOL
REMARK 923 INTER-LIGAND FREE ENERGY PREDICTED BY IDOCK:   -5.51 KCAL/MOL
REMARK 924 INTRA-LIGAND FREE ENERGY PREDICTED BY IDOCK:   -0.95 KCAL/MOL
REMARK 927      BINDING AFFINITY PREDICTED BY RF-SCORE:    0.00 PKD
ROOT
HETATM    1 MG   UNL     1     -13.056  10.327  71.534  1.00  0.00    -0.283 Mg 
HETATM    2  C   UNL     2      -7.834  10.274  67.498  1.00  0.00    -0.102 C  
HETATM    3  O   UNL     2      -7.369   8.916  67.492  1.00  0.00    -0.080 OA 
HETATM    4  C   UNL     3     -11.589  11.200  68.488  1.00  0.00    -0.314 C  
HETATM    5  H   UNL     2      -7.139  10.510  71.556  1.00  0.00     0.000 HD 
HETATM    6  O   UNL     3     -11.067   9.877  68.141  1.00  0.00    -0.239 OA 
HETATM    7  O   UNL     3     -11.074   9.530  71.698  1.00  0.00    -0.371 OA 
HETATM    8  C   UNL     3     -11.671  11.086  70.011  1.00  0.00    -0.355 C  
HETATM    9  C   UNL     2      -7.010   8.546  68.753  1.00  0.00    -0.063 C  
HETATM   10  O   UNL     2      -7.796  11.967  69.199  1.00  0.00     0.037 OA 
HETATM   11  C   UNL     3     -10.587   9.236  69.235  1.00  0.00    -0.222 C  
HETATM   12  C   UNL     2      -7.156   9.722  69.626  1.00  0.00    -0.083 C  
HETATM   13  O   UNL     2      -7.045   9.750  70.993  1.00  0.00    -0.325 OA 
HETATM   14  O   UNL     2      -6.629   7.438  69.084  1.00  0.00    -0.038 OA 
HETATM   15  C   UNL     2      -7.534  10.775  68.903  1.00  0.00    -0.116 C  
HETATM   16  O   UNL     3     -12.533  11.786  70.615  1.00  0.00    -0.324 OA 
HETATM   17  H   UNL     3     -11.305  10.054  72.456  1.00  0.00     0.000 HD 
HETATM   18  C   UNL     3     -10.944  10.047  70.408  1.00  0.00    -0.320 C  
HETATM   19  O   UNL     3     -10.265   8.065  69.324  1.00  0.00    -0.203 OA 
ENDROOT
BRANCH   2  20
HETATM   20  C   UNL     2      -7.395  11.005  66.222  1.00  0.00    -0.097 C  
HETATM   21  O   UNL     2      -6.399  12.025  66.443  1.00  0.00    -0.454 OA 
HETATM   22  H   UNL     2      -6.128  12.478  65.654  1.00  0.00     0.000 HD 
BRANCH  20  23
HETATM   23  C   UNL     2      -6.939  10.074  65.111  1.00  0.00    -0.134 C  
HETATM   24  H   UNL     2      -7.453   9.727  63.250  1.00  0.00     0.000 HD 
HETATM   25  O   UNL     2      -7.738  10.309  63.945  1.00  0.00    -0.151 OA 
ENDBRANCH  20  23
ENDBRANCH   2  20
BRANCH   4  26
HETATM   26  C   UNL     3     -10.754  12.259  67.718  1.00  0.00    -0.217 C  
HETATM   27  H   UNL     3     -10.354  12.590  65.833  1.00  0.00     0.000 HD 
HETATM   28  O   UNL     3     -10.865  11.942  66.304  1.00  0.00    -0.260 OA 
BRANCH  26  29
HETATM   29  C   UNL     3     -11.020  13.752  67.896  1.00  0.00    -0.253 C  
HETATM   30  O   UNL     3     -12.363  14.028  68.282  1.00  0.00    -0.537 OA 
HETATM   31  H   UNL     3     -12.529  14.956  68.392  1.00  0.00     0.000 HD 
ENDBRANCH  26  29
ENDBRANCH   4  26
TORSDOF 4
ENDMDL
MODEL       47
REMARK 921   NORMALIZED FREE ENERGY PREDICTED BY IDOCK:   -4.41 KCAL/MOL
REMARK 922        TOTAL FREE ENERGY PREDICTED BY IDOCK:   -6.45 KCAL/MOL
REMARK 923 INTER-LIGAND FREE ENERGY PREDICTED BY IDOCK:   -5.35 KCAL/MOL
REMARK 924 INTRA-LIGAND FREE ENERGY PREDICTED BY IDOCK:   -1.10 KCAL/MOL
REMARK 927      BINDING AFFINITY PREDICTED BY RF-SCORE:    0.00 PKD
ROOT
HETATM    1 MG   UNL     1     -10.242   6.435  68.698  1.00  0.00    -0.137 Mg 
HETATM    2  C   UNL     2      -9.334  12.795  67.188  1.00  0.00    -0.216 C  
HETATM    3  O   UNL     2     -10.651  13.350  67.059  1.00  0.00    -0.262 OA 
HETATM    4  C   UNL     3      -8.650   9.482  69.307  1.00  0.00    -0.149 C  
HETATM    5  H   UNL     2     -10.125  10.169  64.107  1.00  0.00     0.000 HD 
HETATM    6  O   UNL     3      -9.849  10.321  69.341  1.00  0.00    -0.212 OA 
HETATM    7  O   UNL     3     -11.073   7.729  67.206  1.00  0.00    -0.520 OA 
HETATM    8  C   UNL     3      -9.139   8.315  68.449  1.00  0.00    -0.136 C  
HETATM    9  C   UNL     2     -11.328  12.708  66.067  1.00  0.00    -0.327 C  
HETATM   10  O   UNL     2      -8.119  11.235  65.826  1.00  0.00    -0.045 OA 
HETATM   11  C   UNL     3     -10.747   9.932  68.403  1.00  0.00    -0.232 C  
HETATM   12  C   UNL     2     -10.406  11.745  65.444  1.00  0.00    -0.268 C  
HETATM   13  O   UNL     2     -10.720  10.792  64.509  1.00  0.00    -0.297 OA 
HETATM   14  O   UNL     2     -12.486  12.911  65.754  1.00  0.00    -0.531 OA 
HETATM   15  C   UNL     2      -9.202  11.846  66.005  1.00  0.00    -0.171 C  
HETATM   16  O   UNL     3      -8.605   7.183  68.621  1.00  0.00    -0.125 OA 
HETATM   17  H   UNL     3     -10.752   6.918  66.828  1.00  0.00     0.000 HD 
HETATM   18  C   UNL     3     -10.252   8.677  67.818  1.00  0.00    -0.225 C  
HETATM   19  O   UNL     3     -11.906  10.289  68.295  1.00  0.00    -0.236 OA 
ENDROOT
BRANCH   2  20
HETATM   20  C   UNL     2      -8.311  13.891  67.516  1.00  0.00    -0.196 C  
HETATM   21  O   UNL     2      -6.978  13.612  67.041  1.00  0.00    -0.400 OA 
HETATM   22  H   UNL     2      -6.345  14.290  67.245  1.00  0.00     0.000 HD 
BRANCH  20  23
HETATM   23  C   UNL     2      -8.736  15.278  67.065  1.00  0.00    -0.234 C  
HETATM   24  H   UNL     2      -7.978  17.086  67.130  1.00  0.00     0.000 HD 
HETATM   25  O   UNL     2      -7.713  16.219  67.412  1.00  0.00    -0.139 OA 
ENDBRANCH  20  23
ENDBRANCH   2  20
BRANCH   4  26
HETATM   26  C   UNL     3      -7.440  10.394  68.965  1.00  0.00    -0.106 C  
HETATM   27  H   UNL     3      -6.404  11.730  69.946  1.00  0.00     0.000 HD 
HETATM   28  O   UNL     3      -7.144  11.172  70.156  1.00  0.00    -0.079 OA 
BRANCH  26  29
HETATM   29  C   UNL     3      -6.132   9.803  68.442  1.00  0.00    -0.046 C  
HETATM   30  O   UNL     3      -6.108   9.697  67.021  1.00  0.00    -0.061 OA 
HETATM   31  H   UNL     3      -5.295   9.329  66.696  1.00  0.00     0.000 HD 
ENDBRANCH  26  29
ENDBRANCH   4  26
TORSDOF 4
ENDMDL
MODEL       48
REMARK 921   NORMALIZED FREE ENERGY PREDICTED BY IDOCK:   -4.39 KCAL/MOL
REMARK 922        TOTAL FREE ENERGY PREDICTED BY IDOCK:   -6.43 KCAL/MOL
REMARK 923 INTER-LIGAND FREE ENERGY PREDICTED BY IDOCK:   -5.56 KCAL/MOL
REMARK 924 INTRA-LIGAND FREE ENERGY PREDICTED BY IDOCK:   -0.87 KCAL/MOL
REMARK 927      BINDING AFFINITY PREDICTED BY RF-SCORE:    0.00 PKD
ROOT
HETATM    1 MG   UNL     1     -11.796   6.551  70.977  1.00  0.00    -0.264 Mg 
HETATM    2  C   UNL     2      -8.386  10.307  66.754  1.00  0.00    -0.124 C  
HETATM    3  O   UNL     2      -8.193  11.560  67.427  1.00  0.00    -0.136 OA 
HETATM    4  C   UNL     3      -9.121   6.938  68.766  1.00  0.00    -0.133 C  
HETATM    5  H   UNL     2     -12.474  10.824  66.936  1.00  0.00     0.000 HD 
HETATM    6  O   UNL     3      -8.605   8.197  69.308  1.00  0.00    -0.133 OA 
HETATM    7  O   UNL     3     -12.026   8.563  70.275  1.00  0.00    -0.470 OA 
HETATM    8  C   UNL     3     -10.582   7.012  69.207  1.00  0.00    -0.224 C  
HETATM    9  C   UNL     2      -9.400  12.123  67.709  1.00  0.00    -0.193 C  
HETATM   10  O   UNL     2     -10.350   9.270  65.846  1.00  0.00    -0.154 OA 
HETATM   11  C   UNL     3      -9.615   9.025  69.673  1.00  0.00    -0.171 C  
HETATM   12  C   UNL     2     -10.444  11.263  67.131  1.00  0.00    -0.222 C  
HETATM   13  O   UNL     2     -11.799  11.380  67.310  1.00  0.00    -0.594 OA 
HETATM   14  O   UNL     2      -9.572  13.160  68.324  1.00  0.00    -0.222 OA 
HETATM   15  C   UNL     2      -9.880  10.250  66.474  1.00  0.00    -0.212 C  
HETATM   16  O   UNL     3     -11.205   5.928  69.392  1.00  0.00    -0.375 OA 
HETATM   17  H   UNL     3     -12.835   8.070  70.200  1.00  0.00     0.000 HD 
HETATM   18  C   UNL     3     -10.867   8.263  69.557  1.00  0.00    -0.116 C  
HETATM   19  O   UNL     3      -9.532  10.050  70.324  1.00  0.00    -0.179 OA 
ENDROOT
BRANCH   2  20
HETATM   20  C   UNL     2      -7.311  10.094  65.680  1.00  0.00    -0.144 C  
HETATM   21  O   UNL     2      -7.723  10.480  64.353  1.00  0.00    -0.316 OA 
HETATM   22  H   UNL     2      -7.058  10.348  63.688  1.00  0.00     0.000 HD 
BRANCH  20  23
HETATM   23  C   UNL     2      -5.978  10.744  66.013  1.00  0.00    -0.138 C  
HETATM   24  H   UNL     2      -4.447  11.439  65.003  1.00  0.00     0.000 HD 
HETATM   25  O   UNL     2      -5.280  11.032  64.795  1.00  0.00    -0.216 OA 
ENDBRANCH  20  23
ENDBRANCH   2  20
BRANCH   4  26
HETATM   26  C   UNL     3      -8.639   6.820  67.294  1.00  0.00    -0.120 C  
HETATM   27  H   UNL     3      -6.935   6.399  66.434  1.00  0.00     0.000 HD 
HETATM   28  O   UNL     3      -7.230   6.471  67.335  1.00  0.00    -0.081 OA 
BRANCH  26  29
HETATM   29  C   UNL     3      -9.336   5.883  66.311  1.00  0.00    -0.152 C  
HETATM   30  O   UNL     3     -10.727   6.165  66.176  1.00  0.00    -0.471 OA 
HETATM   31  H   UNL     3     -11.161   5.582  65.565  1.00  0.00     0.000 HD 
ENDBRANCH  26  29
ENDBRANCH   4  26
TORSDOF 4
ENDMDL
MODEL       49
REMARK 921   NORMALIZED FREE ENERGY PREDICTED BY IDOCK:   -4.38 KCAL/MOL
REMARK 922        TOTAL FREE ENERGY PREDICTED BY IDOCK:   -6.42 KCAL/MOL
REMARK 923 INTER-LIGAND FREE ENERGY PREDICTED BY IDOCK:   -5.71 KCAL/MOL
REMARK 924 INTRA-LIGAND FREE ENERGY PREDICTED BY IDOCK:   -0.71 KCAL/MOL
REMARK 927      BINDING AFFINITY PREDICTED BY RF-SCORE:    0.00 PKD
ROOT
HETATM    1 MG   UNL     1      -8.138   4.261  69.022  1.00  0.00    -0.067 Mg 
HETATM    2  C   UNL     2     -12.134   9.111  71.042  1.00  0.00    -0.263 C  
HETATM    3  O   UNL     2     -12.629   9.724  69.842  1.00  0.00     0.276 OA 
HETATM    4  C   UNL     3     -10.744   5.368  71.066  1.00  0.00    -0.169 C  
HETATM    5  H   UNL     2      -8.276  10.102  69.974  1.00  0.00     0.000 HD 
HETATM    6  O   UNL     3     -11.548   6.006  70.022  1.00  0.00    -0.317 OA 
HETATM    7  O   UNL     3      -8.336   6.327  68.489  1.00  0.00    -0.114 OA 
HETATM    8  C   UNL     3      -9.354   5.423  70.432  1.00  0.00    -0.159 C  
HETATM    9  C   UNL     2     -11.590  10.223  69.117  1.00  0.00    -0.099 C  
HETATM   10  O   UNL     2      -9.953   9.096  72.044  1.00  0.00    -0.263 OA 
HETATM   11  C   UNL     3     -10.764   6.642  69.118  1.00  0.00    -0.264 C  
HETATM   12  C   UNL     2     -10.358  10.017  69.895  1.00  0.00    -0.272 C  
HETATM   13  O   UNL     2      -9.071  10.235  69.471  1.00  0.00    -0.206 OA 
HETATM   14  O   UNL     2     -11.679  10.751  68.024  1.00  0.00    -0.528 OA 
HETATM   15  C   UNL     2     -10.655   9.466  71.070  1.00  0.00    -0.330 C  
HETATM   16  O   UNL     3      -8.512   4.540  70.762  1.00  0.00    -0.088 OA 
HETATM   17  H   UNL     3      -7.435   6.101  68.688  1.00  0.00     0.000 HD 
HETATM   18  C   UNL     3      -9.370   6.292  69.426  1.00  0.00    -0.140 C  
HETATM   19  O   UNL     3     -11.100   7.100  68.040  1.00  0.00    -0.101 OA 
ENDROOT
BRANCH   2  20
HETATM   20  C   UNL     2     -13.091   9.360  72.215  1.00  0.00    -0.428 C  
HETATM   21  O   UNL     2     -13.387  10.752  72.446  1.00  0.00    -0.606 OA 
HETATM   22  H   UNL     2     -13.979  10.906  73.173  1.00  0.00     0.000 HD 
BRANCH  20  23
HETATM   23  C   UNL     2     -14.385   8.568  72.126  1.00  0.00    -0.436 C  
HETATM   24  H   UNL     2     -14.984   6.923  71.241  1.00  0.00     0.000 HD 
HETATM   25  O   UNL     2     -14.175   7.418  71.297  1.00  0.00    -0.407 OA 
ENDBRANCH  20  23
ENDBRANCH   2  20
BRANCH   4  26
HETATM   26  C   UNL     3     -11.129   6.014  72.425  1.00  0.00    -0.277 C  
HETATM   27  H   UNL     3     -12.485   5.652  73.785  1.00  0.00     0.000 HD 
HETATM   28  O   UNL     3     -12.250   5.256  72.954  1.00  0.00    -0.118 OA 
BRANCH  26  29
HETATM   29  C   UNL     3     -10.096   6.180  73.538  1.00  0.00    -0.210 C  
HETATM   30  O   UNL     3      -9.265   5.032  73.691  1.00  0.00    -0.123 OA 
HETATM   31  H   UNL     3      -8.623   5.135  74.383  1.00  0.00     0.000 HD 
ENDBRANCH  26  29
ENDBRANCH   4  26
TORSDOF 4
ENDMDL
MODEL       50
REMARK 921   NORMALIZED FREE ENERGY PREDICTED BY IDOCK:   -4.33 KCAL/MOL
REMARK 922        TOTAL FREE ENERGY PREDICTED BY IDOCK:   -6.36 KCAL/MOL
REMARK 923 INTER-LIGAND FREE ENERGY PREDICTED BY IDOCK:   -5.07 KCAL/MOL
REMARK 924 INTRA-LIGAND FREE ENERGY PREDICTED BY IDOCK:   -1.29 KCAL/MOL
REMARK 927      BINDING AFFINITY PREDICTED BY RF-SCORE:    0.00 PKD
ROOT
HETATM    1 MG   UNL     1     -12.894  10.386  68.967  1.00  0.00    -0.535 Mg 
HETATM    2  C   UNL     2      -8.188   6.533  71.530  1.00  0.00    -0.116 C  
HETATM    3  O   UNL     2      -8.835   5.289  71.835  1.00  0.00    -0.133 OA 
HETATM    4  C   UNL     3      -9.668   9.059  68.816  1.00  0.00    -0.159 C  
HETATM    5  H   UNL     2     -10.708   8.500  74.135  1.00  0.00     0.000 HD 
HETATM    6  O   UNL     3     -10.030   7.652  69.006  1.00  0.00    -0.172 OA 
HETATM    7  O   UNL     3     -12.790   9.149  70.714  1.00  0.00    -0.508 OA 
HETATM    8  C   UNL     3     -10.856   9.754  69.480  1.00  0.00    -0.240 C  
HETATM    9  C   UNL     2      -9.835   5.498  72.737  1.00  0.00    -0.164 C  
HETATM   10  O   UNL     2      -8.375   8.713  72.515  1.00  0.00    -0.364 OA 
HETATM   11  C   UNL     3     -11.030   7.521  69.912  1.00  0.00    -0.211 C  
HETATM   12  C   UNL     2      -9.804   6.918  73.120  1.00  0.00    -0.186 C  
HETATM   13  O   UNL     2     -10.727   7.582  73.887  1.00  0.00    -0.285 OA 
HETATM   14  O   UNL     2     -10.603   4.650  73.151  1.00  0.00    -0.185 OA 
HETATM   15  C   UNL     2      -8.787   7.527  72.514  1.00  0.00    -0.132 C  
HETATM   16  O   UNL     3     -11.173  10.909  69.077  1.00  0.00    -0.223 OA 
HETATM   17  H   UNL     3     -13.099  10.023  70.921  1.00  0.00     0.000 HD 
HETATM   18  C   UNL     3     -11.509   8.874  70.233  1.00  0.00    -0.105 C  
HETATM   19  O   UNL     3     -11.684   6.522  70.152  1.00  0.00    -0.418 OA 
ENDROOT
BRANCH   2  20
HETATM   20  C   UNL     2      -6.678   6.329  71.340  1.00  0.00    -0.055 C  
HETATM   21  O   UNL     2      -5.967   7.526  70.966  1.00  0.00    -0.035 OA 
HETATM   22  H   UNL     2      -5.033   7.399  70.848  1.00  0.00     0.000 HD 
BRANCH  20  23
HETATM   23  C   UNL     2      -5.996   5.678  72.532  1.00  0.00    -0.039 C  
HETATM   24  H   UNL     2      -4.974   6.289  74.090  1.00  0.00     0.000 HD 
HETATM   25  O   UNL     2      -5.400   6.696  73.345  1.00  0.00    -0.040 OA 
ENDBRANCH  20  23
ENDBRANCH   2  20
BRANCH   4  26
HETATM   26  C   UNL     3      -8.184   9.229  69.241  1.00  0.00    -0.108 C  
HETATM   27  H   UNL     3      -6.464   8.711  68.470  1.00  0.00     0.000 HD 
HETATM   28  O   UNL     3      -7.372   8.606  68.210  1.00  0.00    -0.084 OA 
BRANCH  26  29
HETATM   29  C   UNL     3      -7.604  10.611  69.536  1.00  0.00    -0.124 C  
HETATM   30  O   UNL     3      -6.903  10.657  70.776  1.00  0.00    -0.444 OA 
HETATM   31  H   UNL     3      -6.543  11.517  70.961  1.00  0.00     0.000 HD 
ENDBRANCH  26  29
ENDBRANCH   4  26
TORSDOF 4
ENDMDL
MODEL       51
REMARK 921   NORMALIZED FREE ENERGY PREDICTED BY IDOCK:   -4.33 KCAL/MOL
REMARK 922        TOTAL FREE ENERGY PREDICTED BY IDOCK:   -6.35 KCAL/MOL
REMARK 923 INTER-LIGAND FREE ENERGY PREDICTED BY IDOCK:   -5.20 KCAL/MOL
REMARK 924 INTRA-LIGAND FREE ENERGY PREDICTED BY IDOCK:   -1.15 KCAL/MOL
REMARK 927      BINDING AFFINITY PREDICTED BY RF-SCORE:    0.00 PKD
ROOT
HETATM    1 MG   UNL     1     -13.429   8.499  73.202  1.00  0.00    -0.558 Mg 
HETATM    2  C   UNL     2      -8.088   7.908  69.369  1.00  0.00    -0.125 C  
HETATM    3  O   UNL     2      -7.759   6.511  69.384  1.00  0.00    -0.097 OA 
HETATM    4  C   UNL     3     -11.769   9.205  70.212  1.00  0.00    -0.017 C  
HETATM    5  H   UNL     2      -7.528   8.098  73.451  1.00  0.00     0.000 HD 
HETATM    6  O   UNL     3     -11.367   7.835  69.888  1.00  0.00    -0.139 OA 
HETATM    7  O   UNL     3     -11.543   7.512  73.443  1.00  0.00    -0.621 OA 
HETATM    8  C   UNL     3     -11.920   9.109  71.731  1.00  0.00    -0.379 C  
HETATM    9  C   UNL     2      -7.487   6.115  70.658  1.00  0.00    -0.087 C  
HETATM   10  O   UNL     2      -7.949   9.599  71.067  1.00  0.00    -0.301 OA 
HETATM   11  C   UNL     3     -10.994   7.156  71.001  1.00  0.00    -0.252 C  
HETATM   12  C   UNL     2      -7.550   7.305  71.522  1.00  0.00    -0.086 C  
HETATM   13  O   UNL     2      -7.488   7.330  72.892  1.00  0.00    -0.075 OA 
HETATM   14  O   UNL     2      -7.230   4.977  71.006  1.00  0.00    -0.056 OA 
HETATM   15  C   UNL     2      -7.793   8.385  70.783  1.00  0.00    -0.089 C  
HETATM   16  O   UNL     3     -12.730   9.894  72.300  1.00  0.00    -0.325 OA 
HETATM   17  H   UNL     3     -11.750   8.061  74.191  1.00  0.00     0.000 HD 
HETATM   18  C   UNL     3     -11.314   8.006  72.158  1.00  0.00    -0.328 C  
HETATM   19  O   UNL     3     -10.793   5.960  71.105  1.00  0.00    -0.257 OA 
ENDROOT
BRANCH   2  20
HETATM   20  C   UNL     2      -7.531   8.585  68.109  1.00  0.00    -0.097 C  
HETATM   21  O   UNL     2      -7.688  10.019  68.095  1.00  0.00    -0.084 OA 
HETATM   22  H   UNL     2      -7.344  10.438  67.316  1.00  0.00     0.000 HD 
BRANCH  20  23
HETATM   23  C   UNL     2      -6.085   8.225  67.812  1.00  0.00    -0.048 C  
HETATM   24  H   UNL     2      -4.319   8.883  68.352  1.00  0.00     0.000 HD 
HETATM   25  O   UNL     2      -5.222   9.108  68.538  1.00  0.00    -0.034 OA 
ENDBRANCH  20  23
ENDBRANCH   2  20
BRANCH   4  26
HETATM   26  C   UNL     3     -10.804  10.172  69.472  1.00  0.00    -0.255 C  
HETATM   27  H   UNL     3     -10.153  10.326  67.636  1.00  0.00     0.000 HD 
HETATM   28  O   UNL     3     -10.744   9.735  68.088  1.00  0.00    -0.227 OA 
BRANCH  26  29
HETATM   29  C   UNL     3     -11.039  11.681  69.487  1.00  0.00    -0.164 C  
HETATM   30  O   UNL     3     -11.861  12.097  70.574  1.00  0.00    -0.500 OA 
HETATM   31  H   UNL     3     -12.007  13.036  70.584  1.00  0.00     0.000 HD 
ENDBRANCH  26  29
ENDBRANCH   4  26
TORSDOF 4
ENDMDL
MODEL       52
REMARK 921   NORMALIZED FREE ENERGY PREDICTED BY IDOCK:   -4.31 KCAL/MOL
REMARK 922        TOTAL FREE ENERGY PREDICTED BY IDOCK:   -6.33 KCAL/MOL
REMARK 923 INTER-LIGAND FREE ENERGY PREDICTED BY IDOCK:   -5.04 KCAL/MOL
REMARK 924 INTRA-LIGAND FREE ENERGY PREDICTED BY IDOCK:   -1.29 KCAL/MOL
REMARK 927      BINDING AFFINITY PREDICTED BY RF-SCORE:    0.00 PKD
ROOT
HETATM    1 MG   UNL     1      -8.659   8.825  63.688  1.00  0.00    -0.159 Mg 
HETATM    2  C   UNL     2      -9.150   8.057  70.225  1.00  0.00    -0.148 C  
HETATM    3  O   UNL     2      -8.125   7.116  70.578  1.00  0.00    -0.110 OA 
HETATM    4  C   UNL     3      -8.950  10.220  66.875  1.00  0.00    -0.136 C  
HETATM    5  H   UNL     2     -10.929   5.229  67.806  1.00  0.00     0.000 HD 
HETATM    6  O   UNL     3      -7.863   9.472  67.512  1.00  0.00    -0.101 OA 
HETATM    7  O   UNL     3      -8.719   7.109  64.971  1.00  0.00    -0.359 OA 
HETATM    8  C   UNL     3      -9.318   9.275  65.732  1.00  0.00    -0.244 C  
HETATM    9  C   UNL     2      -8.340   5.936  69.934  1.00  0.00    -0.121 C  
HETATM   10  O   UNL     2     -11.202   7.798  69.006  1.00  0.00     0.116 OA 
HETATM   11  C   UNL     3      -7.830   8.189  67.077  1.00  0.00    -0.104 C  
HETATM   12  C   UNL     2      -9.603   6.054  69.188  1.00  0.00    -0.132 C  
HETATM   13  O   UNL     2     -10.113   5.153  68.288  1.00  0.00    -0.165 OA 
HETATM   14  O   UNL     2      -7.614   4.960  69.983  1.00  0.00    -0.054 OA 
HETATM   15  C   UNL     2     -10.154   7.243  69.422  1.00  0.00    -0.183 C  
HETATM   16  O   UNL     3      -9.822   9.773  64.685  1.00  0.00    -0.228 OA 
HETATM   17  H   UNL     3      -9.343   7.037  64.258  1.00  0.00     0.000 HD 
HETATM   18  C   UNL     3      -8.796   8.076  65.974  1.00  0.00    -0.162 C  
HETATM   19  O   UNL     3      -6.948   7.369  67.258  1.00  0.00    -0.077 OA 
ENDROOT
BRANCH   2  20
HETATM   20  C   UNL     2      -9.530   8.926  71.431  1.00  0.00    -0.274 C  
HETATM   21  O   UNL     2     -10.569   9.888  71.157  1.00  0.00    -0.288 OA 
HETATM   22  H   UNL     2     -10.805  10.426  71.903  1.00  0.00     0.000 HD 
BRANCH  20  23
HETATM   23  C   UNL     2      -9.886   8.126  72.672  1.00  0.00    -0.294 C  
HETATM   24  H   UNL     2     -11.535   7.560  73.571  1.00  0.00     0.000 HD 
HETATM   25  O   UNL     2     -11.312   8.061  72.796  1.00  0.00    -0.394 OA 
ENDBRANCH  20  23
ENDBRANCH   2  20
BRANCH   4  26
HETATM   26  C   UNL     3      -9.922  10.689  67.992  1.00  0.00    -0.160 C  
HETATM   27  H   UNL     3      -9.905  12.127  69.316  1.00  0.00     0.000 HD 
HETATM   28  O   UNL     3      -9.310  11.840  68.633  1.00  0.00    -0.173 OA 
BRANCH  26  29
HETATM   29  C   UNL     3     -11.376  11.035  67.675  1.00  0.00    -0.281 C  
HETATM   30  O   UNL     3     -12.275  10.612  68.697  1.00  0.00    -0.814 OA 
HETATM   31  H   UNL     3     -13.179  10.827  68.500  1.00  0.00     0.000 HD 
ENDBRANCH  26  29
ENDBRANCH   4  26
TORSDOF 4
ENDMDL
MODEL       53
REMARK 921   NORMALIZED FREE ENERGY PREDICTED BY IDOCK:   -4.31 KCAL/MOL
REMARK 922        TOTAL FREE ENERGY PREDICTED BY IDOCK:   -6.33 KCAL/MOL
REMARK 923 INTER-LIGAND FREE ENERGY PREDICTED BY IDOCK:   -5.36 KCAL/MOL
REMARK 924 INTRA-LIGAND FREE ENERGY PREDICTED BY IDOCK:   -0.97 KCAL/MOL
REMARK 927      BINDING AFFINITY PREDICTED BY RF-SCORE:    0.00 PKD
ROOT
HETATM    1 MG   UNL     1     -13.598  10.625  71.845  1.00  0.00    -0.342 Mg 
HETATM    2  C   UNL     2      -9.349   5.635  71.065  1.00  0.00    -0.153 C  
HETATM    3  O   UNL     2     -10.079   4.451  71.419  1.00  0.00    -0.186 OA 
HETATM    4  C   UNL     3     -11.201   8.978  69.912  1.00  0.00    -0.079 C  
HETATM    5  H   UNL     2      -9.901   7.128  74.870  1.00  0.00     0.000 HD 
HETATM    6  O   UNL     3     -11.775   7.634  69.999  1.00  0.00    -0.012 OA 
HETATM    7  O   UNL     3     -13.044   8.955  73.068  1.00  0.00    -0.759 OA 
HETATM    8  C   UNL     3     -11.766   9.615  71.182  1.00  0.00    -0.372 C  
HETATM    9  C   UNL     2     -10.496   4.535  72.713  1.00  0.00    -0.198 C  
HETATM   10  O   UNL     2      -8.544   7.468  72.389  1.00  0.00    -0.115 OA 
HETATM   11  C   UNL     3     -12.274   7.392  71.237  1.00  0.00    -0.341 C  
HETATM   12  C   UNL     2      -9.953   5.780  73.280  1.00  0.00    -0.179 C  
HETATM   13  O   UNL     2     -10.252   6.324  74.503  1.00  0.00    -0.330 OA 
HETATM   14  O   UNL     2     -11.186   3.714  73.289  1.00  0.00    -0.183 OA 
HETATM   15  C   UNL     2      -9.191   6.392  72.376  1.00  0.00    -0.137 C  
HETATM   16  O   UNL     3     -11.935  10.867  71.196  1.00  0.00    -0.314 OA 
HETATM   17  H   UNL     3     -13.007   9.772  73.552  1.00  0.00     0.000 HD 
HETATM   18  C   UNL     3     -12.216   8.656  71.985  1.00  0.00    -0.373 C  
HETATM   19  O   UNL     3     -12.978   6.461  71.581  1.00  0.00    -0.113 OA 
ENDROOT
BRANCH   2  20
HETATM   20  C   UNL     2      -8.177   5.294  70.134  1.00  0.00    -0.091 C  
HETATM   21  O   UNL     2      -7.671   6.422  69.390  1.00  0.00    -0.096 OA 
HETATM   22  H   UNL     2      -6.947   6.211  68.814  1.00  0.00     0.000 HD 
BRANCH  20  23
HETATM   23  C   UNL     2      -7.030   4.583  70.832  1.00  0.00    -0.037 C  
HETATM   24  H   UNL     2      -5.624   3.315  70.318  1.00  0.00     0.000 HD 
HETATM   25  O   UNL     2      -6.341   3.760  69.882  1.00  0.00    -0.027 OA 
ENDBRANCH  20  23
ENDBRANCH   2  20
BRANCH   4  26
HETATM   26  C   UNL     3      -9.690   8.830  69.586  1.00  0.00    -0.173 C  
HETATM   27  H   UNL     3      -8.671   8.048  68.112  1.00  0.00     0.000 HD 
HETATM   28  O   UNL     3      -9.596   8.139  68.312  1.00  0.00    -0.141 OA 
BRANCH  26  29
HETATM   29  C   UNL     3      -8.772  10.050  69.538  1.00  0.00    -0.192 C  
HETATM   30  O   UNL     3      -7.853  10.088  70.626  1.00  0.00    -0.412 OA 
HETATM   31  H   UNL     3      -7.283  10.846  70.597  1.00  0.00     0.000 HD 
ENDBRANCH  26  29
ENDBRANCH   4  26
TORSDOF 4
ENDMDL
MODEL       54
REMARK 921   NORMALIZED FREE ENERGY PREDICTED BY IDOCK:   -4.28 KCAL/MOL
REMARK 922        TOTAL FREE ENERGY PREDICTED BY IDOCK:   -6.30 KCAL/MOL
REMARK 923 INTER-LIGAND FREE ENERGY PREDICTED BY IDOCK:   -5.47 KCAL/MOL
REMARK 924 INTRA-LIGAND FREE ENERGY PREDICTED BY IDOCK:   -0.82 KCAL/MOL
REMARK 927      BINDING AFFINITY PREDICTED BY RF-SCORE:    0.00 PKD
ROOT
HETATM    1 MG   UNL     1     -13.119  10.625  71.759  1.00  0.00    -0.298 Mg 
HETATM    2  C   UNL     2      -8.357   6.650  69.505  1.00  0.00    -0.131 C  
HETATM    3  O   UNL     2      -7.681   7.402  68.486  1.00  0.00    -0.114 OA 
HETATM    4  C   UNL     3     -10.468   8.440  72.382  1.00  0.00    -0.332 C  
HETATM    5  H   UNL     2     -11.870   6.872  67.355  1.00  0.00     0.000 HD 
HETATM    6  O   UNL     3      -9.492   9.061  71.483  1.00  0.00    -0.272 OA 
HETATM    7  O   UNL     3     -12.481  10.055  69.794  1.00  0.00    -0.487 OA 
HETATM    8  C   UNL     3     -11.779   8.887  71.736  1.00  0.00    -0.362 C  
HETATM    9  C   UNL     2      -8.555   7.723  67.492  1.00  0.00    -0.122 C  
HETATM   10  O   UNL     2     -10.551   5.679  69.580  1.00  0.00    -0.282 OA 
HETATM   11  C   UNL     3     -10.079   9.481  70.336  1.00  0.00    -0.271 C  
HETATM   12  C   UNL     2      -9.846   7.091  67.808  1.00  0.00    -0.139 C  
HETATM   13  O   UNL     2     -11.036   7.280  67.151  1.00  0.00    -0.327 OA 
HETATM   14  O   UNL     2      -8.299   8.404  66.516  1.00  0.00    -0.106 OA 
HETATM   15  C   UNL     2      -9.734   6.369  68.921  1.00  0.00    -0.126 C  
HETATM   16  O   UNL     3     -12.798   9.003  72.474  1.00  0.00    -0.404 OA 
HETATM   17  H   UNL     3     -13.419   9.950  69.903  1.00  0.00     0.000 HD 
HETATM   18  C   UNL     3     -11.531   9.318  70.503  1.00  0.00    -0.248 C  
HETATM   19  O   UNL     3      -9.597  10.197  69.477  1.00  0.00    -0.214 OA 
ENDROOT
BRANCH   2  20
HETATM   20  C   UNL     2      -7.439   5.562  70.078  1.00  0.00    -0.070 C  
HETATM   21  O   UNL     2      -7.638   4.258  69.496  1.00  0.00    -0.054 OA 
HETATM   22  H   UNL     2      -7.071   3.585  69.851  1.00  0.00     0.000 HD 
BRANCH  20  23
HETATM   23  C   UNL     2      -5.963   5.923  70.035  1.00  0.00    -0.025 C  
HETATM   24  H   UNL     2      -4.774   7.148  71.000  1.00  0.00     0.000 HD 
HETATM   25  O   UNL     2      -5.696   6.922  71.027  1.00  0.00    -0.027 OA 
ENDBRANCH  20  23
ENDBRANCH   2  20
BRANCH   4  26
HETATM   26  C   UNL     3     -10.040   6.963  72.600  1.00  0.00    -0.175 C  
HETATM   27  H   UNL     3      -8.432   6.081  73.275  1.00  0.00     0.000 HD 
HETATM   28  O   UNL     3      -8.693   6.985  73.142  1.00  0.00    -0.122 OA 
BRANCH  26  29
HETATM   29  C   UNL     3     -10.884   6.018  73.454  1.00  0.00    -0.231 C  
HETATM   30  O   UNL     3     -12.092   5.626  72.807  1.00  0.00    -0.532 OA 
HETATM   31  H   UNL     3     -12.617   5.039  73.338  1.00  0.00     0.000 HD 
ENDBRANCH  26  29
ENDBRANCH   4  26
TORSDOF 4
ENDMDL
MODEL       55
REMARK 921   NORMALIZED FREE ENERGY PREDICTED BY IDOCK:   -4.28 KCAL/MOL
REMARK 922        TOTAL FREE ENERGY PREDICTED BY IDOCK:   -6.29 KCAL/MOL
REMARK 923 INTER-LIGAND FREE ENERGY PREDICTED BY IDOCK:   -5.63 KCAL/MOL
REMARK 924 INTRA-LIGAND FREE ENERGY PREDICTED BY IDOCK:   -0.66 KCAL/MOL
REMARK 927      BINDING AFFINITY PREDICTED BY RF-SCORE:    0.00 PKD
ROOT
HETATM    1 MG   UNL     1      -8.417   9.369  69.071  1.00  0.00    -0.106 Mg 
HETATM    2  C   UNL     2     -11.431  14.319  65.914  1.00  0.00    -0.335 C  
HETATM    3  O   UNL     2     -12.687  13.783  65.472  1.00  0.00    -0.515 OA 
HETATM    4  C   UNL     3      -9.420  12.711  68.965  1.00  0.00     0.435 C  
HETATM    5  H   UNL     2      -9.424  11.518  63.648  1.00  0.00     0.000 HD 
HETATM    6  O   UNL     3     -10.822  12.479  68.609  1.00  0.00    -0.235 OA 
HETATM    7  O   UNL     3      -9.413   9.522  67.180  1.00  0.00    -0.142 OA 
HETATM    8  C   UNL     3      -8.772  11.436  68.426  1.00  0.00    -0.157 C  
HETATM    9  C   UNL     2     -12.472  12.733  64.632  1.00  0.00    -0.456 C  
HETATM   10  O   UNL     2      -9.176  13.882  65.217  1.00  0.00     0.415 OA 
HETATM   11  C   UNL     3     -10.941  11.462  67.722  1.00  0.00    -0.247 C  
HETATM   12  C   UNL     2     -11.019  12.610  64.430  1.00  0.00    -0.351 C  
HETATM   13  O   UNL     2     -10.362  11.597  63.779  1.00  0.00    -0.317 OA 
HETATM   14  O   UNL     2     -13.336  12.034  64.136  1.00  0.00    -0.725 OA 
HETATM   15  C   UNL     2     -10.390  13.587  65.080  1.00  0.00    -0.362 C  
HETATM   16  O   UNL     3      -7.713  11.025  68.981  1.00  0.00    -0.131 OA 
HETATM   17  H   UNL     3      -8.556   9.121  67.094  1.00  0.00     0.000 HD 
HETATM   18  C   UNL     3      -9.615  10.841  67.587  1.00  0.00    -0.158 C  
HETATM   19  O   UNL     3     -11.963  10.898  67.376  1.00  0.00    -0.343 OA 
ENDROOT
BRANCH   2  20
HETATM   20  C   UNL     2     -11.504  15.847  66.034  1.00  0.00     0.360 C  
HETATM   21  O   UNL     2     -10.754  16.385  67.143  1.00  0.00    -0.307 OA 
HETATM   22  H   UNL     2     -10.799  17.330  67.218  1.00  0.00     0.000 HD 
BRANCH  20  23
HETATM   23  C   UNL     2     -11.127  16.579  64.757  1.00  0.00    -0.186 C  
HETATM   24  H   UNL     2     -11.859  16.736  62.944  1.00  0.00     0.000 HD 
HETATM   25  O   UNL     2     -12.094  16.279  63.743  1.00  0.00    -0.959 OA 
ENDBRANCH  20  23
ENDBRANCH   2  20
BRANCH   4  26
HETATM   26  C   UNL     3      -9.050  14.154  68.524  1.00  0.00    -0.176 C  
HETATM   27  H   UNL     3      -9.634  15.945  69.045  1.00  0.00     0.000 HD 
HETATM   28  O   UNL     3      -9.861  15.062  69.315  1.00  0.00    -0.217 OA 
BRANCH  26  29
HETATM   29  C   UNL     3      -7.603  14.643  68.567  1.00  0.00    -0.120 C  
HETATM   30  O   UNL     3      -7.024  14.526  69.864  1.00  0.00    -0.291 OA 
HETATM   31  H   UNL     3      -6.124  14.830  69.892  1.00  0.00     0.000 HD 
ENDBRANCH  26  29
ENDBRANCH   4  26
TORSDOF 4
ENDMDL
MODEL       56
REMARK 921   NORMALIZED FREE ENERGY PREDICTED BY IDOCK:   -4.27 KCAL/MOL
REMARK 922        TOTAL FREE ENERGY PREDICTED BY IDOCK:   -6.28 KCAL/MOL
REMARK 923 INTER-LIGAND FREE ENERGY PREDICTED BY IDOCK:   -5.21 KCAL/MOL
REMARK 924 INTRA-LIGAND FREE ENERGY PREDICTED BY IDOCK:   -1.07 KCAL/MOL
REMARK 927      BINDING AFFINITY PREDICTED BY RF-SCORE:    0.00 PKD
ROOT
HETATM    1 MG   UNL     1      -7.217   6.774  65.000  1.00  0.00    -0.055 Mg 
HETATM    2  C   UNL     2     -11.088  10.041  69.231  1.00  0.00    -0.206 C  
HETATM    3  O   UNL     2     -11.690  11.095  68.464  1.00  0.00    -0.353 OA 
HETATM    4  C   UNL     3      -9.655   6.741  67.500  1.00  0.00    -0.127 C  
HETATM    5  H   UNL     2      -7.346  11.586  68.445  1.00  0.00     0.000 HD 
HETATM    6  O   UNL     3     -10.552   7.734  66.905  1.00  0.00    -0.343 OA 
HETATM    7  O   UNL     3      -7.485   8.852  65.451  1.00  0.00    -0.084 OA 
HETATM    8  C   UNL     3      -8.324   7.137  66.859  1.00  0.00    -0.118 C  
HETATM    9  C   UNL     2     -10.722  11.911  67.964  1.00  0.00    -0.209 C  
HETATM   10  O   UNL     2      -8.831   9.692  69.968  1.00  0.00    -0.202 OA 
HETATM   11  C   UNL     3      -9.855   8.740  66.323  1.00  0.00    -0.272 C  
HETATM   12  C   UNL     2      -9.426  11.444  68.482  1.00  0.00    -0.183 C  
HETATM   13  O   UNL     2      -8.183  11.888  68.110  1.00  0.00    -0.142 OA 
HETATM   14  O   UNL     2     -10.909  12.862  67.227  1.00  0.00    -0.249 OA 
HETATM   15  C   UNL     2      -9.616  10.418  69.311  1.00  0.00    -0.209 C  
HETATM   16  O   UNL     3      -7.446   6.241  66.705  1.00  0.00    -0.084 OA 
HETATM   17  H   UNL     3      -6.567   8.605  65.466  1.00  0.00     0.000 HD 
HETATM   18  C   UNL     3      -8.435   8.358  66.346  1.00  0.00    -0.123 C  
HETATM   19  O   UNL     3     -10.285   9.608  65.585  1.00  0.00    -0.253 OA 
ENDROOT
BRANCH   2  20
HETATM   20  C   UNL     2     -11.947   9.701  70.458  1.00  0.00    -0.172 C  
HETATM   21  O   UNL     2     -11.183   9.375  71.636  1.00  0.00    -0.370 OA 
HETATM   22  H   UNL     2     -11.713   9.165  72.395  1.00  0.00     0.000 HD 
BRANCH  20  23
HETATM   23  C   UNL     2     -12.979  10.765  70.793  1.00  0.00    -0.262 C  
HETATM   24  H   UNL     2     -13.751  11.527  72.427  1.00  0.00     0.000 HD 
HETATM   25  O   UNL     2     -13.106  10.862  72.217  1.00  0.00    -0.376 OA 
ENDBRANCH  20  23
ENDBRANCH   2  20
BRANCH   4  26
HETATM   26  C   UNL     3      -9.932   6.704  69.027  1.00  0.00    -0.153 C  
HETATM   27  H   UNL     3     -11.367   5.993  70.148  1.00  0.00     0.000 HD 
HETATM   28  O   UNL     3     -11.197   6.015  69.213  1.00  0.00    -0.384 OA 
BRANCH  26  29
HETATM   29  C   UNL     3      -8.915   6.106  69.997  1.00  0.00    -0.147 C  
HETATM   30  O   UNL     3      -8.432   7.058  70.941  1.00  0.00    -0.131 OA 
HETATM   31  H   UNL     3      -7.799   6.686  71.544  1.00  0.00     0.000 HD 
ENDBRANCH  26  29
ENDBRANCH   4  26
TORSDOF 4
ENDMDL
MODEL       57
REMARK 921   NORMALIZED FREE ENERGY PREDICTED BY IDOCK:   -4.26 KCAL/MOL
REMARK 922        TOTAL FREE ENERGY PREDICTED BY IDOCK:   -6.27 KCAL/MOL
REMARK 923 INTER-LIGAND FREE ENERGY PREDICTED BY IDOCK:   -5.12 KCAL/MOL
REMARK 924 INTRA-LIGAND FREE ENERGY PREDICTED BY IDOCK:   -1.15 KCAL/MOL
REMARK 927      BINDING AFFINITY PREDICTED BY RF-SCORE:    0.00 PKD
ROOT
HETATM    1 MG   UNL     1      -7.320   5.581  67.813  1.00  0.00    -0.063 Mg 
HETATM    2  C   UNL     2     -10.995  11.050  68.199  1.00  0.00    -0.247 C  
HETATM    3  O   UNL     2     -11.486  11.276  66.869  1.00  0.00    -0.431 OA 
HETATM    4  C   UNL     3      -9.809   7.436  69.412  1.00  0.00    -0.168 C  
HETATM    5  H   UNL     2      -7.117  11.417  66.845  1.00  0.00     0.000 HD 
HETATM    6  O   UNL     3     -10.604   7.753  68.223  1.00  0.00    -0.190 OA 
HETATM    7  O   UNL     3      -7.419   7.377  66.648  1.00  0.00    -0.085 OA 
HETATM    8  C   UNL     3      -8.435   7.203  68.784  1.00  0.00    -0.126 C  
HETATM    9  C   UNL     2     -10.440  11.454  66.015  1.00  0.00    -0.255 C  
HETATM   10  O   UNL     2      -8.794  11.227  69.139  1.00  0.00    -0.027 OA 
HETATM   11  C   UNL     3      -9.810   8.019  67.158  1.00  0.00    -0.210 C  
HETATM   12  C   UNL     2      -9.202  11.435  66.810  1.00  0.00    -0.177 C  
HETATM   13  O   UNL     2      -7.917  11.430  66.331  1.00  0.00    -0.156 OA 
HETATM   14  O   UNL     2     -10.527  11.611  64.811  1.00  0.00    -0.265 OA 
HETATM   15  C   UNL     2      -9.499  11.308  68.102  1.00  0.00    -0.184 C  
HETATM   16  O   UNL     3      -7.634   6.423  69.375  1.00  0.00    -0.091 OA 
HETATM   17  H   UNL     3      -6.527   7.173  66.903  1.00  0.00     0.000 HD 
HETATM   18  C   UNL     3      -8.429   7.704  67.553  1.00  0.00    -0.116 C  
HETATM   19  O   UNL     3     -10.147   8.128  65.993  1.00  0.00    -0.002 OA 
ENDROOT
BRANCH   2  20
HETATM   20  C   UNL     2     -11.908  11.717  69.237  1.00  0.00    -0.326 C  
HETATM   21  O   UNL     2     -11.639  11.319  70.597  1.00  0.00    -0.440 OA 
HETATM   22  H   UNL     2     -12.204  11.732  71.239  1.00  0.00     0.000 HD 
BRANCH  20  23
HETATM   23  C   UNL     2     -11.934  13.234  69.141  1.00  0.00    -0.296 C  
HETATM   24  H   UNL     2     -11.851  14.736  70.400  1.00  0.00     0.000 HD 
HETATM   25  O   UNL     2     -11.835  13.788  70.459  1.00  0.00    -0.296 OA 
ENDBRANCH  20  23
ENDBRANCH   2  20
BRANCH   4  26
HETATM   26  C   UNL     3     -10.125   8.504  70.495  1.00  0.00    -0.192 C  
HETATM   27  H   UNL     3     -11.650   8.871  71.661  1.00  0.00     0.000 HD 
HETATM   28  O   UNL     3     -11.457   8.218  70.998  1.00  0.00    -0.270 OA 
BRANCH  26  29
HETATM   29  C   UNL     3      -9.196   8.711  71.689  1.00  0.00    -0.256 C  
HETATM   30  O   UNL     3      -8.085   9.548  71.380  1.00  0.00    -0.252 OA 
HETATM   31  H   UNL     3      -7.506   9.677  72.123  1.00  0.00     0.000 HD 
ENDBRANCH  26  29
ENDBRANCH   4  26
TORSDOF 4
ENDMDL
MODEL       58
REMARK 921   NORMALIZED FREE ENERGY PREDICTED BY IDOCK:   -4.26 KCAL/MOL
REMARK 922        TOTAL FREE ENERGY PREDICTED BY IDOCK:   -6.26 KCAL/MOL
REMARK 923 INTER-LIGAND FREE ENERGY PREDICTED BY IDOCK:   -5.39 KCAL/MOL
REMARK 924 INTRA-LIGAND FREE ENERGY PREDICTED BY IDOCK:   -0.87 KCAL/MOL
REMARK 927      BINDING AFFINITY PREDICTED BY RF-SCORE:    0.00 PKD
ROOT
HETATM    1 MG   UNL     1     -10.070   2.811  69.436  1.00  0.00    -0.124 Mg 
HETATM    2  C   UNL     2      -9.707   9.245  68.008  1.00  0.00    -0.150 C  
HETATM    3  O   UNL     2      -9.816   9.327  66.579  1.00  0.00    -0.220 OA 
HETATM    4  C   UNL     3     -11.084   6.097  70.041  1.00  0.00    -0.392 C  
HETATM    5  H   UNL     2      -6.279   6.984  67.630  1.00  0.00     0.000 HD 
HETATM    6  O   UNL     3     -11.394   6.460  68.656  1.00  0.00    -0.313 OA 
HETATM    7  O   UNL     3      -8.939   3.944  68.011  1.00  0.00    -0.104 OA 
HETATM    8  C   UNL     3     -10.073   4.971  69.824  1.00  0.00    -0.267 C  
HETATM    9  C   UNL     2      -8.792   8.643  65.998  1.00  0.00    -0.178 C  
HETATM   10  O   UNL     2      -7.962   8.411  69.430  1.00  0.00    -0.107 OA 
HETATM   11  C   UNL     3     -10.492   5.927  67.796  1.00  0.00    -0.238 C  
HETATM   12  C   UNL     2      -7.911   8.156  67.071  1.00  0.00    -0.104 C  
HETATM   13  O   UNL     2      -6.848   7.298  66.937  1.00  0.00    -0.065 OA 
HETATM   14  O   UNL     2      -8.638   8.479  64.801  1.00  0.00    -0.159 OA 
HETATM   15  C   UNL     2      -8.359   8.581  68.250  1.00  0.00    -0.124 C  
HETATM   16  O   UNL     3      -9.975   4.078  70.713  1.00  0.00    -0.188 OA 
HETATM   17  H   UNL     3      -8.385   3.357  68.512  1.00  0.00     0.000 HD 
HETATM   18  C   UNL     3      -9.634   5.017  68.570  1.00  0.00    -0.146 C  
HETATM   19  O   UNL     3     -10.569   5.877  66.581  1.00  0.00    -0.263 OA 
ENDROOT
BRANCH   2  20
HETATM   20  C   UNL     2     -10.135  10.565  68.663  1.00  0.00    -0.180 C  
HETATM   21  O   UNL     2      -9.037  11.440  68.992  1.00  0.00    -0.377 OA 
HETATM   22  H   UNL     2      -9.301  12.257  69.398  1.00  0.00     0.000 HD 
BRANCH  20  23
HETATM   23  C   UNL     2     -11.180  11.330  67.869  1.00  0.00    -0.290 C  
HETATM   24  H   UNL     2     -13.092  11.729  68.054  1.00  0.00     0.000 HD 
HETATM   25  O   UNL     2     -12.438  11.251  68.550  1.00  0.00    -0.434 OA 
ENDBRANCH  20  23
ENDBRANCH   2  20
BRANCH   4  26
HETATM   26  C   UNL     3     -10.803   7.408  70.825  1.00  0.00    -0.241 C  
HETATM   27  H   UNL     3     -11.920   8.773  71.668  1.00  0.00     0.000 HD 
HETATM   28  O   UNL     3     -12.092   7.971  71.188  1.00  0.00    -0.300 OA 
BRANCH  26  29
HETATM   29  C   UNL     3      -9.914   7.406  72.067  1.00  0.00    -0.166 C  
HETATM   30  O   UNL     3      -9.277   8.662  72.287  1.00  0.00    -0.261 OA 
HETATM   31  H   UNL     3      -8.724   8.661  73.059  1.00  0.00     0.000 HD 
ENDBRANCH  26  29
ENDBRANCH   4  26
TORSDOF 4
ENDMDL
MODEL       59
REMARK 921   NORMALIZED FREE ENERGY PREDICTED BY IDOCK:   -4.20 KCAL/MOL
REMARK 922        TOTAL FREE ENERGY PREDICTED BY IDOCK:   -6.20 KCAL/MOL
REMARK 923 INTER-LIGAND FREE ENERGY PREDICTED BY IDOCK:   -5.14 KCAL/MOL
REMARK 924 INTRA-LIGAND FREE ENERGY PREDICTED BY IDOCK:   -1.06 KCAL/MOL
REMARK 927      BINDING AFFINITY PREDICTED BY RF-SCORE:    0.00 PKD
ROOT
HETATM    1 MG   UNL     1     -11.890  12.057  71.005  1.00  0.00    -0.323 Mg 
HETATM    2  C   UNL     2      -8.221   7.734  67.626  1.00  0.00    -0.125 C  
HETATM    3  O   UNL     2      -7.270   8.526  66.899  1.00  0.00    -0.074 OA 
HETATM    4  C   UNL     3     -10.019   9.110  70.915  1.00  0.00    -0.288 C  
HETATM    5  H   UNL     2     -11.314   9.611  65.645  1.00  0.00     0.000 HD 
HETATM    6  O   UNL     3      -8.829   9.659  70.262  1.00  0.00    -0.223 OA 
HETATM    7  O   UNL     3     -11.250  11.945  68.963  1.00  0.00    -0.227 OA 
HETATM    8  C   UNL     3     -11.087  10.095  70.439  1.00  0.00    -0.324 C  
HETATM    9  C   UNL     2      -7.922   9.372  66.055  1.00  0.00    -0.110 C  
HETATM   10  O   UNL     2     -10.595   7.472  67.384  1.00  0.00    -0.270 OA 
HETATM   11  C   UNL     3      -9.164  10.557  69.303  1.00  0.00    -0.148 C  
HETATM   12  C   UNL     2      -9.362   9.081  66.150  1.00  0.00    -0.232 C  
HETATM   13  O   UNL     2     -10.384   9.798  65.584  1.00  0.00    -0.199 OA 
HETATM   14  O   UNL     2      -7.396  10.209  65.345  1.00  0.00    -0.133 OA 
HETATM   15  C   UNL     2      -9.560   8.058  66.980  1.00  0.00    -0.196 C  
HETATM   16  O   UNL     3     -12.100  10.275  71.173  1.00  0.00    -0.341 OA 
HETATM   17  H   UNL     3     -12.186  12.091  69.030  1.00  0.00     0.000 HD 
HETATM   18  C   UNL     3     -10.614  10.784  69.406  1.00  0.00    -0.221 C  
HETATM   19  O   UNL     3      -8.423  11.325  68.717  1.00  0.00    -0.155 OA 
ENDROOT
BRANCH   2  20
HETATM   20  C   UNL     2      -7.699   6.305  67.830  1.00  0.00    -0.102 C  
HETATM   21  O   UNL     2      -8.631   5.278  67.435  1.00  0.00    -0.106 OA 
HETATM   22  H   UNL     2      -8.308   4.394  67.562  1.00  0.00     0.000 HD 
BRANCH  20  23
HETATM   23  C   UNL     2      -6.349   6.051  67.180  1.00  0.00    -0.041 C  
HETATM   24  H   UNL     2      -5.146   4.517  66.964  1.00  0.00     0.000 HD 
HETATM   25  O   UNL     2      -5.989   4.677  67.370  1.00  0.00    -0.022 OA 
ENDBRANCH  20  23
ENDBRANCH   2  20
BRANCH   4  26
HETATM   26  C   UNL     3     -10.039   7.579  70.656  1.00  0.00    -0.187 C  
HETATM   27  H   UNL     3      -8.967   6.065  71.272  1.00  0.00     0.000 HD 
HETATM   28  O   UNL     3      -8.954   7.002  71.430  1.00  0.00    -0.139 OA 
BRANCH  26  29
HETATM   29  C   UNL     3     -11.300   6.755  70.912  1.00  0.00    -0.315 C  
HETATM   30  O   UNL     3     -12.133   6.656  69.760  1.00  0.00    -0.638 OA 
HETATM   31  H   UNL     3     -12.917   6.144  69.919  1.00  0.00     0.000 HD 
ENDBRANCH  26  29
ENDBRANCH   4  26
TORSDOF 4
ENDMDL
MODEL       60
REMARK 921   NORMALIZED FREE ENERGY PREDICTED BY IDOCK:   -4.20 KCAL/MOL
REMARK 922        TOTAL FREE ENERGY PREDICTED BY IDOCK:   -6.20 KCAL/MOL
REMARK 923 INTER-LIGAND FREE ENERGY PREDICTED BY IDOCK:   -5.22 KCAL/MOL
REMARK 924 INTRA-LIGAND FREE ENERGY PREDICTED BY IDOCK:   -0.98 KCAL/MOL
REMARK 927      BINDING AFFINITY PREDICTED BY RF-SCORE:    0.00 PKD
ROOT
HETATM    1 MG   UNL     1     -13.131   8.314  73.384  1.00  0.00    -0.599 Mg 
HETATM    2  C   UNL     2      -8.071   6.815  69.420  1.00  0.00    -0.123 C  
HETATM    3  O   UNL     2      -7.773   5.436  69.684  1.00  0.00    -0.072 OA 
HETATM    4  C   UNL     3     -11.657   8.378  70.219  1.00  0.00     0.016 C  
HETATM    5  H   UNL     2      -7.237   7.761  73.347  1.00  0.00     0.000 HD 
HETATM    6  O   UNL     3     -11.308   6.958  70.142  1.00  0.00    -0.298 OA 
HETATM    7  O   UNL     3     -11.256   7.325  73.696  1.00  0.00    -0.570 OA 
HETATM    8  C   UNL     3     -11.709   8.579  71.734  1.00  0.00    -0.327 C  
HETATM    9  C   UNL     2      -7.426   5.281  70.992  1.00  0.00    -0.087 C  
HETATM   10  O   UNL     2      -7.780   8.793  70.748  1.00  0.00    -0.077 OA 
HETATM   11  C   UNL     3     -10.878   6.491  71.340  1.00  0.00    -0.245 C  
HETATM   12  C   UNL     2      -7.404   6.615  71.613  1.00  0.00    -0.087 C  
HETATM   13  O   UNL     2      -7.252   6.900  72.946  1.00  0.00    -0.075 OA 
HETATM   14  O   UNL     2      -7.173   4.222  71.537  1.00  0.00    -0.047 OA 
HETATM   15  C   UNL     2      -7.672   7.543  70.695  1.00  0.00    -0.090 C  
HETATM   16  O   UNL     3     -12.462   9.486  72.189  1.00  0.00    -0.357 OA 
HETATM   17  H   UNL     3     -11.400   8.014  74.335  1.00  0.00     0.000 HD 
HETATM   18  C   UNL     3     -11.102   7.556  72.329  1.00  0.00    -0.273 C  
HETATM   19  O   UNL     3     -10.698   5.330  71.660  1.00  0.00    -0.219 OA 
ENDROOT
BRANCH   2  20
HETATM   20  C   UNL     2      -7.583   7.220  68.022  1.00  0.00    -0.115 C  
HETATM   21  O   UNL     2      -7.631   8.639  67.771  1.00  0.00    -0.095 OA 
HETATM   22  H   UNL     2      -7.330   8.889  66.907  1.00  0.00     0.000 HD 
BRANCH  20  23
HETATM   23  C   UNL     2      -6.203   6.684  67.679  1.00  0.00    -0.035 C  
HETATM   24  H   UNL     2      -5.459   5.386  66.411  1.00  0.00     0.000 HD 
HETATM   25  O   UNL     2      -6.322   5.720  66.626  1.00  0.00    -0.039 OA 
ENDBRANCH  20  23
ENDBRANCH   2  20
BRANCH   4  26
HETATM   26  C   UNL     3     -10.722   9.151  69.249  1.00  0.00    -0.183 C  
HETATM   27  H   UNL     3     -10.138   8.891  67.402  1.00  0.00     0.000 HD 
HETATM   28  O   UNL     3     -10.710   8.418  67.995  1.00  0.00    -0.168 OA 
BRANCH  26  29
HETATM   29  C   UNL     3     -10.959  10.627  68.938  1.00  0.00    -0.249 C  
HETATM   30  O   UNL     3     -12.213  10.860  68.302  1.00  0.00    -0.804 OA 
HETATM   31  H   UNL     3     -12.360  11.778  68.109  1.00  0.00     0.000 HD 
ENDBRANCH  26  29
ENDBRANCH   4  26
TORSDOF 4
ENDMDL
MODEL       61
REMARK 921   NORMALIZED FREE ENERGY PREDICTED BY IDOCK:   -4.17 KCAL/MOL
REMARK 922        TOTAL FREE ENERGY PREDICTED BY IDOCK:   -6.16 KCAL/MOL
REMARK 923 INTER-LIGAND FREE ENERGY PREDICTED BY IDOCK:   -5.24 KCAL/MOL
REMARK 924 INTRA-LIGAND FREE ENERGY PREDICTED BY IDOCK:   -0.91 KCAL/MOL
REMARK 927      BINDING AFFINITY PREDICTED BY RF-SCORE:    0.00 PKD
ROOT
HETATM    1 MG   UNL     1     -13.904   6.086  72.682  1.00  0.00    -0.540 Mg 
HETATM    2  C   UNL     2      -7.998   8.420  70.882  1.00  0.00    -0.108 C  
HETATM    3  O   UNL     2      -8.219   9.797  70.539  1.00  0.00    -0.209 OA 
HETATM    4  C   UNL     3     -10.483   6.434  73.294  1.00  0.00    -0.254 C  
HETATM    5  H   UNL     2     -10.603   7.248  67.907  1.00  0.00     0.000 HD 
HETATM    6  O   UNL     3     -10.403   7.885  73.107  1.00  0.00    -0.332 OA 
HETATM    7  O   UNL     3     -13.220   7.235  71.007  1.00  0.00    -0.584 OA 
HETATM    8  C   UNL     3     -11.721   6.106  72.458  1.00  0.00    -0.214 C  
HETATM    9  C   UNL     2      -9.106   9.879  69.510  1.00  0.00    -0.223 C  
HETATM   10  O   UNL     2      -8.665   6.381  69.806  1.00  0.00    -0.136 OA 
HETATM   11  C   UNL     3     -11.193   8.294  72.085  1.00  0.00    -0.345 C  
HETATM   12  C   UNL     2      -9.431   8.508  69.084  1.00  0.00    -0.154 C  
HETATM   13  O   UNL     2     -10.394   8.134  68.182  1.00  0.00    -0.203 OA 
HETATM   14  O   UNL     2      -9.540  10.911  69.029  1.00  0.00    -0.200 OA 
HETATM   15  C   UNL     2      -8.718   7.636  69.795  1.00  0.00    -0.140 C  
HETATM   16  O   UNL     3     -12.404   5.092  72.777  1.00  0.00    -0.013 OA 
HETATM   17  H   UNL     3     -13.735   6.486  70.732  1.00  0.00     0.000 HD 
HETATM   18  C   UNL     3     -11.990   7.134  71.659  1.00  0.00    -0.318 C  
HETATM   19  O   UNL     3     -11.498   9.437  71.798  1.00  0.00    -0.380 OA 
ENDROOT
BRANCH   2  20
HETATM   20  C   UNL     2      -6.532   8.184  71.271  1.00  0.00    -0.040 C  
HETATM   21  O   UNL     2      -5.793   7.391  70.321  1.00  0.00    -0.024 OA 
HETATM   22  H   UNL     2      -4.886   7.244  70.562  1.00  0.00     0.000 HD 
BRANCH  20  23
HETATM   23  C   UNL     2      -5.769   9.462  71.577  1.00  0.00    -0.074 C  
HETATM   24  H   UNL     2      -5.309  10.490  73.183  1.00  0.00     0.000 HD 
HETATM   25  O   UNL     2      -5.786   9.691  72.992  1.00  0.00    -0.307 OA 
ENDBRANCH  20  23
ENDBRANCH   2  20
BRANCH   4  26
HETATM   26  C   UNL     3      -9.067   5.844  73.058  1.00  0.00    -0.127 C  
HETATM   27  H   UNL     3      -7.294   6.180  73.810  1.00  0.00     0.000 HD 
HETATM   28  O   UNL     3      -8.161   6.541  73.954  1.00  0.00    -0.106 OA 
BRANCH  26  29
HETATM   29  C   UNL     3      -8.808   4.345  73.187  1.00  0.00    -0.107 C  
HETATM   30  O   UNL     3      -9.985   3.611  73.513  1.00  0.00    -0.110 OA 
HETATM   31  H   UNL     3      -9.824   2.678  73.594  1.00  0.00     0.000 HD 
ENDBRANCH  26  29
ENDBRANCH   4  26
TORSDOF 4
ENDMDL
MODEL       62
REMARK 921   NORMALIZED FREE ENERGY PREDICTED BY IDOCK:   -4.14 KCAL/MOL
REMARK 922        TOTAL FREE ENERGY PREDICTED BY IDOCK:   -6.12 KCAL/MOL
REMARK 923 INTER-LIGAND FREE ENERGY PREDICTED BY IDOCK:   -4.79 KCAL/MOL
REMARK 924 INTRA-LIGAND FREE ENERGY PREDICTED BY IDOCK:   -1.33 KCAL/MOL
REMARK 927      BINDING AFFINITY PREDICTED BY RF-SCORE:    0.00 PKD
ROOT
HETATM    1 MG   UNL     1      -9.346   4.687  74.539  1.00  0.00    -0.109 Mg 
HETATM    2  C   UNL     2      -9.627   8.025  68.852  1.00  0.00    -0.152 C  
HETATM    3  O   UNL     2      -8.694   7.372  67.978  1.00  0.00    -0.125 OA 
HETATM    4  C   UNL     3     -11.231   6.148  71.989  1.00  0.00    -0.286 C  
HETATM    5  H   UNL     2      -6.568   8.919  71.470  1.00  0.00     0.000 HD 
HETATM    6  O   UNL     3     -10.529   5.538  70.858  1.00  0.00    -0.233 OA 
HETATM    7  O   UNL     3      -7.856   5.497  73.229  1.00  0.00    -0.102 OA 
HETATM    8  C   UNL     3     -10.144   6.100  73.062  1.00  0.00    -0.183 C  
HETATM    9  C   UNL     2      -7.443   7.429  68.512  1.00  0.00    -0.105 C  
HETATM   10  O   UNL     2      -9.303   9.369  70.814  1.00  0.00    -0.253 OA 
HETATM   11  C   UNL     3      -9.194   5.476  71.085  1.00  0.00    -0.149 C  
HETATM   12  C   UNL     2      -7.518   8.225  69.748  1.00  0.00    -0.077 C  
HETATM   13  O   UNL     2      -6.520   8.404  70.672  1.00  0.00    -0.035 OA 
HETATM   14  O   UNL     2      -6.446   6.917  68.037  1.00  0.00    -0.046 OA 
HETATM   15  C   UNL     2      -8.759   8.677  69.918  1.00  0.00    -0.133 C  
HETATM   16  O   UNL     3     -10.502   6.042  74.273  1.00  0.00    -0.280 OA 
HETATM   17  H   UNL     3      -7.710   5.759  74.131  1.00  0.00     0.000 HD 
HETATM   18  C   UNL     3      -8.969   5.881  72.480  1.00  0.00    -0.132 C  
HETATM   19  O   UNL     3      -8.362   4.863  70.441  1.00  0.00    -0.088 OA 
ENDROOT
BRANCH   2  20
HETATM   20  C   UNL     2     -10.693   8.778  68.045  1.00  0.00    -0.090 C  
HETATM   21  O   UNL     2     -11.460   9.721  68.822  1.00  0.00    -0.480 OA 
HETATM   22  H   UNL     2     -12.120  10.187  68.323  1.00  0.00     0.000 HD 
BRANCH  20  23
HETATM   23  C   UNL     2     -10.148   9.461  66.802  1.00  0.00    -0.256 C  
HETATM   24  H   UNL     2      -9.373  11.210  66.369  1.00  0.00     0.000 HD 
HETATM   25  O   UNL     2      -9.714  10.783  67.145  1.00  0.00    -0.167 OA 
ENDBRANCH  20  23
ENDBRANCH   2  20
BRANCH   4  26
HETATM   26  C   UNL     3     -11.923   7.441  71.478  1.00  0.00    -0.307 C  
HETATM   27  H   UNL     3     -13.647   7.844  70.650  1.00  0.00     0.000 HD 
HETATM   28  O   UNL     3     -13.224   7.052  70.963  1.00  0.00    -0.273 OA 
BRANCH  26  29
HETATM   29  C   UNL     3     -12.113   8.647  72.397  1.00  0.00    -0.345 C  
HETATM   30  O   UNL     3     -12.047   9.886  71.695  1.00  0.00    -0.389 OA 
HETATM   31  H   UNL     3     -12.165  10.636  72.266  1.00  0.00     0.000 HD 
ENDBRANCH  26  29
ENDBRANCH   4  26
TORSDOF 4
ENDMDL
MODEL       63
REMARK 921   NORMALIZED FREE ENERGY PREDICTED BY IDOCK:   -4.12 KCAL/MOL
REMARK 922        TOTAL FREE ENERGY PREDICTED BY IDOCK:   -6.10 KCAL/MOL
REMARK 923 INTER-LIGAND FREE ENERGY PREDICTED BY IDOCK:   -5.00 KCAL/MOL
REMARK 924 INTRA-LIGAND FREE ENERGY PREDICTED BY IDOCK:   -1.10 KCAL/MOL
REMARK 927      BINDING AFFINITY PREDICTED BY RF-SCORE:    0.00 PKD
ROOT
HETATM    1 MG   UNL     1      -6.422   4.552  68.542  1.00  0.00    -0.028 Mg 
HETATM    2  C   UNL     2      -9.761  10.227  68.089  1.00  0.00    -0.143 C  
HETATM    3  O   UNL     2      -8.851  11.159  67.485  1.00  0.00    -0.137 OA 
HETATM    4  C   UNL     3      -9.321   6.283  67.652  1.00  0.00    -0.116 C  
HETATM    5  H   UNL     2      -7.180   9.750  71.271  1.00  0.00     0.000 HD 
HETATM    6  O   UNL     3      -8.679   7.337  66.863  1.00  0.00    -0.120 OA 
HETATM    7  O   UNL     3      -5.958   6.580  69.053  1.00  0.00    -0.020 OA 
HETATM    8  C   UNL     3      -8.172   5.875  68.575  1.00  0.00    -0.109 C  
HETATM    9  C   UNL     2      -7.750  11.306  68.273  1.00  0.00    -0.122 C  
HETATM   10  O   UNL     2      -9.783   9.196  70.256  1.00  0.00    -0.182 OA 
HETATM   11  C   UNL     3      -7.515   7.737  67.432  1.00  0.00    -0.093 C  
HETATM   12  C   UNL     2      -7.962  10.513  69.494  1.00  0.00    -0.109 C  
HETATM   13  O   UNL     2      -7.043  10.262  70.482  1.00  0.00    -0.298 OA 
HETATM   14  O   UNL     2      -6.775  11.984  68.007  1.00  0.00    -0.062 OA 
HETATM   15  C   UNL     2      -9.172   9.956  69.465  1.00  0.00    -0.223 C  
HETATM   16  O   UNL     3      -8.154   4.692  69.017  1.00  0.00    -0.077 OA 
HETATM   17  H   UNL     3      -5.778   5.987  69.773  1.00  0.00     0.000 HD 
HETATM   18  C   UNL     3      -7.236   6.819  68.547  1.00  0.00    -0.085 C  
HETATM   19  O   UNL     3      -6.657   8.447  66.940  1.00  0.00    -0.056 OA 
ENDROOT
BRANCH   2  20
HETATM   20  C   UNL     2     -11.216  10.657  67.856  1.00  0.00    -0.308 C  
HETATM   21  O   UNL     2     -12.114  10.291  68.923  1.00  0.00    -0.657 OA 
HETATM   22  H   UNL     2     -13.014  10.557  68.779  1.00  0.00     0.000 HD 
BRANCH  20  23
HETATM   23  C   UNL     2     -11.372  12.135  67.538  1.00  0.00    -0.326 C  
HETATM   24  H   UNL     2     -12.322  13.204  66.196  1.00  0.00     0.000 HD 
HETATM   25  O   UNL     2     -12.224  12.281  66.395  1.00  0.00    -0.613 OA 
ENDBRANCH  20  23
ENDBRANCH   2  20
BRANCH   4  26
HETATM   26  C   UNL     3     -10.699   6.817  68.128  1.00  0.00    -0.236 C  
HETATM   27  H   UNL     3     -12.450   7.043  67.290  1.00  0.00     0.000 HD 
HETATM   28  O   UNL     3     -11.607   6.717  66.999  1.00  0.00    -0.032 OA 
BRANCH  26  29
HETATM   29  C   UNL     3     -11.392   6.223  69.353  1.00  0.00    -0.378 C  
HETATM   30  O   UNL     3     -11.733   7.211  70.322  1.00  0.00    -0.475 OA 
HETATM   31  H   UNL     3     -12.163   6.842  71.084  1.00  0.00     0.000 HD 
ENDBRANCH  26  29
ENDBRANCH   4  26
TORSDOF 4
ENDMDL
MODEL       64
REMARK 921   NORMALIZED FREE ENERGY PREDICTED BY IDOCK:   -4.12 KCAL/MOL
REMARK 922        TOTAL FREE ENERGY PREDICTED BY IDOCK:   -6.09 KCAL/MOL
REMARK 923 INTER-LIGAND FREE ENERGY PREDICTED BY IDOCK:   -4.99 KCAL/MOL
REMARK 924 INTRA-LIGAND FREE ENERGY PREDICTED BY IDOCK:   -1.10 KCAL/MOL
REMARK 927      BINDING AFFINITY PREDICTED BY RF-SCORE:    0.00 PKD
ROOT
HETATM    1 MG   UNL     1      -8.520   6.276  74.565  1.00  0.00    -0.115 Mg 
HETATM    2  C   UNL     2      -8.928   8.672  68.429  1.00  0.00    -0.142 C  
HETATM    3  O   UNL     2      -7.631   8.464  67.850  1.00  0.00    -0.096 OA 
HETATM    4  C   UNL     3     -10.217   6.502  71.522  1.00  0.00    -0.192 C  
HETATM    5  H   UNL     2      -7.258  11.074  71.337  1.00  0.00     0.000 HD 
HETATM    6  O   UNL     3      -9.081   6.207  70.647  1.00  0.00    -0.148 OA 
HETATM    7  O   UNL     3      -7.281   7.586  73.409  1.00  0.00    -0.078 OA 
HETATM    8  C   UNL     3      -9.496   7.044  72.756  1.00  0.00    -0.146 C  
HETATM    9  C   UNL     2      -6.691   9.135  68.571  1.00  0.00    -0.059 C  
HETATM   10  O   UNL     2      -9.683  10.154  70.160  1.00  0.00    -0.190 OA 
HETATM   11  C   UNL     3      -7.945   6.788  71.104  1.00  0.00    -0.103 C  
HETATM   12  C   UNL     2      -7.387   9.894  69.622  1.00  0.00    -0.115 C  
HETATM   13  O   UNL     2      -6.809  10.584  70.658  1.00  0.00    -0.330 OA 
HETATM   14  O   UNL     2      -5.491   9.111  68.366  1.00  0.00    -0.037 OA 
HETATM   15  C   UNL     2      -8.702   9.730  69.500  1.00  0.00    -0.185 C  
HETATM   16  O   UNL     3     -10.059   6.916  73.881  1.00  0.00    -0.295 OA 
HETATM   17  H   UNL     3      -7.475   7.951  74.264  1.00  0.00     0.000 HD 
HETATM   18  C   UNL     3      -8.245   7.353  72.428  1.00  0.00    -0.101 C  
HETATM   19  O   UNL     3      -6.806   6.586  70.724  1.00  0.00    -0.059 OA 
ENDROOT
BRANCH   2  20
HETATM   20  C   UNL     2     -10.001   8.783  67.337  1.00  0.00    -0.208 C  
HETATM   21  O   UNL     2     -11.193   9.478  67.754  1.00  0.00    -0.500 OA 
HETATM   22  H   UNL     2     -11.857   9.546  67.079  1.00  0.00     0.000 HD 
BRANCH  20  23
HETATM   23  C   UNL     2      -9.488   9.379  66.037  1.00  0.00    -0.241 C  
HETATM   24  H   UNL     2      -9.058  11.173  65.370  1.00  0.00     0.000 HD 
HETATM   25  O   UNL     2      -9.379  10.800  66.183  1.00  0.00    -0.172 OA 
ENDBRANCH  20  23
ENDBRANCH   2  20
BRANCH   4  26
HETATM   26  C   UNL     3     -11.269   7.285  70.689  1.00  0.00    -0.274 C  
HETATM   27  H   UNL     3     -12.389   6.865  69.144  1.00  0.00     0.000 HD 
HETATM   28  O   UNL     3     -11.746   6.385  69.653  1.00  0.00    -0.389 OA 
BRANCH  26  29
HETATM   29  C   UNL     3     -12.481   7.930  71.359  1.00  0.00    -0.309 C  
HETATM   30  O   UNL     3     -12.779   9.218  70.828  1.00  0.00    -0.506 OA 
HETATM   31  H   UNL     3     -13.533   9.620  71.244  1.00  0.00     0.000 HD 
ENDBRANCH  26  29
ENDBRANCH   4  26
TORSDOF 4
ENDMDL
MODEL       65
REMARK 921   NORMALIZED FREE ENERGY PREDICTED BY IDOCK:   -4.11 KCAL/MOL
REMARK 922        TOTAL FREE ENERGY PREDICTED BY IDOCK:   -6.09 KCAL/MOL
REMARK 923 INTER-LIGAND FREE ENERGY PREDICTED BY IDOCK:   -4.88 KCAL/MOL
REMARK 924 INTRA-LIGAND FREE ENERGY PREDICTED BY IDOCK:   -1.21 KCAL/MOL
REMARK 927      BINDING AFFINITY PREDICTED BY RF-SCORE:    0.00 PKD
ROOT
HETATM    1 MG   UNL     1     -13.000  12.031  70.194  1.00  0.00    -0.165 Mg 
HETATM    2  C   UNL     2      -7.854   9.515  66.914  1.00  0.00    -0.101 C  
HETATM    3  O   UNL     2      -7.728   8.163  67.378  1.00  0.00    -0.099 OA 
HETATM    4  C   UNL     3     -11.298  11.516  67.189  1.00  0.00    -0.284 C  
HETATM    5  H   UNL     2      -7.214  10.904  70.744  1.00  0.00     0.000 HD 
HETATM    6  O   UNL     3     -11.101  10.071  67.325  1.00  0.00    -0.229 OA 
HETATM    7  O   UNL     3     -11.271  10.915  70.794  1.00  0.00    -0.367 OA 
HETATM    8  C   UNL     3     -11.439  11.926  68.655  1.00  0.00    -0.294 C  
HETATM    9  C   UNL     2      -7.498   8.155  68.720  1.00  0.00    -0.090 C  
HETATM   10  O   UNL     2      -7.449  11.619  67.997  1.00  0.00    -0.089 OA 
HETATM   11  C   UNL     3     -10.814   9.734  68.606  1.00  0.00    -0.188 C  
HETATM   12  C   UNL     2      -7.377   9.553  69.164  1.00  0.00    -0.072 C  
HETATM   13  O   UNL     2      -7.292  10.001  70.458  1.00  0.00    -0.261 OA 
HETATM   14  O   UNL     2      -7.401   7.161  69.417  1.00  0.00    -0.085 OA 
HETATM   15  C   UNL     2      -7.474  10.368  68.115  1.00  0.00    -0.090 C  
HETATM   16  O   UNL     3     -12.121  12.956  68.922  1.00  0.00    -0.270 OA 
HETATM   17  H   UNL     3     -11.386  11.695  71.324  1.00  0.00     0.000 HD 
HETATM   18  C   UNL     3     -10.992  10.941  69.427  1.00  0.00    -0.252 C  
HETATM   19  O   UNL     3     -10.785   8.616  69.088  1.00  0.00    -0.206 OA 
ENDROOT
BRANCH   2  20
HETATM   20  C   UNL     2      -7.223   9.675  65.524  1.00  0.00    -0.098 C  
HETATM   21  O   UNL     2      -7.372  10.994  64.960  1.00  0.00    -0.334 OA 
HETATM   22  H   UNL     2      -6.982  11.092  64.100  1.00  0.00     0.000 HD 
BRANCH  20  23
HETATM   23  C   UNL     2      -5.765   9.252  65.463  1.00  0.00    -0.053 C  
HETATM   24  H   UNL     2      -4.755   7.743  64.721  1.00  0.00     0.000 HD 
HETATM   25  O   UNL     2      -5.666   8.008  64.759  1.00  0.00    -0.043 OA 
ENDBRANCH  20  23
ENDBRANCH   2  20
BRANCH   4  26
HETATM   26  C   UNL     3     -10.216  12.054  66.213  1.00  0.00    -0.222 C  
HETATM   27  H   UNL     3      -9.856  11.839  64.304  1.00  0.00     0.000 HD 
HETATM   28  O   UNL     3     -10.518  11.510  64.901  1.00  0.00    -0.264 OA 
BRANCH  26  29
HETATM   29  C   UNL     3      -9.966  13.553  66.064  1.00  0.00    -0.299 C  
HETATM   30  O   UNL     3      -8.622  13.918  66.364  1.00  0.00    -0.424 OA 
HETATM   31  H   UNL     3      -8.466  14.850  66.272  1.00  0.00     0.000 HD 
ENDBRANCH  26  29
ENDBRANCH   4  26
TORSDOF 4
ENDMDL
MODEL       66
REMARK 921   NORMALIZED FREE ENERGY PREDICTED BY IDOCK:   -4.10 KCAL/MOL
REMARK 922        TOTAL FREE ENERGY PREDICTED BY IDOCK:   -6.07 KCAL/MOL
REMARK 923 INTER-LIGAND FREE ENERGY PREDICTED BY IDOCK:   -4.86 KCAL/MOL
REMARK 924 INTRA-LIGAND FREE ENERGY PREDICTED BY IDOCK:   -1.21 KCAL/MOL
REMARK 927      BINDING AFFINITY PREDICTED BY RF-SCORE:    0.00 PKD
ROOT
HETATM    1 MG   UNL     1     -12.010   9.734  67.743  1.00  0.00    -0.543 Mg 
HETATM    2  C   UNL     2      -9.024   5.190  71.485  1.00  0.00    -0.137 C  
HETATM    3  O   UNL     2      -9.768   5.156  72.712  1.00  0.00    -0.151 OA 
HETATM    4  C   UNL     3     -10.635   6.544  68.092  1.00  0.00    -0.251 C  
HETATM    5  H   UNL     2      -8.094   9.154  72.144  1.00  0.00     0.000 HD 
HETATM    6  O   UNL     3     -11.342   6.164  69.316  1.00  0.00    -0.416 OA 
HETATM    7  O   UNL     3     -11.344   9.707  69.780  1.00  0.00    -0.358 OA 
HETATM    8  C   UNL     3     -10.660   8.068  68.207  1.00  0.00    -0.101 C  
HETATM    9  C   UNL     2      -9.729   6.379  73.310  1.00  0.00    -0.163 C  
HETATM   10  O   UNL     2      -7.575   6.856  70.544  1.00  0.00    -0.087 OA 
HETATM   11  C   UNL     3     -11.445   7.211  70.170  1.00  0.00    -0.205 C  
HETATM   12  C   UNL     2      -8.855   7.246  72.504  1.00  0.00    -0.123 C  
HETATM   13  O   UNL     2      -8.659   8.594  72.665  1.00  0.00    -0.376 OA 
HETATM   14  O   UNL     2     -10.309   6.685  74.335  1.00  0.00    -0.357 OA 
HETATM   15  C   UNL     2      -8.343   6.551  71.490  1.00  0.00    -0.121 C  
HETATM   16  O   UNL     3     -10.628   8.747  67.142  1.00  0.00    -0.291 OA 
HETATM   17  H   UNL     3     -11.033  10.477  69.319  1.00  0.00     0.000 HD 
HETATM   18  C   UNL     3     -10.963   8.404  69.457  1.00  0.00    -0.040 C  
HETATM   19  O   UNL     3     -12.130   7.283  71.174  1.00  0.00    -0.316 OA 
ENDROOT
BRANCH   2  20
HETATM   20  C   UNL     2      -8.280   3.867  71.262  1.00  0.00    -0.068 C  
HETATM   21  O   UNL     2      -7.511   3.824  70.043  1.00  0.00    -0.044 OA 
HETATM   22  H   UNL     2      -7.051   3.005  69.904  1.00  0.00     0.000 HD 
BRANCH  20  23
HETATM   23  C   UNL     2      -7.406   3.454  72.434  1.00  0.00    -0.049 C  
HETATM   24  H   UNL     2      -5.490   3.479  72.854  1.00  0.00     0.000 HD 
HETATM   25  O   UNL     2      -6.037   3.737  72.122  1.00  0.00    -0.012 OA 
ENDBRANCH  20  23
ENDBRANCH   2  20
BRANCH   4  26
HETATM   26  C   UNL     3      -9.349   5.678  67.996  1.00  0.00    -0.108 C  
HETATM   27  H   UNL     3      -8.985   3.759  67.927  1.00  0.00     0.000 HD 
HETATM   28  O   UNL     3      -9.772   4.289  67.985  1.00  0.00    -0.157 OA 
BRANCH  26  29
HETATM   29  C   UNL     3      -8.346   5.883  66.863  1.00  0.00    -0.108 C  
HETATM   30  O   UNL     3      -8.931   6.492  65.715  1.00  0.00    -0.279 OA 
HETATM   31  H   UNL     3      -8.307   6.619  65.011  1.00  0.00     0.000 HD 
ENDBRANCH  26  29
ENDBRANCH   4  26
TORSDOF 4
ENDMDL
MODEL       67
REMARK 921   NORMALIZED FREE ENERGY PREDICTED BY IDOCK:   -4.09 KCAL/MOL
REMARK 922        TOTAL FREE ENERGY PREDICTED BY IDOCK:   -6.06 KCAL/MOL
REMARK 923 INTER-LIGAND FREE ENERGY PREDICTED BY IDOCK:   -5.39 KCAL/MOL
REMARK 924 INTRA-LIGAND FREE ENERGY PREDICTED BY IDOCK:   -0.67 KCAL/MOL
REMARK 927      BINDING AFFINITY PREDICTED BY RF-SCORE:    0.00 PKD
ROOT
HETATM    1 MG   UNL     1      -7.987   8.967  65.349  1.00  0.00    -0.089 Mg 
HETATM    2  C   UNL     2     -10.660  14.632  67.428  1.00  0.00    -0.265 C  
HETATM    3  O   UNL     2     -12.076  14.400  67.455  1.00  0.00    -0.397 OA 
HETATM    4  C   UNL     3      -8.037  11.627  67.609  1.00  0.00    -0.140 C  
HETATM    5  H   UNL     2     -10.603  13.895  63.370  1.00  0.00     0.000 HD 
HETATM    6  O   UNL     3      -9.465  11.576  67.933  1.00  0.00    -0.167 OA 
HETATM    7  O   UNL     3      -9.614  10.174  64.650  1.00  0.00    -0.278 OA 
HETATM    8  C   UNL     3      -8.033  10.978  66.225  1.00  0.00    -0.148 C  
HETATM    9  C   UNL     2     -12.516  14.087  66.205  1.00  0.00    -0.430 C  
HETATM   10  O   UNL     2      -9.111  14.838  65.606  1.00  0.00     0.029 OA 
HETATM   11  C   UNL     3     -10.208  11.298  66.834  1.00  0.00    -0.219 C  
HETATM   12  C   UNL     2     -11.373  14.196  65.285  1.00  0.00    -0.328 C  
HETATM   13  O   UNL     2     -11.341  13.824  63.965  1.00  0.00    -0.310 OA 
HETATM   14  O   UNL     2     -13.657  13.782  65.912  1.00  0.00    -0.045 OA 
HETATM   15  C   UNL     2     -10.298  14.616  65.950  1.00  0.00    -0.319 C  
HETATM   16  O   UNL     3      -6.986  10.378  65.852  1.00  0.00    -0.119 OA 
HETATM   17  H   UNL     3      -9.010   9.958  63.948  1.00  0.00     0.000 HD 
HETATM   18  C   UNL     3      -9.274  10.964  65.749  1.00  0.00    -0.201 C  
HETATM   19  O   UNL     3     -11.388  11.000  66.796  1.00  0.00    -0.317 OA 
ENDROOT
BRANCH   2  20
HETATM   20  C   UNL     2     -10.275  15.769  68.385  1.00  0.00    -0.223 C  
HETATM   21  O   UNL     2     -10.853  17.045  68.042  1.00  0.00    -0.371 OA 
HETATM   22  H   UNL     2     -10.615  17.749  68.634  1.00  0.00     0.000 HD 
BRANCH  20  23
HETATM   23  C   UNL     2     -10.552  15.456  69.846  1.00  0.00    -0.303 C  
HETATM   24  H   UNL     2     -11.450  16.350  71.343  1.00  0.00     0.000 HD 
HETATM   25  O   UNL     2     -11.277  16.546  70.430  1.00  0.00    -0.336 OA 
ENDBRANCH  20  23
ENDBRANCH   2  20
BRANCH   4  26
HETATM   26  C   UNL     3      -7.529  13.061  67.922  1.00  0.00    -0.137 C  
HETATM   27  H   UNL     3      -7.586  14.230  69.488  1.00  0.00     0.000 HD 
HETATM   28  O   UNL     3      -7.897  13.353  69.297  1.00  0.00     0.214 OA 
BRANCH  26  29
HETATM   29  C   UNL     3      -6.060  13.434  67.731  1.00  0.00    -0.149 C  
HETATM   30  O   UNL     3      -5.380  12.547  66.848  1.00  0.00    -0.342 OA 
HETATM   31  H   UNL     3      -4.466  12.779  66.729  1.00  0.00     0.000 HD 
ENDBRANCH  26  29
ENDBRANCH   4  26
TORSDOF 4
ENDMDL
MODEL       68
REMARK 921   NORMALIZED FREE ENERGY PREDICTED BY IDOCK:   -4.06 KCAL/MOL
REMARK 922        TOTAL FREE ENERGY PREDICTED BY IDOCK:   -6.02 KCAL/MOL
REMARK 923 INTER-LIGAND FREE ENERGY PREDICTED BY IDOCK:   -4.86 KCAL/MOL
REMARK 924 INTRA-LIGAND FREE ENERGY PREDICTED BY IDOCK:   -1.16 KCAL/MOL
REMARK 927      BINDING AFFINITY PREDICTED BY RF-SCORE:    0.00 PKD
ROOT
HETATM    1 MG   UNL     1     -10.587  12.899  67.173  1.00  0.00    -0.223 Mg 
HETATM    2  C   UNL     2      -8.623   7.222  69.908  1.00  0.00    -0.141 C  
HETATM    3  O   UNL     2      -9.045   7.292  71.278  1.00  0.00    -0.146 OA 
HETATM    4  C   UNL     3     -10.366   9.416  67.064  1.00  0.00    -0.252 C  
HETATM    5  H   UNL     2      -6.254  10.553  70.454  1.00  0.00     0.000 HD 
HETATM    6  O   UNL     3     -10.874   9.150  68.411  1.00  0.00    -0.161 OA 
HETATM    7  O   UNL     3      -9.543  12.417  68.981  1.00  0.00    -0.397 OA 
HETATM    8  C   UNL     3      -9.834  10.839  67.234  1.00  0.00    -0.179 C  
HETATM    9  C   UNL     2      -8.452   8.354  71.890  1.00  0.00    -0.177 C  
HETATM   10  O   UNL     2      -6.929   8.416  68.697  1.00  0.00    -0.065 OA 
HETATM   11  C   UNL     3     -10.416  10.066  69.299  1.00  0.00    -0.225 C  
HETATM   12  C   UNL     2      -7.531   8.973  70.924  1.00  0.00    -0.116 C  
HETATM   13  O   UNL     2      -6.849  10.154  71.078  1.00  0.00    -0.341 OA 
HETATM   14  O   UNL     2      -8.651   8.712  73.036  1.00  0.00    -0.395 OA 
HETATM   15  C   UNL     2      -7.528   8.272  69.792  1.00  0.00    -0.077 C  
HETATM   16  O   UNL     3      -9.802  11.590  66.217  1.00  0.00    -0.205 OA 
HETATM   17  H   UNL     3      -9.093  13.090  68.485  1.00  0.00     0.000 HD 
HETATM   18  C   UNL     3      -9.719  11.108  68.531  1.00  0.00    -0.196 C  
HETATM   19  O   UNL     3     -10.796  10.242  70.442  1.00  0.00    -0.294 OA 
ENDROOT
BRANCH   2  20
HETATM   20  C   UNL     2      -8.453   5.763  69.463  1.00  0.00    -0.112 C  
HETATM   21  O   UNL     2      -7.977   5.613  68.111  1.00  0.00    -0.095 OA 
HETATM   22  H   UNL     2      -7.872   4.711  67.835  1.00  0.00     0.000 HD 
BRANCH  20  23
HETATM   23  C   UNL     2      -7.594   4.935  70.405  1.00  0.00    -0.059 C  
HETATM   24  H   UNL     2      -7.895   3.497  71.705  1.00  0.00     0.000 HD 
HETATM   25  O   UNL     2      -8.431   4.015  71.117  1.00  0.00    -0.074 OA 
ENDBRANCH  20  23
ENDBRANCH   2  20
BRANCH   4  26
HETATM   26  C   UNL     3      -9.515   8.193  66.625  1.00  0.00    -0.213 C  
HETATM   27  H   UNL     3      -9.882   6.296  66.333  1.00  0.00     0.000 HD 
HETATM   28  O   UNL     3     -10.403   7.044  66.601  1.00  0.00    -0.218 OA 
BRANCH  26  29
HETATM   29  C   UNL     3      -8.722   8.214  65.320  1.00  0.00    -0.059 C  
HETATM   30  O   UNL     3      -9.243   9.147  64.377  1.00  0.00    -0.436 OA 
HETATM   31  H   UNL     3      -8.750   9.160  63.565  1.00  0.00     0.000 HD 
ENDBRANCH  26  29
ENDBRANCH   4  26
TORSDOF 4
ENDMDL
MODEL       69
REMARK 921   NORMALIZED FREE ENERGY PREDICTED BY IDOCK:   -3.95 KCAL/MOL
REMARK 922        TOTAL FREE ENERGY PREDICTED BY IDOCK:   -5.89 KCAL/MOL
REMARK 923 INTER-LIGAND FREE ENERGY PREDICTED BY IDOCK:   -5.07 KCAL/MOL
REMARK 924 INTRA-LIGAND FREE ENERGY PREDICTED BY IDOCK:   -0.82 KCAL/MOL
REMARK 927      BINDING AFFINITY PREDICTED BY RF-SCORE:    0.00 PKD
ROOT
HETATM    1 MG   UNL     1      -7.473   8.869  73.735  1.00  0.00    -0.145 Mg 
HETATM    2  C   UNL     2      -9.402   6.687  67.812  1.00  0.00    -0.119 C  
HETATM    3  O   UNL     2      -8.192   6.489  67.065  1.00  0.00    -0.111 OA 
HETATM    4  C   UNL     3      -9.421   6.708  71.805  1.00  0.00    -0.151 C  
HETATM    5  H   UNL     2      -8.520  10.696  68.203  1.00  0.00     0.000 HD 
HETATM    6  O   UNL     3      -8.354   6.220  70.928  1.00  0.00    -0.123 OA 
HETATM    7  O   UNL     3      -6.968   9.416  71.726  1.00  0.00    -0.314 OA 
HETATM    8  C   UNL     3      -8.849   8.061  72.229  1.00  0.00    -0.166 C  
HETATM    9  C   UNL     2      -7.521   7.668  66.952  1.00  0.00    -0.094 C  
HETATM   10  O   UNL     2     -10.497   8.681  68.576  1.00  0.00    -0.209 OA 
HETATM   11  C   UNL     3      -7.496   7.216  70.598  1.00  0.00    -0.081 C  
HETATM   12  C   UNL     2      -8.349   8.717  67.569  1.00  0.00    -0.109 C  
HETATM   13  O   UNL     2      -7.985  10.019  67.804  1.00  0.00    -0.104 OA 
HETATM   14  O   UNL     2      -6.435   7.817  66.423  1.00  0.00    -0.045 OA 
HETATM   15  C   UNL     2      -9.501   8.195  67.986  1.00  0.00    -0.143 C  
HETATM   16  O   UNL     3      -9.200   8.533  73.347  1.00  0.00    -0.161 OA 
HETATM   17  H   UNL     3      -7.202  10.175  72.248  1.00  0.00     0.000 HD 
HETATM   18  C   UNL     3      -7.858   8.391  71.405  1.00  0.00    -0.116 C  
HETATM   19  O   UNL     3      -6.413   7.108  70.052  1.00  0.00    -0.034 OA 
ENDROOT
BRANCH   2  20
HETATM   20  C   UNL     2     -10.537   5.819  67.252  1.00  0.00    -0.279 C  
HETATM   21  O   UNL     2     -11.584   6.569  66.604  1.00  0.00    -0.678 OA 
HETATM   22  H   UNL     2     -12.286   6.032  66.257  1.00  0.00     0.000 HD 
BRANCH  20  23
HETATM   23  C   UNL     2     -10.058   4.707  66.333  1.00  0.00    -0.261 C  
HETATM   24  H   UNL     2     -10.719   3.822  64.712  1.00  0.00     0.000 HD 
HETATM   25  O   UNL     2     -11.018   4.517  65.287  1.00  0.00    -0.252 OA 
ENDBRANCH  20  23
ENDBRANCH   2  20
BRANCH   4  26
HETATM   26  C   UNL     3     -10.773   6.504  71.068  1.00  0.00    -0.243 C  
HETATM   27  H   UNL     3     -11.597   5.027  70.089  1.00  0.00     0.000 HD 
HETATM   28  O   UNL     3     -10.770   5.152  70.539  1.00  0.00    -0.204 OA 
BRANCH  26  29
HETATM   29  C   UNL     3     -12.102   6.735  71.785  1.00  0.00    -0.350 C  
HETATM   30  O   UNL     3     -12.034   7.791  72.739  1.00  0.00    -0.579 OA 
HETATM   31  H   UNL     3     -12.861   7.934  73.185  1.00  0.00     0.000 HD 
ENDBRANCH  26  29
ENDBRANCH   4  26
TORSDOF 4
ENDMDL
MODEL       70
REMARK 921   NORMALIZED FREE ENERGY PREDICTED BY IDOCK:   -3.95 KCAL/MOL
REMARK 922        TOTAL FREE ENERGY PREDICTED BY IDOCK:   -5.88 KCAL/MOL
REMARK 923 INTER-LIGAND FREE ENERGY PREDICTED BY IDOCK:   -4.69 KCAL/MOL
REMARK 924 INTRA-LIGAND FREE ENERGY PREDICTED BY IDOCK:   -1.19 KCAL/MOL
REMARK 927      BINDING AFFINITY PREDICTED BY RF-SCORE:    0.00 PKD
ROOT
HETATM    1 MG   UNL     1      -8.253   9.694  64.508  1.00  0.00    -0.116 Mg 
HETATM    2  C   UNL     2     -10.396   7.006  70.142  1.00  0.00    -0.197 C  
HETATM    3  O   UNL     2     -11.347   7.940  70.675  1.00  0.00    -0.273 OA 
HETATM    4  C   UNL     3      -9.478   6.931  66.257  1.00  0.00    -0.070 C  
HETATM    5  H   UNL     2      -7.436   9.868  70.368  1.00  0.00     0.000 HD 
HETATM    6  O   UNL     3     -10.625   7.594  66.883  1.00  0.00    -0.341 OA 
HETATM    7  O   UNL     3      -8.507  10.447  66.498  1.00  0.00    -0.127 OA 
HETATM    8  C   UNL     3      -8.555   8.125  66.012  1.00  0.00    -0.147 C  
HETATM    9  C   UNL     2     -10.738   9.135  70.909  1.00  0.00    -0.275 C  
HETATM   10  O   UNL     2      -8.011   7.118  69.903  1.00  0.00    -0.117 OA 
HETATM   11  C   UNL     3     -10.312   8.854  67.270  1.00  0.00    -0.280 C  
HETATM   12  C   UNL     2      -9.306   8.977  70.607  1.00  0.00    -0.234 C  
HETATM   13  O   UNL     2      -8.361   9.970  70.564  1.00  0.00    -0.124 OA 
HETATM   14  O   UNL     2     -11.289  10.144  71.308  1.00  0.00    -0.325 OA 
HETATM   15  C   UNL     2      -9.056   7.716  70.258  1.00  0.00    -0.149 C  
HETATM   16  O   UNL     3      -7.734   8.057  65.054  1.00  0.00    -0.097 OA 
HETATM   17  H   UNL     3      -7.642  10.640  66.157  1.00  0.00     0.000 HD 
HETATM   18  C   UNL     3      -8.973   9.154  66.743  1.00  0.00    -0.128 C  
HETATM   19  O   UNL     3     -11.078   9.726  67.640  1.00  0.00    -0.244 OA 
ENDROOT
BRANCH   2  20
HETATM   20  C   UNL     2     -10.659   5.593  70.682  1.00  0.00    -0.277 C  
HETATM   21  O   UNL     2      -9.902   4.561  70.019  1.00  0.00    -0.201 OA 
HETATM   22  H   UNL     2     -10.065   3.687  70.353  1.00  0.00     0.000 HD 
BRANCH  20  23
HETATM   23  C   UNL     2     -10.484   5.473  72.187  1.00  0.00    -0.220 C  
HETATM   24  H   UNL     2     -11.660   5.231  73.737  1.00  0.00     0.000 HD 
HETATM   25  O   UNL     2     -11.770   5.307  72.797  1.00  0.00    -0.275 OA 
ENDBRANCH  20  23
ENDBRANCH   2  20
BRANCH   4  26
HETATM   26  C   UNL     3      -9.119   5.689  67.118  1.00  0.00    -0.111 C  
HETATM   27  H   UNL     3      -9.958   3.955  67.448  1.00  0.00     0.000 HD 
HETATM   28  O   UNL     3     -10.178   4.715  66.922  1.00  0.00    -0.213 OA 
BRANCH  26  29
HETATM   29  C   UNL     3      -7.777   4.978  66.950  1.00  0.00    -0.092 C  
HETATM   30  O   UNL     3      -6.835   5.341  67.956  1.00  0.00    -0.057 OA 
HETATM   31  H   UNL     3      -6.001   4.899  67.852  1.00  0.00     0.000 HD 
ENDBRANCH  26  29
ENDBRANCH   4  26
TORSDOF 4
ENDMDL
MODEL       71
REMARK 921   NORMALIZED FREE ENERGY PREDICTED BY IDOCK:   -3.94 KCAL/MOL
REMARK 922        TOTAL FREE ENERGY PREDICTED BY IDOCK:   -5.87 KCAL/MOL
REMARK 923 INTER-LIGAND FREE ENERGY PREDICTED BY IDOCK:   -4.60 KCAL/MOL
REMARK 924 INTRA-LIGAND FREE ENERGY PREDICTED BY IDOCK:   -1.27 KCAL/MOL
REMARK 927      BINDING AFFINITY PREDICTED BY RF-SCORE:    0.00 PKD
ROOT
HETATM    1 MG   UNL     1      -5.710   8.107  64.829  1.00  0.00    -0.039 Mg 
HETATM    2  C   UNL     2     -10.010   8.572  69.815  1.00  0.00    -0.191 C  
HETATM    3  O   UNL     2     -10.013   7.279  70.439  1.00  0.00    -0.190 OA 
HETATM    4  C   UNL     3      -6.927   9.830  67.612  1.00  0.00    -0.086 C  
HETATM    5  H   UNL     2     -11.316   6.885  66.285  1.00  0.00     0.000 HD 
HETATM    6  O   UNL     3      -6.946   8.700  68.543  1.00  0.00    -0.063 OA 
HETATM    7  O   UNL     3      -7.337   6.880  65.492  1.00  0.00    -0.074 OA 
HETATM    8  C   UNL     3      -7.031   9.099  66.272  1.00  0.00    -0.086 C  
HETATM    9  C   UNL     2     -10.411   6.335  69.543  1.00  0.00    -0.237 C  
HETATM   10  O   UNL     2     -10.827   9.317  67.684  1.00  0.00    -0.250 OA 
HETATM   11  C   UNL     3      -7.348   7.561  67.927  1.00  0.00    -0.099 C  
HETATM   12  C   UNL     2     -10.773   7.024  68.294  1.00  0.00    -0.182 C  
HETATM   13  O   UNL     2     -11.082   6.440  67.092  1.00  0.00    -0.377 OA 
HETATM   14  O   UNL     2     -10.463   5.137  69.752  1.00  0.00    -0.285 OA 
HETATM   15  C   UNL     2     -10.652   8.340  68.455  1.00  0.00    -0.099 C  
HETATM   16  O   UNL     3      -6.533   9.653  65.251  1.00  0.00    -0.074 OA 
HETATM   17  H   UNL     3      -7.396   7.069  64.563  1.00  0.00     0.000 HD 
HETATM   18  C   UNL     3      -7.439   7.852  66.488  1.00  0.00    -0.088 C  
HETATM   19  O   UNL     3      -7.290   6.425  68.360  1.00  0.00    -0.082 OA 
ENDROOT
BRANCH   2  20
HETATM   20  C   UNL     2     -10.472   9.654  70.800  1.00  0.00    -0.305 C  
HETATM   21  O   UNL     2     -10.747  10.929  70.185  1.00  0.00    -0.463 OA 
HETATM   22  H   UNL     2     -11.032  11.599  70.795  1.00  0.00     0.000 HD 
BRANCH  20  23
HETATM   23  C   UNL     2     -11.653   9.233  71.658  1.00  0.00    -0.393 C  
HETATM   24  H   UNL     2     -13.500   9.838  71.925  1.00  0.00     0.000 HD 
HETATM   25  O   UNL     2     -12.762  10.100  71.388  1.00  0.00    -0.353 OA 
ENDBRANCH  20  23
ENDBRANCH   2  20
BRANCH   4  26
HETATM   26  C   UNL     3      -7.937  10.890  68.129  1.00  0.00    -0.117 C  
HETATM   27  H   UNL     3      -7.942  12.185  69.593  1.00  0.00     0.000 HD 
HETATM   28  O   UNL     3      -7.324  11.537  69.276  1.00  0.00    -0.095 OA 
BRANCH  26  29
HETATM   29  C   UNL     3      -8.482  11.975  67.203  1.00  0.00    -0.180 C  
HETATM   30  O   UNL     3      -9.871  12.221  67.405  1.00  0.00    -0.195 OA 
HETATM   31  H   UNL     3     -10.210  12.895  66.828  1.00  0.00     0.000 HD 
ENDBRANCH  26  29
ENDBRANCH   4  26
TORSDOF 4
ENDMDL
MODEL       72
REMARK 921   NORMALIZED FREE ENERGY PREDICTED BY IDOCK:   -3.93 KCAL/MOL
REMARK 922        TOTAL FREE ENERGY PREDICTED BY IDOCK:   -5.86 KCAL/MOL
REMARK 923 INTER-LIGAND FREE ENERGY PREDICTED BY IDOCK:   -4.85 KCAL/MOL
REMARK 924 INTRA-LIGAND FREE ENERGY PREDICTED BY IDOCK:   -1.02 KCAL/MOL
REMARK 927      BINDING AFFINITY PREDICTED BY RF-SCORE:    0.00 PKD
ROOT
HETATM    1 MG   UNL     1     -10.212   7.969  73.078  1.00  0.00    -0.199 Mg 
HETATM    2  C   UNL     2      -8.816   8.698  66.668  1.00  0.00    -0.133 C  
HETATM    3  O   UNL     2      -8.393  10.062  66.521  1.00  0.00    -0.124 OA 
HETATM    4  C   UNL     3      -8.637   6.814  70.184  1.00  0.00    -0.140 C  
HETATM    5  H   UNL     2     -12.506   9.971  68.001  1.00  0.00     0.000 HD 
HETATM    6  O   UNL     3      -7.971   8.065  69.816  1.00  0.00    -0.110 OA 
HETATM    7  O   UNL     3     -10.735   9.443  71.613  1.00  0.00    -0.356 OA 
HETATM    8  C   UNL     3      -9.806   7.344  71.014  1.00  0.00    -0.179 C  
HETATM    9  C   UNL     2      -9.399  10.900  66.896  1.00  0.00    -0.168 C  
HETATM   10  O   UNL     2     -10.962   7.735  67.146  1.00  0.00    -0.245 OA 
HETATM   11  C   UNL     3      -8.767   9.135  70.057  1.00  0.00    -0.177 C  
HETATM   12  C   UNL     2     -10.573  10.075  67.226  1.00  0.00    -0.257 C  
HETATM   13  O   UNL     2     -11.748  10.504  67.789  1.00  0.00    -0.438 OA 
HETATM   14  O   UNL     2      -9.331  12.114  66.938  1.00  0.00    -0.191 OA 
HETATM   15  C   UNL     2     -10.298   8.791  67.000  1.00  0.00    -0.283 C  
HETATM   16  O   UNL     3     -10.286   6.597  71.913  1.00  0.00    -0.198 OA 
HETATM   17  H   UNL     3     -11.499   9.126  72.081  1.00  0.00     0.000 HD 
HETATM   18  C   UNL     3      -9.950   8.645  70.780  1.00  0.00    -0.197 C  
HETATM   19  O   UNL     3      -8.451  10.311  70.043  1.00  0.00    -0.101 OA 
ENDROOT
BRANCH   2  20
HETATM   20  C   UNL     2      -8.251   7.828  65.538  1.00  0.00    -0.137 C  
HETATM   21  O   UNL     2      -9.055   6.672  65.229  1.00  0.00    -0.366 OA 
HETATM   22  H   UNL     2      -8.705   6.133  64.530  1.00  0.00     0.000 HD 
BRANCH  20  23
HETATM   23  C   UNL     2      -7.953   8.601  64.264  1.00  0.00    -0.148 C  
HETATM   24  H   UNL     2      -7.934   8.213  62.341  1.00  0.00     0.000 HD 
HETATM   25  O   UNL     2      -8.120   7.731  63.137  1.00  0.00    -0.143 OA 
ENDBRANCH  20  23
ENDBRANCH   2  20
BRANCH   4  26
HETATM   26  C   UNL     3      -8.776   5.953  68.899  1.00  0.00    -0.116 C  
HETATM   27  H   UNL     3      -7.516   5.091  67.678  1.00  0.00     0.000 HD 
HETATM   28  O   UNL     3      -7.431   5.617  68.464  1.00  0.00    -0.077 OA 
BRANCH  26  29
HETATM   29  C   UNL     3      -9.613   4.675  68.894  1.00  0.00    -0.164 C  
HETATM   30  O   UNL     3      -9.687   4.064  70.180  1.00  0.00    -0.196 OA 
HETATM   31  H   UNL     3     -10.207   3.269  70.177  1.00  0.00     0.000 HD 
ENDBRANCH  26  29
ENDBRANCH   4  26
TORSDOF 4
ENDMDL
MODEL       73
REMARK 921   NORMALIZED FREE ENERGY PREDICTED BY IDOCK:   -3.90 KCAL/MOL
REMARK 922        TOTAL FREE ENERGY PREDICTED BY IDOCK:   -5.82 KCAL/MOL
REMARK 923 INTER-LIGAND FREE ENERGY PREDICTED BY IDOCK:   -5.92 KCAL/MOL
REMARK 924 INTRA-LIGAND FREE ENERGY PREDICTED BY IDOCK:    0.10 KCAL/MOL
REMARK 927      BINDING AFFINITY PREDICTED BY RF-SCORE:    0.00 PKD
ROOT
HETATM    1 MG   UNL     1      -8.925   6.867  70.089  1.00  0.00    -0.135 Mg 
HETATM    2  C   UNL     2      -9.300  10.354  64.498  1.00  0.00    -0.264 C  
HETATM    3  O   UNL     2      -9.137   9.399  63.439  1.00  0.00    -0.198 OA 
HETATM    4  C   UNL     3     -10.541   9.266  68.133  1.00  0.00    -0.198 C  
HETATM    5  H   UNL     2      -5.554   9.415  65.943  1.00  0.00     0.000 HD 
HETATM    6  O   UNL     3     -10.624   8.482  66.899  1.00  0.00    -0.298 OA 
HETATM    7  O   UNL     3      -7.726   6.941  68.314  1.00  0.00    -0.108 OA 
HETATM    8  C   UNL     3      -9.343   8.603  68.814  1.00  0.00    -0.142 C  
HETATM    9  C   UNL     2      -7.923   8.791  63.550  1.00  0.00    -0.158 C  
HETATM   10  O   UNL     2      -7.762  11.203  66.133  1.00  0.00    -0.138 OA 
HETATM   11  C   UNL     3      -9.498   7.753  66.704  1.00  0.00    -0.205 C  
HETATM   12  C   UNL     2      -7.206   9.418  64.671  1.00  0.00    -0.104 C  
HETATM   13  O   UNL     2      -6.017   9.009  65.219  1.00  0.00    -0.057 OA 
HETATM   14  O   UNL     2      -7.513   7.894  62.836  1.00  0.00    -0.097 OA 
HETATM   15  C   UNL     2      -7.940  10.407  65.178  1.00  0.00    -0.134 C  
HETATM   16  O   UNL     3      -9.284   8.633  70.076  1.00  0.00    -0.151 OA 
HETATM   17  H   UNL     3      -7.197   7.025  69.099  1.00  0.00     0.000 HD 
HETATM   18  C   UNL     3      -8.678   7.882  67.918  1.00  0.00    -0.124 C  
HETATM   19  O   UNL     3      -9.324   6.864  65.890  1.00  0.00    -0.049 OA 
ENDROOT
BRANCH   2  20
HETATM   20  C   UNL     2     -10.051  11.597  63.999  1.00  0.00    -0.323 C  
HETATM   21  O   UNL     2     -11.165  11.301  63.133  1.00  0.00    -0.829 OA 
HETATM   22  H   UNL     2     -11.629  12.070  62.824  1.00  0.00     0.000 HD 
BRANCH  20  23
HETATM   23  C   UNL     2     -10.499  12.527  65.114  1.00  0.00    -0.293 C  
HETATM   24  H   UNL     2     -10.672  14.465  65.362  1.00  0.00     0.000 HD 
HETATM   25  O   UNL     2     -10.391  13.883  64.665  1.00  0.00    -0.432 OA 
ENDBRANCH  20  23
ENDBRANCH   2  20
BRANCH   4  26
HETATM   26  C   UNL     3     -10.630  10.768  67.750  1.00  0.00    -0.228 C  
HETATM   27  H   UNL     3     -12.084  12.065  67.594  1.00  0.00     0.000 HD 
HETATM   28  O   UNL     3     -12.030  11.145  67.829  1.00  0.00    -0.630 OA 
BRANCH  26  29
HETATM   29  C   UNL     3      -9.808  11.819  68.493  1.00  0.00    -0.189 C  
HETATM   30  O   UNL     3     -10.614  12.680  69.294  1.00  0.00    -0.438 OA 
HETATM   31  H   UNL     3     -10.104  13.334  69.756  1.00  0.00     0.000 HD 
ENDBRANCH  26  29
ENDBRANCH   4  26
TORSDOF 4
ENDMDL
MODEL       74
REMARK 921   NORMALIZED FREE ENERGY PREDICTED BY IDOCK:   -3.85 KCAL/MOL
REMARK 922        TOTAL FREE ENERGY PREDICTED BY IDOCK:   -5.76 KCAL/MOL
REMARK 923 INTER-LIGAND FREE ENERGY PREDICTED BY IDOCK:   -4.76 KCAL/MOL
REMARK 924 INTRA-LIGAND FREE ENERGY PREDICTED BY IDOCK:   -1.00 KCAL/MOL
REMARK 927      BINDING AFFINITY PREDICTED BY RF-SCORE:    0.00 PKD
ROOT
HETATM    1 MG   UNL     1      -7.222   9.141  72.278  1.00  0.00    -0.098 Mg 
HETATM    2  C   UNL     2      -9.471   6.543  66.643  1.00  0.00    -0.159 C  
HETATM    3  O   UNL     2      -8.944   7.376  65.600  1.00  0.00    -0.089 OA 
HETATM    4  C   UNL     3      -7.760   6.354  70.245  1.00  0.00    -0.098 C  
HETATM    5  H   UNL     2     -11.488   9.774  68.223  1.00  0.00     0.000 HD 
HETATM    6  O   UNL     3      -7.177   6.898  69.016  1.00  0.00    -0.085 OA 
HETATM    7  O   UNL     3      -8.167   9.974  70.544  1.00  0.00    -0.396 OA 
HETATM    8  C   UNL     3      -8.149   7.641  70.973  1.00  0.00    -0.095 C  
HETATM    9  C   UNL     2      -9.392   8.652  65.758  1.00  0.00    -0.158 C  
HETATM   10  O   UNL     2     -11.139   6.949  68.321  1.00  0.00    -0.169 OA 
HETATM   11  C   UNL     3      -7.484   8.210  68.866  1.00  0.00    -0.089 C  
HETATM   12  C   UNL     2     -10.325   8.664  66.896  1.00  0.00    -0.285 C  
HETATM   13  O   UNL     2     -10.886   9.767  67.488  1.00  0.00    -0.283 OA 
HETATM   14  O   UNL     2      -9.077   9.603  65.067  1.00  0.00    -0.203 OA 
HETATM   15  C   UNL     2     -10.475   7.428  67.368  1.00  0.00    -0.296 C  
HETATM   16  O   UNL     3      -8.190   7.622  72.236  1.00  0.00    -0.099 OA 
HETATM   17  H   UNL     3      -8.592  10.257  71.345  1.00  0.00     0.000 HD 
HETATM   18  C   UNL     3      -8.142   8.649  70.106  1.00  0.00    -0.113 C  
HETATM   19  O   UNL     3      -7.006   8.995  68.068  1.00  0.00    -0.075 OA 
ENDROOT
BRANCH   2  20
HETATM   20  C   UNL     2      -9.803   5.143  66.107  1.00  0.00    -0.185 C  
HETATM   21  O   UNL     2     -11.203   4.938  65.829  1.00  0.00    -0.844 OA 
HETATM   22  H   UNL     2     -11.409   4.072  65.498  1.00  0.00     0.000 HD 
BRANCH  20  23
HETATM   23  C   UNL     2      -8.976   4.741  64.898  1.00  0.00    -0.151 C  
HETATM   24  H   UNL     2      -9.313   3.867  63.175  1.00  0.00     0.000 HD 
HETATM   25  O   UNL     2      -9.830   4.119  63.931  1.00  0.00    -0.157 OA 
ENDBRANCH  20  23
ENDBRANCH   2  20
BRANCH   4  26
HETATM   26  C   UNL     3      -8.746   5.223  69.844  1.00  0.00    -0.105 C  
HETATM   27  H   UNL     3      -8.548   3.383  69.216  1.00  0.00     0.000 HD 
HETATM   28  O   UNL     3      -7.944   4.074  69.462  1.00  0.00    -0.056 OA 
BRANCH  26  29
HETATM   29  C   UNL     3      -9.832   4.749  70.807  1.00  0.00    -0.210 C  
HETATM   30  O   UNL     3     -10.966   5.613  70.824  1.00  0.00    -0.260 OA 
HETATM   31  H   UNL     3     -11.641   5.318  71.423  1.00  0.00     0.000 HD 
ENDBRANCH  26  29
ENDBRANCH   4  26
TORSDOF 4
ENDMDL
MODEL       75
REMARK 921   NORMALIZED FREE ENERGY PREDICTED BY IDOCK:   -3.81 KCAL/MOL
REMARK 922        TOTAL FREE ENERGY PREDICTED BY IDOCK:   -5.71 KCAL/MOL
REMARK 923 INTER-LIGAND FREE ENERGY PREDICTED BY IDOCK:   -5.11 KCAL/MOL
REMARK 924 INTRA-LIGAND FREE ENERGY PREDICTED BY IDOCK:   -0.61 KCAL/MOL
REMARK 927      BINDING AFFINITY PREDICTED BY RF-SCORE:    0.00 PKD
ROOT
HETATM    1 MG   UNL     1      -9.748   7.605  73.349  1.00  0.00    -0.158 Mg 
HETATM    2  C   UNL     2      -9.276   7.900  66.772  1.00  0.00    -0.166 C  
HETATM    3  O   UNL     2     -10.254   6.974  66.277  1.00  0.00    -0.002 OA 
HETATM    4  C   UNL     3      -9.557   9.497  70.420  1.00  0.00    -0.269 C  
HETATM    5  H   UNL     2      -7.333   4.824  68.715  1.00  0.00     0.000 HD 
HETATM    6  O   UNL     3     -10.609   8.802  69.675  1.00  0.00    -0.219 OA 
HETATM    7  O   UNL     3      -9.611   6.118  71.812  1.00  0.00    -0.152 OA 
HETATM    8  C   UNL     3      -9.130   8.404  71.401  1.00  0.00    -0.186 C  
HETATM    9  C   UNL     2      -9.974   5.720  66.726  1.00  0.00    -0.175 C  
HETATM   10  O   UNL     2      -7.203   7.560  67.934  1.00  0.00    -0.085 OA 
HETATM   11  C   UNL     3     -10.573   7.467  69.903  1.00  0.00    -0.236 C  
HETATM   12  C   UNL     2      -8.712   5.785  67.481  1.00  0.00    -0.107 C  
HETATM   13  O   UNL     2      -8.148   4.782  68.227  1.00  0.00    -0.085 OA 
HETATM   14  O   UNL     2     -10.649   4.728  66.525  1.00  0.00    -0.259 OA 
HETATM   15  C   UNL     2      -8.224   7.023  67.436  1.00  0.00    -0.119 C  
HETATM   16  O   UNL     3      -8.644   8.757  72.512  1.00  0.00    -0.403 OA 
HETATM   17  H   UNL     3      -8.977   5.967  72.504  1.00  0.00     0.000 HD 
HETATM   18  C   UNL     3      -9.592   7.233  70.974  1.00  0.00    -0.158 C  
HETATM   19  O   UNL     3     -11.413   6.641  69.595  1.00  0.00    -0.338 OA 
ENDROOT
BRANCH   2  20
HETATM   20  C   UNL     2      -8.951   8.967  65.718  1.00  0.00    -0.203 C  
HETATM   21  O   UNL     2      -8.668   8.431  64.409  1.00  0.00    -0.399 OA 
HETATM   22  H   UNL     2      -8.467   9.091  63.757  1.00  0.00     0.000 HD 
BRANCH  20  23
HETATM   23  C   UNL     2     -10.004  10.057  65.610  1.00  0.00    -0.285 C  
HETATM   24  H   UNL     2     -10.579  11.343  64.245  1.00  0.00     0.000 HD 
HETATM   25  O   UNL     2      -9.921  10.661  64.313  1.00  0.00    -0.308 OA 
ENDBRANCH  20  23
ENDBRANCH   2  20
BRANCH   4  26
HETATM   26  C   UNL     3      -8.620  10.185  69.391  1.00  0.00    -0.174 C  
HETATM   27  H   UNL     3      -8.799  11.695  68.163  1.00  0.00     0.000 HD 
HETATM   28  O   UNL     3      -9.373  11.274  68.793  1.00  0.00    -0.182 OA 
BRANCH  26  29
HETATM   29  C   UNL     3      -7.252  10.722  69.808  1.00  0.00    -0.101 C  
HETATM   30  O   UNL     3      -7.130  12.127  69.606  1.00  0.00    -0.341 OA 
HETATM   31  H   UNL     3      -6.279  12.461  69.864  1.00  0.00     0.000 HD 
ENDBRANCH  26  29
ENDBRANCH   4  26
TORSDOF 4
ENDMDL
MODEL       76
REMARK 921   NORMALIZED FREE ENERGY PREDICTED BY IDOCK:   -3.81 KCAL/MOL
REMARK 922        TOTAL FREE ENERGY PREDICTED BY IDOCK:   -5.71 KCAL/MOL
REMARK 923 INTER-LIGAND FREE ENERGY PREDICTED BY IDOCK:   -5.18 KCAL/MOL
REMARK 924 INTRA-LIGAND FREE ENERGY PREDICTED BY IDOCK:   -0.53 KCAL/MOL
REMARK 927      BINDING AFFINITY PREDICTED BY RF-SCORE:    0.00 PKD
ROOT
HETATM    1 MG   UNL     1      -7.077  12.395  70.252  1.00  0.00    -0.360 Mg 
HETATM    2  C   UNL     2      -9.762   6.531  68.848  1.00  0.00    -0.130 C  
HETATM    3  O   UNL     2     -10.015   5.912  70.117  1.00  0.00    -0.175 OA 
HETATM    4  C   UNL     3      -9.406  10.491  68.478  1.00  0.00    -0.168 C  
HETATM    5  H   UNL     2      -5.728   6.658  69.696  1.00  0.00     0.000 HD 
HETATM    6  O   UNL     3      -9.958   9.755  69.617  1.00  0.00    -0.195 OA 
HETATM    7  O   UNL     3      -6.698  10.399  70.931  1.00  0.00    -0.341 OA 
HETATM    8  C   UNL     3      -8.018  10.848  69.013  1.00  0.00    -0.131 C  
HETATM    9  C   UNL     2      -8.845   5.759  70.797  1.00  0.00    -0.137 C  
HETATM   10  O   UNL     2      -7.718   7.025  67.691  1.00  0.00    -0.107 OA 
HETATM   11  C   UNL     3      -8.988   9.418  70.502  1.00  0.00    -0.253 C  
HETATM   12  C   UNL     2      -7.753   6.210  69.920  1.00  0.00    -0.100 C  
HETATM   13  O   UNL     2      -6.434   6.366  70.262  1.00  0.00    -0.038 OA 
HETATM   14  O   UNL     2      -8.734   5.316  71.926  1.00  0.00    -0.129 OA 
HETATM   15  C   UNL     2      -8.245   6.568  68.735  1.00  0.00    -0.119 C  
HETATM   16  O   UNL     3      -7.456  11.887  68.565  1.00  0.00    -0.106 OA 
HETATM   17  H   UNL     3      -5.900  10.832  70.653  1.00  0.00     0.000 HD 
HETATM   18  C   UNL     3      -7.752  10.089  70.072  1.00  0.00    -0.169 C  
HETATM   19  O   UNL     3      -9.135   8.980  71.629  1.00  0.00    -0.300 OA 
ENDROOT
BRANCH   2  20
HETATM   20  C   UNL     2     -10.682   5.949  67.765  1.00  0.00    -0.265 C  
HETATM   21  O   UNL     2     -11.525   6.926  67.123  1.00  0.00    -0.703 OA 
HETATM   22  H   UNL     2     -12.094   6.566  66.453  1.00  0.00     0.000 HD 
BRANCH  20  23
HETATM   23  C   UNL     2      -9.946   5.135  66.714  1.00  0.00    -0.206 C  
HETATM   24  H   UNL     2     -10.442   4.050  65.157  1.00  0.00     0.000 HD 
HETATM   25  O   UNL     2     -10.901   4.558  65.814  1.00  0.00    -0.247 OA 
ENDBRANCH  20  23
ENDBRANCH   2  20
BRANCH   4  26
HETATM   26  C   UNL     3      -9.679   9.658  67.196  1.00  0.00    -0.174 C  
HETATM   27  H   UNL     3     -11.259   9.294  66.103  1.00  0.00     0.000 HD 
HETATM   28  O   UNL     3     -11.091   9.803  66.888  1.00  0.00    -0.041 OA 
BRANCH  26  29
HETATM   29  C   UNL     3      -8.883   9.901  65.915  1.00  0.00    -0.148 C  
HETATM   30  O   UNL     3      -9.329   9.092  64.830  1.00  0.00    -0.436 OA 
HETATM   31  H   UNL     3      -8.834   9.243  64.034  1.00  0.00     0.000 HD 
ENDBRANCH  26  29
ENDBRANCH   4  26
TORSDOF 4
ENDMDL
MODEL       77
REMARK 921   NORMALIZED FREE ENERGY PREDICTED BY IDOCK:   -3.81 KCAL/MOL
REMARK 922        TOTAL FREE ENERGY PREDICTED BY IDOCK:   -5.71 KCAL/MOL
REMARK 923 INTER-LIGAND FREE ENERGY PREDICTED BY IDOCK:   -4.87 KCAL/MOL
REMARK 924 INTRA-LIGAND FREE ENERGY PREDICTED BY IDOCK:   -0.84 KCAL/MOL
REMARK 927      BINDING AFFINITY PREDICTED BY RF-SCORE:    0.00 PKD
ROOT
HETATM    1 MG   UNL     1     -13.081   6.820  72.619  1.00  0.00    -0.482 Mg 
HETATM    2  C   UNL     2      -8.140   7.144  68.255  1.00  0.00    -0.124 C  
HETATM    3  O   UNL     2      -8.361   8.354  67.516  1.00  0.00    -0.126 OA 
HETATM    4  C   UNL     3      -9.671   6.604  71.903  1.00  0.00    -0.153 C  
HETATM    5  H   UNL     2     -11.770   5.674  66.961  1.00  0.00     0.000 HD 
HETATM    6  O   UNL     3      -9.548   7.868  71.173  1.00  0.00    -0.157 OA 
HETATM    7  O   UNL     3     -12.997   7.204  70.513  1.00  0.00    -0.581 OA 
HETATM    8  C   UNL     3     -11.156   6.300  71.704  1.00  0.00    -0.274 C  
HETATM    9  C   UNL     2      -9.565   8.294  66.881  1.00  0.00    -0.207 C  
HETATM   10  O   UNL     2      -9.332   5.061  68.300  1.00  0.00    -0.116 OA 
HETATM   11  C   UNL     3     -10.633   8.091  70.391  1.00  0.00    -0.224 C  
HETATM   12  C   UNL     2     -10.138   6.961  67.130  1.00  0.00    -0.209 C  
HETATM   13  O   UNL     2     -11.400   6.535  66.801  1.00  0.00    -0.272 OA 
HETATM   14  O   UNL     2     -10.062   9.187  66.221  1.00  0.00    -0.286 OA 
HETATM   15  C   UNL     2      -9.283   6.228  67.840  1.00  0.00    -0.116 C  
HETATM   16  O   UNL     3     -11.746   5.611  72.583  1.00  0.00    -0.303 OA 
HETATM   17  H   UNL     3     -13.638   6.535  70.722  1.00  0.00     0.000 HD 
HETATM   18  C   UNL     3     -11.625   7.054  70.714  1.00  0.00    -0.338 C  
HETATM   19  O   UNL     3     -10.930   9.121  69.814  1.00  0.00    -0.233 OA 
ENDROOT
BRANCH   2  20
HETATM   20  C   UNL     2      -6.661   6.736  68.203  1.00  0.00    -0.068 C  
HETATM   21  O   UNL     2      -6.202   6.361  66.888  1.00  0.00    -0.036 OA 
HETATM   22  H   UNL     2      -5.287   6.109  66.856  1.00  0.00     0.000 HD 
BRANCH  20  23
HETATM   23  C   UNL     2      -5.722   7.770  68.800  1.00  0.00    -0.027 C  
HETATM   24  H   UNL     2      -5.686   8.895  70.406  1.00  0.00     0.000 HD 
HETATM   25  O   UNL     2      -6.274   8.249  70.033  1.00  0.00    -0.034 OA 
ENDBRANCH  20  23
ENDBRANCH   2  20
BRANCH   4  26
HETATM   26  C   UNL     3      -8.505   5.681  71.456  1.00  0.00    -0.128 C  
HETATM   27  H   UNL     3      -6.618   5.515  71.939  1.00  0.00     0.000 HD 
HETATM   28  O   UNL     3      -7.332   6.080  72.213  1.00  0.00    -0.090 OA 
BRANCH  26  29
HETATM   29  C   UNL     3      -8.630   4.161  71.533  1.00  0.00    -0.106 C  
HETATM   30  O   UNL     3      -9.755   3.666  70.812  1.00  0.00    -0.176 OA 
HETATM   31  H   UNL     3      -9.834   2.721  70.860  1.00  0.00     0.000 HD 
ENDBRANCH  26  29
ENDBRANCH   4  26
TORSDOF 4
ENDMDL
MODEL       78
REMARK 921   NORMALIZED FREE ENERGY PREDICTED BY IDOCK:   -3.72 KCAL/MOL
REMARK 922        TOTAL FREE ENERGY PREDICTED BY IDOCK:   -5.60 KCAL/MOL
REMARK 923 INTER-LIGAND FREE ENERGY PREDICTED BY IDOCK:   -4.41 KCAL/MOL
REMARK 924 INTRA-LIGAND FREE ENERGY PREDICTED BY IDOCK:   -1.19 KCAL/MOL
REMARK 927      BINDING AFFINITY PREDICTED BY RF-SCORE:    0.00 PKD
ROOT
HETATM    1 MG   UNL     1      -5.814   8.204  64.285  1.00  0.00    -0.047 Mg 
HETATM    2  C   UNL     2     -10.133   6.884  69.098  1.00  0.00    -0.173 C  
HETATM    3  O   UNL     2      -9.702   5.639  69.668  1.00  0.00    -0.152 OA 
HETATM    4  C   UNL     3      -7.626   9.247  67.082  1.00  0.00    -0.091 C  
HETATM    5  H   UNL     2     -10.680   5.040  65.450  1.00  0.00     0.000 HD 
HETATM    6  O   UNL     3      -7.274   8.133  67.964  1.00  0.00    -0.090 OA 
HETATM    7  O   UNL     3      -6.929   6.457  64.827  1.00  0.00    -0.048 OA 
HETATM    8  C   UNL     3      -7.435   8.599  65.711  1.00  0.00    -0.085 C  
HETATM    9  C   UNL     2      -9.724   4.664  68.717  1.00  0.00    -0.160 C  
HETATM   10  O   UNL     2     -11.104   7.413  66.968  1.00  0.00    -0.268 OA 
HETATM   11  C   UNL     3      -7.239   6.961  67.285  1.00  0.00    -0.089 C  
HETATM   12  C   UNL     2     -10.271   5.251  67.484  1.00  0.00    -0.178 C  
HETATM   13  O   UNL     2     -10.326   4.661  66.247  1.00  0.00    -0.268 OA 
HETATM   14  O   UNL     2      -9.361   3.513  68.875  1.00  0.00    -0.151 OA 
HETATM   15  C   UNL     2     -10.619   6.517  67.704  1.00  0.00    -0.269 C  
HETATM   16  O   UNL     3      -7.134   9.345  64.735  1.00  0.00    -0.096 OA 
HETATM   17  H   UNL     3      -7.026   6.662  63.905  1.00  0.00     0.000 HD 
HETATM   18  C   UNL     3      -7.388   7.279  65.857  1.00  0.00    -0.075 C  
HETATM   19  O   UNL     3      -6.800   5.893  67.674  1.00  0.00    -0.057 OA 
ENDROOT
BRANCH   2  20
HETATM   20  C   UNL     2     -10.968   7.685  70.107  1.00  0.00    -0.246 C  
HETATM   21  O   UNL     2     -11.466   8.937  69.594  1.00  0.00    -0.441 OA 
HETATM   22  H   UNL     2     -11.982   9.433  70.218  1.00  0.00     0.000 HD 
BRANCH  20  23
HETATM   23  C   UNL     2     -12.109   6.891  70.720  1.00  0.00    -0.349 C  
HETATM   24  H   UNL     2     -12.636   6.325  72.523  1.00  0.00     0.000 HD 
HETATM   25  O   UNL     2     -11.923   6.821  72.139  1.00  0.00    -0.299 OA 
ENDBRANCH  20  23
ENDBRANCH   2  20
BRANCH   4  26
HETATM   26  C   UNL     3      -8.954   9.863  67.600  1.00  0.00    -0.128 C  
HETATM   27  H   UNL     3      -9.576  10.543  69.324  1.00  0.00     0.000 HD 
HETATM   28  O   UNL     3      -8.763  10.166  69.007  1.00  0.00    -0.140 OA 
BRANCH  26  29
HETATM   29  C   UNL     3      -9.568  11.089  66.926  1.00  0.00    -0.182 C  
HETATM   30  O   UNL     3      -8.679  11.709  66.000  1.00  0.00    -0.331 OA 
HETATM   31  H   UNL     3      -9.061  12.471  65.581  1.00  0.00     0.000 HD 
ENDBRANCH  26  29
ENDBRANCH   4  26
TORSDOF 4
ENDMDL
MODEL       79
REMARK 921   NORMALIZED FREE ENERGY PREDICTED BY IDOCK:   -3.71 KCAL/MOL
REMARK 922        TOTAL FREE ENERGY PREDICTED BY IDOCK:   -5.58 KCAL/MOL
REMARK 923 INTER-LIGAND FREE ENERGY PREDICTED BY IDOCK:   -4.64 KCAL/MOL
REMARK 924 INTRA-LIGAND FREE ENERGY PREDICTED BY IDOCK:   -0.94 KCAL/MOL
REMARK 927      BINDING AFFINITY PREDICTED BY RF-SCORE:    0.00 PKD
ROOT
HETATM    1 MG   UNL     1     -12.458   7.297  72.806  1.00  0.00    -0.453 Mg 
HETATM    2  C   UNL     2      -8.857   9.157  67.596  1.00  0.00    -0.120 C  
HETATM    3  O   UNL     2      -8.418  10.492  67.891  1.00  0.00    -0.117 OA 
HETATM    4  C   UNL     3      -9.941   6.620  70.482  1.00  0.00    -0.179 C  
HETATM    5  H   UNL     2     -12.787  10.396  67.773  1.00  0.00     0.000 HD 
HETATM    6  O   UNL     3      -9.195   7.870  70.638  1.00  0.00    -0.155 OA 
HETATM    7  O   UNL     3     -12.429   9.059  71.586  1.00  0.00    -0.314 OA 
HETATM    8  C   UNL     3     -11.334   7.058  70.937  1.00  0.00    -0.295 C  
HETATM    9  C   UNL     2      -9.497  11.307  68.050  1.00  0.00    -0.173 C  
HETATM   10  O   UNL     2     -11.025   8.268  67.078  1.00  0.00    -0.134 OA 
HETATM   11  C   UNL     3     -10.031   8.925  70.796  1.00  0.00    -0.226 C  
HETATM   12  C   UNL     2     -10.705  10.516  67.768  1.00  0.00    -0.272 C  
HETATM   13  O   UNL     2     -12.007  10.907  67.955  1.00  0.00    -0.586 OA 
HETATM   14  O   UNL     2      -9.456  12.483  68.362  1.00  0.00    -0.214 OA 
HETATM   15  C   UNL     2     -10.360   9.285  67.396  1.00  0.00    -0.263 C  
HETATM   16  O   UNL     3     -12.100   6.185  71.434  1.00  0.00    -0.171 OA 
HETATM   17  H   UNL     3     -13.308   8.711  71.679  1.00  0.00     0.000 HD 
HETATM   18  C   UNL     3     -11.392   8.386  70.939  1.00  0.00    -0.268 C  
HETATM   19  O   UNL     3      -9.738  10.057  71.137  1.00  0.00     0.249 OA 
ENDROOT
BRANCH   2  20
HETATM   20  C   UNL     2      -7.918   8.486  66.585  1.00  0.00    -0.100 C  
HETATM   21  O   UNL     2      -7.639   7.101  66.872  1.00  0.00    -0.097 OA 
HETATM   22  H   UNL     2      -7.058   6.685  66.247  1.00  0.00     0.000 HD 
BRANCH  20  23
HETATM   23  C   UNL     2      -8.373   8.629  65.142  1.00  0.00    -0.168 C  
HETATM   24  H   UNL     2      -8.048   9.884  63.670  1.00  0.00     0.000 HD 
HETATM   25  O   UNL     2      -7.764   9.794  64.572  1.00  0.00    -0.125 OA 
ENDBRANCH  20  23
ENDBRANCH   2  20
BRANCH   4  26
HETATM   26  C   UNL     3      -9.604   6.035  69.083  1.00  0.00    -0.132 C  
HETATM   27  H   UNL     3      -8.055   5.130  68.308  1.00  0.00     0.000 HD 
HETATM   28  O   UNL     3      -8.261   5.487  69.164  1.00  0.00    -0.094 OA 
BRANCH  26  29
HETATM   29  C   UNL     3     -10.507   4.993  68.427  1.00  0.00     0.054 C  
HETATM   30  O   UNL     3     -10.847   5.330  67.085  1.00  0.00    -0.289 OA 
HETATM   31  H   UNL     3     -11.410   4.682  66.676  1.00  0.00     0.000 HD 
ENDBRANCH  26  29
ENDBRANCH   4  26
TORSDOF 4
ENDMDL
MODEL       80
REMARK 921   NORMALIZED FREE ENERGY PREDICTED BY IDOCK:   -3.70 KCAL/MOL
REMARK 922        TOTAL FREE ENERGY PREDICTED BY IDOCK:   -5.57 KCAL/MOL
REMARK 923 INTER-LIGAND FREE ENERGY PREDICTED BY IDOCK:   -4.53 KCAL/MOL
REMARK 924 INTRA-LIGAND FREE ENERGY PREDICTED BY IDOCK:   -1.05 KCAL/MOL
REMARK 927      BINDING AFFINITY PREDICTED BY RF-SCORE:    0.00 PKD
ROOT
HETATM    1 MG   UNL     1      -6.188   4.764  68.039  1.00  0.00    -0.025 Mg 
HETATM    2  C   UNL     2     -10.121   9.913  66.782  1.00  0.00    -0.230 C  
HETATM    3  O   UNL     2     -10.402   9.846  65.376  1.00  0.00    -0.207 OA 
HETATM    4  C   UNL     3      -8.983   6.694  68.850  1.00  0.00    -0.130 C  
HETATM    5  H   UNL     2      -6.096  10.310  65.973  1.00  0.00     0.000 HD 
HETATM    6  O   UNL     3      -9.591   6.720  67.518  1.00  0.00    -0.125 OA 
HETATM    7  O   UNL     3      -6.180   6.294  66.539  1.00  0.00    -0.034 OA 
HETATM    8  C   UNL     3      -7.517   6.450  68.492  1.00  0.00    -0.088 C  
HETATM    9  C   UNL     2      -9.242   9.939  64.669  1.00  0.00    -0.258 C  
HETATM   10  O   UNL     2      -8.109  10.430  67.985  1.00  0.00    -0.108 OA 
HETATM   11  C   UNL     3      -8.649   6.839  66.551  1.00  0.00    -0.128 C  
HETATM   12  C   UNL     2      -8.148  10.164  65.627  1.00  0.00    -0.149 C  
HETATM   13  O   UNL     2      -6.803  10.165  65.354  1.00  0.00    -0.116 OA 
HETATM   14  O   UNL     2      -9.142   9.858  63.458  1.00  0.00    -0.239 OA 
HETATM   15  C   UNL     2      -8.641  10.260  66.860  1.00  0.00    -0.126 C  
HETATM   16  O   UNL     3      -6.786   5.859  69.338  1.00  0.00    -0.057 OA 
HETATM   17  H   UNL     3      -5.332   6.210  66.959  1.00  0.00     0.000 HD 
HETATM   18  C   UNL     3      -7.336   6.709  67.201  1.00  0.00    -0.083 C  
HETATM   19  O   UNL     3      -8.799   6.700  65.350  1.00  0.00    -0.060 OA 
ENDROOT
BRANCH   2  20
HETATM   20  C   UNL     2     -11.217  10.694  67.520  1.00  0.00    -0.253 C  
HETATM   21  O   UNL     2     -11.070  10.699  68.955  1.00  0.00    -0.226 OA 
HETATM   22  H   UNL     2     -11.748  11.181  69.411  1.00  0.00     0.000 HD 
BRANCH  20  23
HETATM   23  C   UNL     2     -11.397  12.117  67.018  1.00  0.00    -0.337 C  
HETATM   24  H   UNL     2     -12.391  12.996  65.574  1.00  0.00     0.000 HD 
HETATM   25  O   UNL     2     -12.279  12.107  65.888  1.00  0.00    -0.604 OA 
ENDBRANCH  20  23
ENDBRANCH   2  20
BRANCH   4  26
HETATM   26  C   UNL     3      -9.516   7.919  69.641  1.00  0.00    -0.160 C  
HETATM   27  H   UNL     3     -11.178   8.332  70.583  1.00  0.00     0.000 HD 
HETATM   28  O   UNL     3     -10.852   7.582  70.100  1.00  0.00    -0.243 OA 
BRANCH  26  29
HETATM   29  C   UNL     3      -8.735   8.494  70.821  1.00  0.00    -0.160 C  
HETATM   30  O   UNL     3      -8.386   9.863  70.634  1.00  0.00    -0.383 OA 
HETATM   31  H   UNL     3      -7.900  10.220  71.367  1.00  0.00     0.000 HD 
ENDBRANCH  26  29
ENDBRANCH   4  26
TORSDOF 4
ENDMDL
MODEL       81
REMARK 921   NORMALIZED FREE ENERGY PREDICTED BY IDOCK:   -3.69 KCAL/MOL
REMARK 922        TOTAL FREE ENERGY PREDICTED BY IDOCK:   -5.57 KCAL/MOL
REMARK 923 INTER-LIGAND FREE ENERGY PREDICTED BY IDOCK:   -4.99 KCAL/MOL
REMARK 924 INTRA-LIGAND FREE ENERGY PREDICTED BY IDOCK:   -0.58 KCAL/MOL
REMARK 927      BINDING AFFINITY PREDICTED BY RF-SCORE:    0.00 PKD
ROOT
HETATM    1 MG   UNL     1     -13.347  14.260  71.783  1.00  0.00    -0.291 Mg 
HETATM    2  C   UNL     2      -9.047  14.950  66.824  1.00  0.00    -0.270 C  
HETATM    3  O   UNL     2      -9.293  13.842  65.947  1.00  0.00    -0.109 OA 
HETATM    4  C   UNL     3     -11.825  16.271  69.368  1.00  0.00    -0.021 C  
HETATM    5  H   UNL     2      -8.084  12.342  69.870  1.00  0.00     0.000 HD 
HETATM    6  O   UNL     3     -12.026  15.380  68.223  1.00  0.00    -0.283 OA 
HETATM    7  O   UNL     3     -11.987  12.918  70.813  1.00  0.00    -0.500 OA 
HETATM    8  C   UNL     3     -11.862  15.269  70.522  1.00  0.00    -0.324 C  
HETATM    9  C   UNL     2      -9.083  12.671  66.611  1.00  0.00    -0.193 C  
HETATM   10  O   UNL     2      -8.097  15.062  69.026  1.00  0.00    -0.157 OA 
HETATM   11  C   UNL     3     -11.850  14.083  68.574  1.00  0.00    -0.364 C  
HETATM   12  C   UNL     2      -8.593  13.001  67.958  1.00  0.00    -0.186 C  
HETATM   13  O   UNL     2      -8.400  12.129  69.000  1.00  0.00     0.115 OA 
HETATM   14  O   UNL     2      -9.263  11.557  66.156  1.00  0.00    -0.211 OA 
HETATM   15  C   UNL     2      -8.459  14.321  68.078  1.00  0.00    -0.164 C  
HETATM   16  O   UNL     3     -12.242  15.678  71.655  1.00  0.00    -0.351 OA 
HETATM   17  H   UNL     3     -11.892  12.891  71.758  1.00  0.00     0.000 HD 
HETATM   18  C   UNL     3     -11.702  14.041  70.036  1.00  0.00    -0.280 C  
HETATM   19  O   UNL     3     -12.127  13.095  67.917  1.00  0.00    -0.321 OA 
ENDROOT
BRANCH   2  20
HETATM   20  C   UNL     2      -8.386  16.109  66.065  1.00  0.00    -0.015 C  
HETATM   21  O   UNL     2      -9.298  17.163  65.693  1.00  0.00    -0.515 OA 
HETATM   22  H   UNL     2      -8.890  17.880  65.223  1.00  0.00     0.000 HD 
BRANCH  20  23
HETATM   23  C   UNL     2      -7.184  16.701  66.781  1.00  0.00    -0.237 C  
HETATM   24  H   UNL     2      -6.796  18.340  67.786  1.00  0.00     0.000 HD 
HETATM   25  O   UNL     2      -7.547  17.970  67.339  1.00  0.00    -0.201 OA 
ENDBRANCH  20  23
ENDBRANCH   2  20
BRANCH   4  26
HETATM   26  C   UNL     3     -10.631  17.208  69.039  1.00  0.00    -0.282 C  
HETATM   27  H   UNL     3     -10.204  18.428  67.572  1.00  0.00     0.000 HD 
HETATM   28  O   UNL     3     -10.935  17.855  67.774  1.00  0.00    -0.307 OA 
BRANCH  26  29
HETATM   29  C   UNL     3     -10.176  18.280  70.027  1.00  0.00     1.088 C  
HETATM   30  O   UNL     3     -10.333  19.600  69.514  1.00  0.00    -0.607 OA 
HETATM   31  H   UNL     3     -10.050  20.267  70.129  1.00  0.00     0.000 HD 
ENDBRANCH  26  29
ENDBRANCH   4  26
TORSDOF 4
ENDMDL
MODEL       82
REMARK 921   NORMALIZED FREE ENERGY PREDICTED BY IDOCK:   -3.69 KCAL/MOL
REMARK 922        TOTAL FREE ENERGY PREDICTED BY IDOCK:   -5.56 KCAL/MOL
REMARK 923 INTER-LIGAND FREE ENERGY PREDICTED BY IDOCK:   -4.22 KCAL/MOL
REMARK 924 INTRA-LIGAND FREE ENERGY PREDICTED BY IDOCK:   -1.34 KCAL/MOL
REMARK 927      BINDING AFFINITY PREDICTED BY RF-SCORE:    0.00 PKD
ROOT
HETATM    1 MG   UNL     1      -9.891   2.471  65.683  1.00  0.00    -0.282 Mg 
HETATM    2  C   UNL     2      -8.088   6.526  70.568  1.00  0.00    -0.117 C  
HETATM    3  O   UNL     2      -7.206   5.757  71.398  1.00  0.00    -0.074 OA 
HETATM    4  C   UNL     3      -8.720   5.586  66.739  1.00  0.00    -0.114 C  
HETATM    5  H   UNL     2     -11.137   3.848  71.303  1.00  0.00     0.000 HD 
HETATM    6  O   UNL     3      -7.640   5.101  67.603  1.00  0.00    -0.085 OA 
HETATM    7  O   UNL     3      -9.804   2.265  67.814  1.00  0.00    -0.331 OA 
HETATM    8  C   UNL     3      -9.656   4.377  66.744  1.00  0.00    -0.199 C  
HETATM    9  C   UNL     2      -7.864   4.670  71.888  1.00  0.00    -0.098 C  
HETATM   10  O   UNL     2     -10.452   6.375  70.182  1.00  0.00    -0.195 OA 
HETATM   11  C   UNL     3      -8.016   3.989  68.281  1.00  0.00    -0.076 C  
HETATM   12  C   UNL     2      -9.264   4.755  71.445  1.00  0.00    -0.142 C  
HETATM   13  O   UNL     2     -10.232   3.794  71.590  1.00  0.00    -0.125 OA 
HETATM   14  O   UNL     2      -7.372   3.796  72.578  1.00  0.00    -0.051 OA 
HETATM   15  C   UNL     2      -9.453   5.882  70.761  1.00  0.00    -0.165 C  
HETATM   16  O   UNL     3     -10.403   4.197  65.740  1.00  0.00    -0.183 OA 
HETATM   17  H   UNL     3     -10.648   1.996  67.469  1.00  0.00     0.000 HD 
HETATM   18  C   UNL     3      -9.321   3.572  67.748  1.00  0.00    -0.197 C  
HETATM   19  O   UNL     3      -7.303   3.239  68.924  1.00  0.00    -0.049 OA 
ENDROOT
BRANCH   2  20
HETATM   20  C   UNL     2      -7.825   8.029  70.739  1.00  0.00    -0.091 C  
HETATM   21  O   UNL     2      -8.785   8.873  70.071  1.00  0.00    -0.130 OA 
HETATM   22  H   UNL     2      -8.622   9.802  70.176  1.00  0.00     0.000 HD 
BRANCH  20  23
HETATM   23  C   UNL     2      -7.682   8.462  72.188  1.00  0.00    -0.115 C  
HETATM   24  H   UNL     2      -8.881   9.096  73.605  1.00  0.00     0.000 HD 
HETATM   25  O   UNL     2      -8.970   8.825  72.699  1.00  0.00    -0.380 OA 
ENDBRANCH  20  23
ENDBRANCH   2  20
BRANCH   4  26
HETATM   26  C   UNL     3      -9.105   7.013  67.215  1.00  0.00    -0.125 C  
HETATM   27  H   UNL     3      -8.397   8.807  66.897  1.00  0.00     0.000 HD 
HETATM   28  O   UNL     3      -8.161   7.933  66.606  1.00  0.00    -0.103 OA 
BRANCH  26  29
HETATM   29  C   UNL     3     -10.515   7.560  66.998  1.00  0.00    -0.338 C  
HETATM   30  O   UNL     3     -11.012   8.259  68.136  1.00  0.00    -0.452 OA 
HETATM   31  H   UNL     3     -11.889   8.599  68.002  1.00  0.00     0.000 HD 
ENDBRANCH  26  29
ENDBRANCH   4  26
TORSDOF 4
ENDMDL
MODEL       83
REMARK 921   NORMALIZED FREE ENERGY PREDICTED BY IDOCK:   -3.67 KCAL/MOL
REMARK 922        TOTAL FREE ENERGY PREDICTED BY IDOCK:   -5.54 KCAL/MOL
REMARK 923 INTER-LIGAND FREE ENERGY PREDICTED BY IDOCK:   -4.64 KCAL/MOL
REMARK 924 INTRA-LIGAND FREE ENERGY PREDICTED BY IDOCK:   -0.90 KCAL/MOL
REMARK 927      BINDING AFFINITY PREDICTED BY RF-SCORE:    0.00 PKD
ROOT
HETATM    1 MG   UNL     1      -8.745   4.310  65.104  1.00  0.00    -0.110 Mg 
HETATM    2  C   UNL     2      -9.975   8.119  70.353  1.00  0.00    -0.188 C  
HETATM    3  O   UNL     2     -11.006   9.025  69.935  1.00  0.00    -0.235 OA 
HETATM    4  C   UNL     3      -9.388   4.620  68.523  1.00  0.00    -0.138 C  
HETATM    5  H   UNL     2      -7.470   9.602  67.431  1.00  0.00     0.000 HD 
HETATM    6  O   UNL     3     -10.564   5.486  68.418  1.00  0.00    -0.197 OA 
HETATM    7  O   UNL     3      -8.940   6.427  65.377  1.00  0.00    -0.355 OA 
HETATM    8  C   UNL     3      -8.679   4.938  67.206  1.00  0.00    -0.103 C  
HETATM    9  C   UNL     2     -10.566   9.773  68.886  1.00  0.00    -0.218 C  
HETATM   10  O   UNL     2      -7.662   7.940  69.736  1.00  0.00    -0.094 OA 
HETATM   11  C   UNL     3     -10.413   6.403  67.432  1.00  0.00    -0.252 C  
HETATM   12  C   UNL     2      -9.158   9.422  68.642  1.00  0.00    -0.132 C  
HETATM   13  O   UNL     2      -8.379   9.829  67.588  1.00  0.00    -0.114 OA 
HETATM   14  O   UNL     2     -11.227  10.592  68.273  1.00  0.00    -0.278 OA 
HETATM   15  C   UNL     2      -8.751   8.536  69.550  1.00  0.00    -0.136 C  
HETATM   16  O   UNL     3      -7.941   4.048  66.695  1.00  0.00    -0.096 OA 
HETATM   17  H   UNL     3      -8.145   6.205  64.906  1.00  0.00     0.000 HD 
HETATM   18  C   UNL     3      -9.183   6.060  66.702  1.00  0.00    -0.142 C  
HETATM   19  O   UNL     3     -11.267   7.134  66.964  1.00  0.00    -0.277 OA 
ENDROOT
BRANCH   2  20
HETATM   20  C   UNL     2      -9.976   7.959  71.879  1.00  0.00    -0.179 C  
HETATM   21  O   UNL     2      -9.145   8.914  72.570  1.00  0.00    -0.349 OA 
HETATM   22  H   UNL     2      -9.145   8.815  73.515  1.00  0.00     0.000 HD 
BRANCH  20  23
HETATM   23  C   UNL     2     -11.366   7.951  72.491  1.00  0.00    -0.390 C  
HETATM   24  H   UNL     2     -12.879   6.705  72.559  1.00  0.00     0.000 HD 
HETATM   25  O   UNL     2     -12.010   6.710  72.177  1.00  0.00    -0.305 OA 
ENDBRANCH  20  23
ENDBRANCH   2  20
BRANCH   4  26
HETATM   26  C   UNL     3      -8.774   4.818  69.935  1.00  0.00    -0.085 C  
HETATM   27  H   UNL     3      -9.428   4.591  71.763  1.00  0.00     0.000 HD 
HETATM   28  O   UNL     3      -9.804   4.470  70.899  1.00  0.00    -0.179 OA 
BRANCH  26  29
HETATM   29  C   UNL     3      -7.483   4.109  70.339  1.00  0.00    -0.045 C  
HETATM   30  O   UNL     3      -7.244   2.928  69.577  1.00  0.00    -0.044 OA 
HETATM   31  H   UNL     3      -6.441   2.487  69.827  1.00  0.00     0.000 HD 
ENDBRANCH  26  29
ENDBRANCH   4  26
TORSDOF 4
ENDMDL
MODEL       84
REMARK 921   NORMALIZED FREE ENERGY PREDICTED BY IDOCK:   -3.64 KCAL/MOL
REMARK 922        TOTAL FREE ENERGY PREDICTED BY IDOCK:   -5.50 KCAL/MOL
REMARK 923 INTER-LIGAND FREE ENERGY PREDICTED BY IDOCK:   -4.42 KCAL/MOL
REMARK 924 INTRA-LIGAND FREE ENERGY PREDICTED BY IDOCK:   -1.08 KCAL/MOL
REMARK 927      BINDING AFFINITY PREDICTED BY RF-SCORE:    0.00 PKD
ROOT
HETATM    1 MG   UNL     1      -6.032   2.095  70.140  1.00  0.00    -0.016 Mg 
HETATM    2  C   UNL     2     -11.074   6.334  70.546  1.00  0.00    -0.335 C  
HETATM    3  O   UNL     2     -11.662   6.356  69.237  1.00  0.00    -0.277 OA 
HETATM    4  C   UNL     3      -8.874   3.250  71.807  1.00  0.00    -0.087 C  
HETATM    5  H   UNL     2      -7.513   7.709  68.985  1.00  0.00     0.000 HD 
HETATM    6  O   UNL     3      -9.774   3.281  70.651  1.00  0.00    -0.174 OA 
HETATM    7  O   UNL     3      -6.677   3.739  68.927  1.00  0.00    -0.043 OA 
HETATM    8  C   UNL     3      -7.516   3.382  71.117  1.00  0.00    -0.040 C  
HETATM    9  C   UNL     2     -10.744   6.781  68.325  1.00  0.00    -0.235 C  
HETATM   10  O   UNL     2      -8.975   7.158  71.367  1.00  0.00    -0.136 OA 
HETATM   11  C   UNL     3      -9.130   3.712  69.539  1.00  0.00    -0.134 C  
HETATM   12  C   UNL     2      -9.519   7.143  69.057  1.00  0.00    -0.143 C  
HETATM   13  O   UNL     2      -8.304   7.475  68.512  1.00  0.00    -0.124 OA 
HETATM   14  O   UNL     2     -10.920   6.854  67.123  1.00  0.00    -0.361 OA 
HETATM   15  C   UNL     2      -9.715   6.994  70.365  1.00  0.00    -0.176 C  
HETATM   16  O   UNL     3      -6.506   2.884  71.689  1.00  0.00    -0.017 OA 
HETATM   17  H   UNL     3      -5.754   3.803  69.143  1.00  0.00     0.000 HD 
HETATM   18  C   UNL     3      -7.701   3.811  69.872  1.00  0.00    -0.051 C  
HETATM   19  O   UNL     3      -9.531   3.671  68.390  1.00  0.00    -0.172 OA 
ENDROOT
BRANCH   2  20
HETATM   20  C   UNL     2     -12.095   6.765  71.608  1.00  0.00    -0.359 C  
HETATM   21  O   UNL     2     -11.651   6.562  72.965  1.00  0.00    -0.483 OA 
HETATM   22  H   UNL     2     -12.282   6.828  73.623  1.00  0.00     0.000 HD 
BRANCH  20  23
HETATM   23  C   UNL     2     -12.587   8.192  71.438  1.00  0.00    -0.283 C  
HETATM   24  H   UNL     2     -12.965   9.714  72.617  1.00  0.00     0.000 HD 
HETATM   25  O   UNL     2     -12.657   8.821  72.723  1.00  0.00    -0.316 OA 
ENDBRANCH  20  23
ENDBRANCH   2  20
BRANCH   4  26
HETATM   26  C   UNL     3      -9.433   4.234  72.871  1.00  0.00    -0.123 C  
HETATM   27  H   UNL     3     -11.033   4.285  73.991  1.00  0.00     0.000 HD 
HETATM   28  O   UNL     3     -10.692   3.683  73.340  1.00  0.00    -0.178 OA 
BRANCH  26  29
HETATM   29  C   UNL     3      -8.600   4.630  74.089  1.00  0.00    -0.104 C  
HETATM   30  O   UNL     3      -7.760   3.574  74.546  1.00  0.00    -0.057 OA 
HETATM   31  H   UNL     3      -7.243   3.820  75.304  1.00  0.00     0.000 HD 
ENDBRANCH  26  29
ENDBRANCH   4  26
TORSDOF 4
ENDMDL
MODEL       85
REMARK 921   NORMALIZED FREE ENERGY PREDICTED BY IDOCK:   -3.63 KCAL/MOL
REMARK 922        TOTAL FREE ENERGY PREDICTED BY IDOCK:   -5.49 KCAL/MOL
REMARK 923 INTER-LIGAND FREE ENERGY PREDICTED BY IDOCK:   -4.74 KCAL/MOL
REMARK 924 INTRA-LIGAND FREE ENERGY PREDICTED BY IDOCK:   -0.76 KCAL/MOL
REMARK 927      BINDING AFFINITY PREDICTED BY RF-SCORE:    0.00 PKD
ROOT
HETATM    1 MG   UNL     1      -5.791   6.946  64.811  1.00  0.00    -0.028 Mg 
HETATM    2  C   UNL     2      -9.645   7.409  70.148  1.00  0.00    -0.165 C  
HETATM    3  O   UNL     2      -9.194   8.579  70.846  1.00  0.00    -0.152 OA 
HETATM    4  C   UNL     3      -8.974   6.904  66.245  1.00  0.00    -0.151 C  
HETATM    5  H   UNL     2      -5.923   5.690  70.594  1.00  0.00     0.000 HD 
HETATM    6  O   UNL     3      -8.856   8.148  67.009  1.00  0.00    -0.127 OA 
HETATM    7  O   UNL     3      -5.395   7.265  66.892  1.00  0.00    -0.021 OA 
HETATM    8  C   UNL     3      -7.503   6.509  66.111  1.00  0.00    -0.081 C  
HETATM    9  C   UNL     2      -7.888   8.428  71.203  1.00  0.00    -0.106 C  
HETATM   10  O   UNL     2      -8.626   5.263  69.804  1.00  0.00    -0.096 OA 
HETATM   11  C   UNL     3      -7.616   8.281  67.542  1.00  0.00    -0.098 C  
HETATM   12  C   UNL     2      -7.468   7.074  70.809  1.00  0.00    -0.082 C  
HETATM   13  O   UNL     2      -6.195   6.565  70.848  1.00  0.00    -0.031 OA 
HETATM   14  O   UNL     2      -7.204   9.269  71.757  1.00  0.00    -0.328 OA 
HETATM   15  C   UNL     2      -8.501   6.416  70.287  1.00  0.00    -0.135 C  
HETATM   16  O   UNL     3      -7.161   5.816  65.111  1.00  0.00    -0.066 OA 
HETATM   17  H   UNL     3      -4.858   6.566  66.536  1.00  0.00     0.000 HD 
HETATM   18  C   UNL     3      -6.785   7.201  66.990  1.00  0.00    -0.064 C  
HETATM   19  O   UNL     3      -7.137   9.273  68.061  1.00  0.00    -0.076 OA 
ENDROOT
BRANCH   2  20
HETATM   20  C   UNL     2     -11.101   7.085  70.512  1.00  0.00    -0.280 C  
HETATM   21  O   UNL     2     -11.253   5.914  71.339  1.00  0.00    -0.274 OA 
HETATM   22  H   UNL     2     -12.153   5.713  71.564  1.00  0.00     0.000 HD 
BRANCH  20  23
HETATM   23  C   UNL     2     -11.848   8.253  71.134  1.00  0.00    -0.275 C  
HETATM   24  H   UNL     2     -13.635   8.556  71.885  1.00  0.00     0.000 HD 
HETATM   25  O   UNL     2     -13.167   7.826  71.497  1.00  0.00    -0.334 OA 
ENDBRANCH  20  23
ENDBRANCH   2  20
BRANCH   4  26
HETATM   26  C   UNL     3     -10.072   6.036  66.916  1.00  0.00    -0.185 C  
HETATM   27  H   UNL     3     -11.930   6.334  67.445  1.00  0.00     0.000 HD 
HETATM   28  O   UNL     3     -11.258   6.866  67.034  1.00  0.00    -0.369 OA 
BRANCH  26  29
HETATM   29  C   UNL     3     -10.486   4.692  66.320  1.00  0.00    -0.207 C  
HETATM   30  O   UNL     3     -11.494   4.822  65.321  1.00  0.00    -1.008 OA 
HETATM   31  H   UNL     3     -11.752   3.987  64.950  1.00  0.00     0.000 HD 
ENDBRANCH  26  29
ENDBRANCH   4  26
TORSDOF 4
ENDMDL
MODEL       86
REMARK 921   NORMALIZED FREE ENERGY PREDICTED BY IDOCK:   -3.62 KCAL/MOL
REMARK 922        TOTAL FREE ENERGY PREDICTED BY IDOCK:   -5.48 KCAL/MOL
REMARK 923 INTER-LIGAND FREE ENERGY PREDICTED BY IDOCK:   -4.70 KCAL/MOL
REMARK 924 INTRA-LIGAND FREE ENERGY PREDICTED BY IDOCK:   -0.78 KCAL/MOL
REMARK 927      BINDING AFFINITY PREDICTED BY RF-SCORE:    0.00 PKD
ROOT
HETATM    1 MG   UNL     1     -11.852   9.845  67.798  1.00  0.00    -0.524 Mg 
HETATM    2  C   UNL     2      -8.882   4.217  69.548  1.00  0.00    -0.089 C  
HETATM    3  O   UNL     2      -9.563   3.777  70.732  1.00  0.00    -0.158 OA 
HETATM    4  C   UNL     3     -10.602   6.700  66.938  1.00  0.00    -0.306 C  
HETATM    5  H   UNL     2      -7.746   7.683  71.474  1.00  0.00     0.000 HD 
HETATM    6  O   UNL     3     -11.262   5.935  67.998  1.00  0.00    -0.165 OA 
HETATM    7  O   UNL     3     -11.085   9.098  69.654  1.00  0.00    -0.368 OA 
HETATM    8  C   UNL     3     -10.554   8.090  67.573  1.00  0.00    -0.232 C  
HETATM    9  C   UNL     2      -9.439   4.714  71.712  1.00  0.00    -0.150 C  
HETATM   10  O   UNL     2      -7.410   6.071  69.150  1.00  0.00    -0.079 OA 
HETATM   11  C   UNL     3     -11.275   6.625  69.166  1.00  0.00    -0.242 C  
HETATM   12  C   UNL     2      -8.570   5.787  71.200  1.00  0.00    -0.128 C  
HETATM   13  O   UNL     2      -8.307   6.990  71.804  1.00  0.00    -0.110 OA 
HETATM   14  O   UNL     2      -9.953   4.660  72.814  1.00  0.00    -0.145 OA 
HETATM   15  C   UNL     2      -8.142   5.475  69.979  1.00  0.00    -0.090 C  
HETATM   16  O   UNL     3     -10.546   9.095  66.808  1.00  0.00    -0.227 OA 
HETATM   17  H   UNL     3     -10.764   9.972  69.468  1.00  0.00     0.000 HD 
HETATM   18  C   UNL     3     -10.778   7.979  68.879  1.00  0.00    -0.065 C  
HETATM   19  O   UNL     3     -11.904   6.360  70.174  1.00  0.00    -0.409 OA 
ENDROOT
BRANCH   2  20
HETATM   20  C   UNL     2      -8.208   3.035  68.836  1.00  0.00    -0.059 C  
HETATM   21  O   UNL     2      -7.152   2.416  69.598  1.00  0.00    -0.033 OA 
HETATM   22  H   UNL     2      -6.735   1.685  69.158  1.00  0.00     0.000 HD 
BRANCH  20  23
HETATM   23  C   UNL     2      -9.185   1.975  68.356  1.00  0.00    -0.182 C  
HETATM   24  H   UNL     2      -9.412   0.881  66.744  1.00  0.00     0.000 HD 
HETATM   25  O   UNL     2      -8.801   1.544  67.044  1.00  0.00    -0.105 OA 
ENDBRANCH  20  23
ENDBRANCH   2  20
BRANCH   4  26
HETATM   26  C   UNL     3      -9.362   5.891  66.469  1.00  0.00    -0.153 C  
HETATM   27  H   UNL     3      -9.093   4.305  65.360  1.00  0.00     0.000 HD 
HETATM   28  O   UNL     3      -9.852   4.800  65.646  1.00  0.00    -0.177 OA 
BRANCH  26  29
HETATM   29  C   UNL     3      -8.213   6.572  65.727  1.00  0.00    -0.135 C  
HETATM   30  O   UNL     3      -8.668   7.494  64.741  1.00  0.00    -0.365 OA 
HETATM   31  H   UNL     3      -7.954   7.917  64.279  1.00  0.00     0.000 HD 
ENDBRANCH  26  29
ENDBRANCH   4  26
TORSDOF 4
ENDMDL
MODEL       87
REMARK 921   NORMALIZED FREE ENERGY PREDICTED BY IDOCK:   -3.62 KCAL/MOL
REMARK 922        TOTAL FREE ENERGY PREDICTED BY IDOCK:   -5.48 KCAL/MOL
REMARK 923 INTER-LIGAND FREE ENERGY PREDICTED BY IDOCK:   -4.20 KCAL/MOL
REMARK 924 INTRA-LIGAND FREE ENERGY PREDICTED BY IDOCK:   -1.28 KCAL/MOL
REMARK 927      BINDING AFFINITY PREDICTED BY RF-SCORE:    0.00 PKD
ROOT
HETATM    1 MG   UNL     1      -5.727   5.470  67.149  1.00  0.00    -0.012 Mg 
HETATM    2  C   UNL     2      -9.886  10.223  69.065  1.00  0.00    -0.207 C  
HETATM    3  O   UNL     2      -9.847  10.210  70.500  1.00  0.00    -0.048 OA 
HETATM    4  C   UNL     3      -6.893   8.749  66.872  1.00  0.00    -0.070 C  
HETATM    5  H   UNL     2     -11.264   6.336  69.055  1.00  0.00     0.000 HD 
HETATM    6  O   UNL     3      -6.864   9.084  68.297  1.00  0.00    -0.064 OA 
HETATM    7  O   UNL     3      -7.311   5.551  68.590  1.00  0.00    -0.072 OA 
HETATM    8  C   UNL     3      -7.023   7.227  66.937  1.00  0.00    -0.077 C  
HETATM    9  C   UNL     2     -10.253   8.995  70.962  1.00  0.00    -0.277 C  
HETATM   10  O   UNL     2     -10.779   8.658  67.479  1.00  0.00    -0.249 OA 
HETATM   11  C   UNL     3      -7.262   8.035  69.057  1.00  0.00    -0.078 C  
HETATM   12  C   UNL     2     -10.665   8.188  69.803  1.00  0.00    -0.229 C  
HETATM   13  O   UNL     2     -10.998   6.857  69.804  1.00  0.00    -0.247 OA 
HETATM   14  O   UNL     2     -10.277   8.654  72.130  1.00  0.00    -0.306 OA 
HETATM   15  C   UNL     2     -10.563   8.913  68.690  1.00  0.00    -0.147 C  
HETATM   16  O   UNL     3      -6.566   6.548  65.974  1.00  0.00    -0.045 OA 
HETATM   17  H   UNL     3      -7.400   4.802  68.012  1.00  0.00     0.000 HD 
HETATM   18  C   UNL     3      -7.401   6.876  68.162  1.00  0.00    -0.097 C  
HETATM   19  O   UNL     3      -7.170   7.919  70.265  1.00  0.00    -0.055 OA 
ENDROOT
BRANCH   2  20
HETATM   20  C   UNL     2     -10.339  11.594  68.545  1.00  0.00    -0.212 C  
HETATM   21  O   UNL     2     -10.583  11.631  67.124  1.00  0.00    -0.215 OA 
HETATM   22  H   UNL     2     -10.863  12.479  66.802  1.00  0.00     0.000 HD 
BRANCH  20  23
HETATM   23  C   UNL     2     -11.537  12.162  69.286  1.00  0.00    -0.318 C  
HETATM   24  H   UNL     2     -12.850  13.587  68.979  1.00  0.00     0.000 HD 
HETATM   25  O   UNL     2     -12.101  13.231  68.516  1.00  0.00    -0.341 OA 
ENDBRANCH  20  23
ENDBRANCH   2  20
BRANCH   4  26
HETATM   26  C   UNL     3      -7.907   9.701  66.180  1.00  0.00    -0.101 C  
HETATM   27  H   UNL     3      -7.842  11.544  65.532  1.00  0.00     0.000 HD 
HETATM   28  O   UNL     3      -7.221  10.962  65.955  1.00  0.00    -0.134 OA 
BRANCH  26  29
HETATM   29  C   UNL     3      -8.605   9.299  64.883  1.00  0.00    -0.181 C  
HETATM   30  O   UNL     3      -9.968   9.714  64.842  1.00  0.00    -0.418 OA 
HETATM   31  H   UNL     3     -10.403   9.464  64.035  1.00  0.00     0.000 HD 
ENDBRANCH  26  29
ENDBRANCH   4  26
TORSDOF 4
ENDMDL
MODEL       88
REMARK 921   NORMALIZED FREE ENERGY PREDICTED BY IDOCK:   -3.61 KCAL/MOL
REMARK 922        TOTAL FREE ENERGY PREDICTED BY IDOCK:   -5.46 KCAL/MOL
REMARK 923 INTER-LIGAND FREE ENERGY PREDICTED BY IDOCK:   -4.63 KCAL/MOL
REMARK 924 INTRA-LIGAND FREE ENERGY PREDICTED BY IDOCK:   -0.83 KCAL/MOL
REMARK 927      BINDING AFFINITY PREDICTED BY RF-SCORE:    0.00 PKD
ROOT
HETATM    1 MG   UNL     1     -11.737   9.580  70.728  1.00  0.00    -0.235 Mg 
HETATM    2  C   UNL     2      -7.971   9.451  65.309  1.00  0.00    -0.110 C  
HETATM    3  O   UNL     2      -8.134   8.134  64.761  1.00  0.00    -0.143 OA 
HETATM    4  C   UNL     3     -10.695  11.062  67.743  1.00  0.00    -0.227 C  
HETATM    5  H   UNL     2      -6.429   7.832  68.775  1.00  0.00     0.000 HD 
HETATM    6  O   UNL     3     -10.863   9.891  66.879  1.00  0.00    -0.178 OA 
HETATM    7  O   UNL     3     -10.289   8.194  69.971  1.00  0.00    -0.206 OA 
HETATM    8  C   UNL     3     -10.505  10.391  69.103  1.00  0.00    -0.227 C  
HETATM    9  C   UNL     2      -7.716   7.204  65.663  1.00  0.00    -0.102 C  
HETATM   10  O   UNL     2      -6.876  10.227  67.299  1.00  0.00    -0.079 OA 
HETATM   11  C   UNL     3     -10.486   8.755  67.514  1.00  0.00    -0.271 C  
HETATM   12  C   UNL     2      -7.171   7.920  66.828  1.00  0.00    -0.088 C  
HETATM   13  O   UNL     2      -6.781   7.370  68.022  1.00  0.00    -0.052 OA 
HETATM   14  O   UNL     2      -7.779   5.997  65.517  1.00  0.00    -0.085 OA 
HETATM   15  C   UNL     2      -7.207   9.232  66.607  1.00  0.00    -0.082 C  
HETATM   16  O   UNL     3     -10.847  11.031  70.137  1.00  0.00    -0.128 OA 
HETATM   17  H   UNL     3     -10.117   8.421  70.877  1.00  0.00     0.000 HD 
HETATM   18  C   UNL     3     -10.220   9.106  68.917  1.00  0.00    -0.207 C  
HETATM   19  O   UNL     3     -10.677   7.608  67.153  1.00  0.00    -0.332 OA 
ENDROOT
BRANCH   2  20
HETATM   20  C   UNL     2      -7.535  10.443  64.222  1.00  0.00    -0.002 C  
HETATM   21  O   UNL     2      -6.110  10.655  64.158  1.00  0.00    -0.348 OA 
HETATM   22  H   UNL     2      -5.840  11.269  63.486  1.00  0.00     0.000 HD 
BRANCH  20  23
HETATM   23  C   UNL     2      -8.066  10.105  62.839  1.00  0.00    -0.147 C  
HETATM   24  H   UNL     2      -9.475  10.784  61.655  1.00  0.00     0.000 HD 
HETATM   25  O   UNL     2      -9.143  10.995  62.520  1.00  0.00    -0.307 OA 
ENDBRANCH  20  23
ENDBRANCH   2  20
BRANCH   4  26
HETATM   26  C   UNL     3      -9.668  12.010  67.066  1.00  0.00    -0.196 C  
HETATM   27  H   UNL     3      -9.449  12.742  65.266  1.00  0.00     0.000 HD 
HETATM   28  O   UNL     3     -10.078  12.162  65.681  1.00  0.00    -0.239 OA 
BRANCH  26  29
HETATM   29  C   UNL     3      -9.383  13.398  67.636  1.00  0.00    -0.217 C  
HETATM   30  O   UNL     3      -9.887  13.561  68.959  1.00  0.00    -0.423 OA 
HETATM   31  H   UNL     3      -9.711  14.425  69.313  1.00  0.00     0.000 HD 
ENDBRANCH  26  29
ENDBRANCH   4  26
TORSDOF 4
ENDMDL
MODEL       89
REMARK 921   NORMALIZED FREE ENERGY PREDICTED BY IDOCK:   -3.60 KCAL/MOL
REMARK 922        TOTAL FREE ENERGY PREDICTED BY IDOCK:   -5.46 KCAL/MOL
REMARK 923 INTER-LIGAND FREE ENERGY PREDICTED BY IDOCK:   -4.69 KCAL/MOL
REMARK 924 INTRA-LIGAND FREE ENERGY PREDICTED BY IDOCK:   -0.77 KCAL/MOL
REMARK 927      BINDING AFFINITY PREDICTED BY RF-SCORE:    0.00 PKD
ROOT
HETATM    1 MG   UNL     1     -11.930  12.510  68.085  1.00  0.00    -0.246 Mg 
HETATM    2  C   UNL     2      -8.489   7.097  69.642  1.00  0.00    -0.134 C  
HETATM    3  O   UNL     2      -7.203   7.271  69.028  1.00  0.00    -0.083 OA 
HETATM    4  C   UNL     3     -10.854  10.203  70.475  1.00  0.00    -0.273 C  
HETATM    5  H   UNL     2     -10.292   7.243  65.935  1.00  0.00     0.000 HD 
HETATM    6  O   UNL     3      -9.427  10.241  70.149  1.00  0.00    -0.059 OA 
HETATM    7  O   UNL     3     -10.729  11.147  66.947  1.00  0.00    -0.249 OA 
HETATM    8  C   UNL     3     -11.465  10.646  69.146  1.00  0.00    -0.280 C  
HETATM    9  C   UNL     2      -7.347   7.382  67.678  1.00  0.00    -0.092 C  
HETATM   10  O   UNL     2     -10.662   6.695  68.706  1.00  0.00    -0.217 OA 
HETATM   11  C   UNL     3      -9.231  10.327  68.810  1.00  0.00    -0.166 C  
HETATM   12  C   UNL     2      -8.770   7.189  67.360  1.00  0.00    -0.120 C  
HETATM   13  O   UNL     2      -9.372   7.368  66.141  1.00  0.00    -0.146 OA 
HETATM   14  O   UNL     2      -6.448   7.594  66.885  1.00  0.00    -0.051 OA 
HETATM   15  C   UNL     2      -9.447   6.915  68.474  1.00  0.00    -0.133 C  
HETATM   16  O   UNL     3     -12.586  11.229  69.169  1.00  0.00    -0.320 OA 
HETATM   17  H   UNL     3     -11.580  11.285  66.546  1.00  0.00     0.000 HD 
HETATM   18  C   UNL     3     -10.547  10.539  68.189  1.00  0.00    -0.204 C  
HETATM   19  O   UNL     3      -8.189  10.566  68.229  1.00  0.00    -0.110 OA 
ENDROOT
BRANCH   2  20
HETATM   20  C   UNL     2      -8.399   6.127  70.828  1.00  0.00    -0.126 C  
HETATM   21  O   UNL     2      -8.823   4.784  70.521  1.00  0.00    -0.103 OA 
HETATM   22  H   UNL     2      -8.768   4.184  71.255  1.00  0.00     0.000 HD 
BRANCH  20  23
HETATM   23  C   UNL     2      -7.031   6.096  71.489  1.00  0.00    -0.076 C  
HETATM   24  H   UNL     2      -6.053   7.203  72.779  1.00  0.00     0.000 HD 
HETATM   25  O   UNL     2      -6.908   7.223  72.366  1.00  0.00    -0.062 OA 
ENDBRANCH  20  23
ENDBRANCH   2  20
BRANCH   4  26
HETATM   26  C   UNL     3     -11.145   8.852  71.184  1.00  0.00    -0.285 C  
HETATM   27  H   UNL     3     -10.518   7.997  72.825  1.00  0.00     0.000 HD 
HETATM   28  O   UNL     3     -10.340   8.823  72.392  1.00  0.00    -0.300 OA 
BRANCH  26  29
HETATM   29  C   UNL     3     -12.571   8.447  71.549  1.00  0.00    -0.308 C  
HETATM   30  O   UNL     3     -12.642   7.751  72.791  1.00  0.00    -0.541 OA 
HETATM   31  H   UNL     3     -13.529   7.499  73.018  1.00  0.00     0.000 HD 
ENDBRANCH  26  29
ENDBRANCH   4  26
TORSDOF 4
ENDMDL
MODEL       90
REMARK 921   NORMALIZED FREE ENERGY PREDICTED BY IDOCK:   -3.59 KCAL/MOL
REMARK 922        TOTAL FREE ENERGY PREDICTED BY IDOCK:   -5.44 KCAL/MOL
REMARK 923 INTER-LIGAND FREE ENERGY PREDICTED BY IDOCK:   -4.60 KCAL/MOL
REMARK 924 INTRA-LIGAND FREE ENERGY PREDICTED BY IDOCK:   -0.85 KCAL/MOL
REMARK 927      BINDING AFFINITY PREDICTED BY RF-SCORE:    0.00 PKD
ROOT
HETATM    1 MG   UNL     1     -12.769  11.644  68.824  1.00  0.00    -0.267 Mg 
HETATM    2  C   UNL     2      -6.398  10.274  67.774  1.00  0.00    -0.057 C  
HETATM    3  O   UNL     2      -5.862   9.938  69.062  1.00  0.00    -0.035 OA 
HETATM    4  C   UNL     3     -10.302   9.989  66.988  1.00  0.00    -0.243 C  
HETATM    5  H   UNL     2      -7.366  14.041  69.144  1.00  0.00     0.000 HD 
HETATM    6  O   UNL     3      -9.583   9.402  68.120  1.00  0.00    -0.140 OA 
HETATM    7  O   UNL     3     -10.952  12.254  69.782  1.00  0.00    -0.461 OA 
HETATM    8  C   UNL     3     -10.964  11.192  67.661  1.00  0.00    -0.269 C  
HETATM    9  C   UNL     2      -5.997  10.996  69.908  1.00  0.00    -0.099 C  
HETATM   10  O   UNL     2      -7.163  12.356  66.857  1.00  0.00    -0.058 OA 
HETATM   11  C   UNL     3      -9.520  10.265  69.163  1.00  0.00    -0.215 C  
HETATM   12  C   UNL     2      -6.565  12.116  69.141  1.00  0.00    -0.106 C  
HETATM   13  O   UNL     2      -6.999  13.318  69.640  1.00  0.00     0.063 OA 
HETATM   14  O   UNL     2      -5.689  11.005  71.086  1.00  0.00    -0.319 OA 
HETATM   15  C   UNL     2      -6.712  11.760  67.866  1.00  0.00    -0.072 C  
HETATM   16  O   UNL     3     -12.046  11.627  67.174  1.00  0.00    -0.575 OA 
HETATM   17  H   UNL     3     -11.502  12.998  69.565  1.00  0.00     0.000 HD 
HETATM   18  C   UNL     3     -10.370  11.417  68.829  1.00  0.00    -0.204 C  
HETATM   19  O   UNL     3      -9.166  10.023  70.303  1.00  0.00    -0.149 OA 
ENDROOT
BRANCH   2  20
HETATM   20  C   UNL     2      -5.555   9.650  66.653  1.00  0.00    -0.046 C  
HETATM   21  O   UNL     2      -6.110   8.437  66.106  1.00  0.00    -0.047 OA 
HETATM   22  H   UNL     2      -5.588   8.051  65.413  1.00  0.00     0.000 HD 
BRANCH  20  23
HETATM   23  C   UNL     2      -5.226  10.617  65.527  1.00  0.00    -0.124 C  
HETATM   24  H   UNL     2      -5.714  10.814  63.638  1.00  0.00     0.000 HD 
HETATM   25  O   UNL     2      -5.920  10.210  64.341  1.00  0.00    -0.119 OA 
ENDBRANCH  20  23
ENDBRANCH   2  20
BRANCH   4  26
HETATM   26  C   UNL     3      -9.319  10.068  65.789  1.00  0.00    -0.189 C  
HETATM   27  H   UNL     3      -8.389   8.751  64.683  1.00  0.00     0.000 HD 
HETATM   28  O   UNL     3      -8.991   8.703  65.417  1.00  0.00    -0.189 OA 
BRANCH  26  29
HETATM   29  C   UNL     3      -9.686  10.835  64.519  1.00  0.00    -0.295 C  
HETATM   30  O   UNL     3      -8.549  11.147  63.719  1.00  0.00    -0.380 OA 
HETATM   31  H   UNL     3      -8.777  11.624  62.930  1.00  0.00     0.000 HD 
ENDBRANCH  26  29
ENDBRANCH   4  26
TORSDOF 4
ENDMDL
MODEL       91
REMARK 921   NORMALIZED FREE ENERGY PREDICTED BY IDOCK:   -3.59 KCAL/MOL
REMARK 922        TOTAL FREE ENERGY PREDICTED BY IDOCK:   -5.44 KCAL/MOL
REMARK 923 INTER-LIGAND FREE ENERGY PREDICTED BY IDOCK:   -4.54 KCAL/MOL
REMARK 924 INTRA-LIGAND FREE ENERGY PREDICTED BY IDOCK:   -0.90 KCAL/MOL
REMARK 927      BINDING AFFINITY PREDICTED BY RF-SCORE:    0.00 PKD
ROOT
HETATM    1 MG   UNL     1      -9.322  13.622  67.939  1.00  0.00    -0.165 Mg 
HETATM    2  C   UNL     2      -9.222   7.113  66.855  1.00  0.00    -0.148 C  
HETATM    3  O   UNL     2     -10.457   6.616  67.392  1.00  0.00    -0.192 OA 
HETATM    4  C   UNL     3      -8.787  10.932  65.778  1.00  0.00    -0.191 C  
HETATM    5  H   UNL     2      -8.127   8.468  70.593  1.00  0.00     0.000 HD 
HETATM    6  O   UNL     3     -10.042  10.225  66.039  1.00  0.00    -0.235 OA 
HETATM    7  O   UNL     3      -9.723  11.916  69.171  1.00  0.00    -0.407 OA 
HETATM    8  C   UNL     3      -8.630  11.728  67.074  1.00  0.00    -0.173 C  
HETATM    9  C   UNL     2     -10.522   6.884  68.725  1.00  0.00    -0.205 C  
HETATM   10  O   UNL     2      -7.264   8.004  67.918  1.00  0.00    -0.087 OA 
HETATM   11  C   UNL     3     -10.378  10.289  67.351  1.00  0.00    -0.233 C  
HETATM   12  C   UNL     2      -9.248   7.506  69.121  1.00  0.00    -0.144 C  
HETATM   13  O   UNL     2      -8.949   8.066  70.337  1.00  0.00    -0.143 OA 
HETATM   14  O   UNL     2     -11.467   6.639  69.452  1.00  0.00    -0.299 OA 
HETATM   15  C   UNL     2      -8.427   7.556  68.074  1.00  0.00    -0.123 C  
HETATM   16  O   UNL     3      -7.990  12.816  67.032  1.00  0.00    -0.138 OA 
HETATM   17  H   UNL     3      -9.116  12.515  69.589  1.00  0.00     0.000 HD 
HETATM   18  C   UNL     3      -9.438  11.217  67.998  1.00  0.00    -0.174 C  
HETATM   19  O   UNL     3     -11.440   9.976  67.858  1.00  0.00    -0.210 OA 
ENDROOT
BRANCH   2  20
HETATM   20  C   UNL     2      -8.674   6.163  65.781  1.00  0.00    -0.145 C  
HETATM   21  O   UNL     2      -7.303   6.419  65.415  1.00  0.00    -0.071 OA 
HETATM   22  H   UNL     2      -6.963   5.831  64.751  1.00  0.00     0.000 HD 
BRANCH  20  23
HETATM   23  C   UNL     2      -8.848   4.692  66.122  1.00  0.00    -0.118 C  
HETATM   24  H   UNL     2      -8.511   2.979  65.227  1.00  0.00     0.000 HD 
HETATM   25  O   UNL     2      -8.402   3.898  65.015  1.00  0.00    -0.103 OA 
ENDBRANCH  20  23
ENDBRANCH   2  20
BRANCH   4  26
HETATM   26  C   UNL     3      -7.761   9.899  65.237  1.00  0.00    -0.129 C  
HETATM   27  H   UNL     3      -7.289   9.228  63.463  1.00  0.00     0.000 HD 
HETATM   28  O   UNL     3      -7.916   9.861  63.794  1.00  0.00    -0.135 OA 
BRANCH  26  29
HETATM   29  C   UNL     3      -6.273  10.027  65.556  1.00  0.00    -0.092 C  
HETATM   30  O   UNL     3      -5.785  11.353  65.368  1.00  0.00    -0.479 OA 
HETATM   31  H   UNL     3      -4.859  11.433  65.565  1.00  0.00     0.000 HD 
ENDBRANCH  26  29
ENDBRANCH   4  26
TORSDOF 4
ENDMDL
MODEL       92
REMARK 921   NORMALIZED FREE ENERGY PREDICTED BY IDOCK:   -3.47 KCAL/MOL
REMARK 922        TOTAL FREE ENERGY PREDICTED BY IDOCK:   -5.30 KCAL/MOL
REMARK 923 INTER-LIGAND FREE ENERGY PREDICTED BY IDOCK:   -4.13 KCAL/MOL
REMARK 924 INTRA-LIGAND FREE ENERGY PREDICTED BY IDOCK:   -1.16 KCAL/MOL
REMARK 927      BINDING AFFINITY PREDICTED BY RF-SCORE:    0.00 PKD
ROOT
HETATM    1 MG   UNL     1      -8.273   4.359  65.813  1.00  0.00    -0.099 Mg 
HETATM    2  C   UNL     2      -8.503  10.538  68.123  1.00  0.00    -0.123 C  
HETATM    3  O   UNL     2      -8.112  10.446  69.501  1.00  0.00    -0.161 OA 
HETATM    4  C   UNL     3      -7.483   7.742  65.461  1.00  0.00    -0.076 C  
HETATM    5  H   UNL     2     -11.728   8.075  68.862  1.00  0.00     0.000 HD 
HETATM    6  O   UNL     3      -6.912   7.945  66.794  1.00  0.00    -0.069 OA 
HETATM    7  O   UNL     3      -9.123   5.247  67.568  1.00  0.00    -0.109 OA 
HETATM    8  C   UNL     3      -8.402   6.548  65.721  1.00  0.00    -0.143 C  
HETATM    9  C   UNL     2      -8.981   9.644  70.176  1.00  0.00    -0.236 C  
HETATM   10  O   UNL     2     -10.476   9.800  66.973  1.00  0.00    -0.238 OA 
HETATM   11  C   UNL     3      -7.608   7.263  67.736  1.00  0.00    -0.110 C  
HETATM   12  C   UNL     2     -10.047   9.250  69.241  1.00  0.00    -0.200 C  
HETATM   13  O   UNL     2     -11.039   8.330  69.466  1.00  0.00    -0.112 OA 
HETATM   14  O   UNL     2      -8.887   9.324  71.347  1.00  0.00    -0.313 OA 
HETATM   15  C   UNL     2      -9.855   9.841  68.063  1.00  0.00    -0.148 C  
HETATM   16  O   UNL     3      -8.654   5.769  64.758  1.00  0.00    -0.130 OA 
HETATM   17  H   UNL     3      -9.752   4.698  67.112  1.00  0.00     0.000 HD 
HETATM   18  C   UNL     3      -8.581   6.415  67.031  1.00  0.00    -0.112 C  
HETATM   19  O   UNL     3      -7.289   7.066  68.895  1.00  0.00    -0.088 OA 
ENDROOT
BRANCH   2  20
HETATM   20  C   UNL     2      -8.249  11.949  67.578  1.00  0.00    -0.155 C  
HETATM   21  O   UNL     2      -8.386  12.059  66.146  1.00  0.00    -0.390 OA 
HETATM   22  H   UNL     2      -8.229  12.932  65.809  1.00  0.00     0.000 HD 
BRANCH  20  23
HETATM   23  C   UNL     2      -9.080  13.025  68.257  1.00  0.00    -0.179 C  
HETATM   24  H   UNL     2      -8.732  14.748  69.127  1.00  0.00     0.000 HD 
HETATM   25  O   UNL     2      -8.213  14.076  68.702  1.00  0.00    -0.143 OA 
ENDBRANCH  20  23
ENDBRANCH   2  20
BRANCH   4  26
HETATM   26  C   UNL     3      -7.948   9.125  64.928  1.00  0.00    -0.123 C  
HETATM   27  H   UNL     3      -7.036  10.748  64.334  1.00  0.00     0.000 HD 
HETATM   28  O   UNL     3      -6.751   9.902  64.661  1.00  0.00    -0.111 OA 
BRANCH  26  29
HETATM   29  C   UNL     3      -8.869   9.230  63.714  1.00  0.00    -0.118 C  
HETATM   30  O   UNL     3     -10.060   9.961  63.991  1.00  0.00    -0.445 OA 
HETATM   31  H   UNL     3     -10.633  10.027  63.236  1.00  0.00     0.000 HD 
ENDBRANCH  26  29
ENDBRANCH   4  26
TORSDOF 4
ENDMDL
MODEL       93
REMARK 921   NORMALIZED FREE ENERGY PREDICTED BY IDOCK:   -3.46 KCAL/MOL
REMARK 922        TOTAL FREE ENERGY PREDICTED BY IDOCK:   -5.28 KCAL/MOL
REMARK 923 INTER-LIGAND FREE ENERGY PREDICTED BY IDOCK:   -4.24 KCAL/MOL
REMARK 924 INTRA-LIGAND FREE ENERGY PREDICTED BY IDOCK:   -1.04 KCAL/MOL
REMARK 927      BINDING AFFINITY PREDICTED BY RF-SCORE:    0.00 PKD
ROOT
HETATM    1 MG   UNL     1      -7.993  10.252  67.291  1.00  0.00    -0.099 Mg 
HETATM    2  C   UNL     2      -9.467   5.305  71.403  1.00  0.00    -0.151 C  
HETATM    3  O   UNL     2      -8.506   4.276  71.125  1.00  0.00    -0.086 OA 
HETATM    4  C   UNL     3      -8.765   9.131  70.506  1.00  0.00    -0.221 C  
HETATM    5  H   UNL     2     -10.855   5.076  67.526  1.00  0.00     0.000 HD 
HETATM    6  O   UNL     3      -7.786   8.044  70.570  1.00  0.00    -0.089 OA 
HETATM    7  O   UNL     3      -8.244   8.140  67.027  1.00  0.00    -0.113 OA 
HETATM    8  C   UNL     3      -8.955   9.259  68.994  1.00  0.00    -0.140 C  
HETATM    9  C   UNL     2      -8.619   3.878  69.828  1.00  0.00    -0.065 C  
HETATM   10  O   UNL     2     -11.310   6.156  70.122  1.00  0.00    -0.382 OA 
HETATM   11  C   UNL     3      -7.686   7.403  69.380  1.00  0.00    -0.106 C  
HETATM   12  C   UNL     2      -9.754   4.600  69.232  1.00  0.00    -0.196 C  
HETATM   13  O   UNL     2     -10.122   4.609  67.911  1.00  0.00    -0.112 OA 
HETATM   14  O   UNL     2      -7.907   3.060  69.273  1.00  0.00    -0.047 OA 
HETATM   15  C   UNL     2     -10.337   5.362  70.156  1.00  0.00    -0.290 C  
HETATM   16  O   UNL     3      -9.295  10.383  68.529  1.00  0.00    -0.147 OA 
HETATM   17  H   UNL     3      -8.753   8.636  66.396  1.00  0.00     0.000 HD 
HETATM   18  C   UNL     3      -8.474   8.169  68.403  1.00  0.00    -0.126 C  
HETATM   19  O   UNL     3      -6.840   6.593  69.045  1.00  0.00    -0.054 OA 
ENDROOT
BRANCH   2  20
HETATM   20  C   UNL     2     -10.027   5.157  72.825  1.00  0.00    -0.161 C  
HETATM   21  O   UNL     2     -11.391   4.692  72.873  1.00  0.00    -0.201 OA 
HETATM   22  H   UNL     2     -11.738   4.600  73.752  1.00  0.00     0.000 HD 
BRANCH  20  23
HETATM   23  C   UNL     2      -9.161   4.303  73.736  1.00  0.00    -0.092 C  
HETATM   24  H   UNL     2      -7.641   4.603  74.938  1.00  0.00     0.000 HD 
HETATM   25  O   UNL     2      -8.182   5.136  74.368  1.00  0.00    -0.101 OA 
ENDBRANCH  20  23
ENDBRANCH   2  20
BRANCH   4  26
HETATM   26  C   UNL     3      -9.896   8.814  71.522  1.00  0.00    -0.301 C  
HETATM   27  H   UNL     3     -10.002   8.698  73.471  1.00  0.00     0.000 HD 
HETATM   28  O   UNL     3      -9.310   8.893  72.849  1.00  0.00    -0.169 OA 
BRANCH  26  29
HETATM   29  C   UNL     3     -11.198   9.613  71.526  1.00  0.00    -0.307 C  
HETATM   30  O   UNL     3     -12.180   9.065  70.651  1.00  0.00    -0.481 OA 
HETATM   31  H   UNL     3     -12.989   9.562  70.653  1.00  0.00     0.000 HD 
ENDBRANCH  26  29
ENDBRANCH   4  26
TORSDOF 4
ENDMDL
MODEL       94
REMARK 921   NORMALIZED FREE ENERGY PREDICTED BY IDOCK:   -3.46 KCAL/MOL
REMARK 922        TOTAL FREE ENERGY PREDICTED BY IDOCK:   -5.28 KCAL/MOL
REMARK 923 INTER-LIGAND FREE ENERGY PREDICTED BY IDOCK:   -4.87 KCAL/MOL
REMARK 924 INTRA-LIGAND FREE ENERGY PREDICTED BY IDOCK:   -0.41 KCAL/MOL
REMARK 927      BINDING AFFINITY PREDICTED BY RF-SCORE:    0.00 PKD
ROOT
HETATM    1 MG   UNL     1     -12.538  12.018  68.428  1.00  0.00    -0.293 Mg 
HETATM    2  C   UNL     2      -6.702  14.994  67.626  1.00  0.00    -0.177 C  
HETATM    3  O   UNL     2      -5.859  14.020  66.992  1.00  0.00     0.056 OA 
HETATM    4  C   UNL     3     -10.682  14.791  67.399  1.00  0.00    -0.281 C  
HETATM    5  H   UNL     2      -7.168  12.495  70.874  1.00  0.00     0.000 HD 
HETATM    6  O   UNL     3      -9.712  14.074  66.569  1.00  0.00    -0.276 OA 
HETATM    7  O   UNL     3     -10.517  11.437  68.843  1.00  0.00    -0.200 OA 
HETATM    8  C   UNL     3     -11.111  13.683  68.362  1.00  0.00    -0.264 C  
HETATM    9  C   UNL     2      -5.738  12.924  67.791  1.00  0.00    -0.135 C  
HETATM   10  O   UNL     2      -7.616  15.112  69.842  1.00  0.00    -0.175 OA 
HETATM   11  C   UNL     3      -9.354  12.896  67.138  1.00  0.00    -0.229 C  
HETATM   12  C   UNL     2      -6.453  13.202  69.047  1.00  0.00    -0.103 C  
HETATM   13  O   UNL     2      -6.707  12.315  70.062  1.00  0.00     0.071 OA 
HETATM   14  O   UNL     2      -5.135  11.905  67.509  1.00  0.00    -0.058 OA 
HETATM   15  C   UNL     2      -6.936  14.443  69.025  1.00  0.00    -0.114 C  
HETATM   16  O   UNL     3     -12.268  13.745  68.865  1.00  0.00    -0.344 OA 
HETATM   17  H   UNL     3     -11.082  11.304  69.595  1.00  0.00     0.000 HD 
HETATM   18  C   UNL     3     -10.228  12.691  68.302  1.00  0.00    -0.239 C  
HETATM   19  O   UNL     3      -8.725  11.989  66.625  1.00  0.00    -0.194 OA 
ENDROOT
BRANCH   2  20
HETATM   20  C   UNL     2      -6.197  16.416  67.345  1.00  0.00    -0.168 C  
HETATM   21  O   UNL     2      -6.856  17.065  66.239  1.00  0.00    -0.238 OA 
HETATM   22  H   UNL     2      -6.544  17.945  66.065  1.00  0.00     0.000 HD 
BRANCH  20  23
HETATM   23  C   UNL     2      -6.223  17.324  68.563  1.00  0.00    -0.160 C  
HETATM   24  H   UNL     2      -7.226  18.913  69.127  1.00  0.00     0.000 HD 
HETATM   25  O   UNL     2      -7.209  18.345  68.365  1.00  0.00    -0.250 OA 
ENDBRANCH  20  23
ENDBRANCH   2  20
BRANCH   4  26
HETATM   26  C   UNL     3     -10.042  16.141  67.822  1.00  0.00    -0.250 C  
HETATM   27  H   UNL     3      -9.584  17.797  66.892  1.00  0.00     0.000 HD 
HETATM   28  O   UNL     3      -9.976  16.972  66.633  1.00  0.00    -0.277 OA 
BRANCH  26  29
HETATM   29  C   UNL     3     -10.639  16.974  68.955  1.00  0.00    -0.314 C  
HETATM   30  O   UNL     3     -11.751  16.336  69.577  1.00  0.00    -0.255 OA 
HETATM   31  H   UNL     3     -12.123  16.854  70.281  1.00  0.00     0.000 HD 
ENDBRANCH  26  29
ENDBRANCH   4  26
TORSDOF 4
ENDMDL
MODEL       95
REMARK 921   NORMALIZED FREE ENERGY PREDICTED BY IDOCK:   -3.42 KCAL/MOL
REMARK 922        TOTAL FREE ENERGY PREDICTED BY IDOCK:   -5.23 KCAL/MOL
REMARK 923 INTER-LIGAND FREE ENERGY PREDICTED BY IDOCK:   -4.12 KCAL/MOL
REMARK 924 INTRA-LIGAND FREE ENERGY PREDICTED BY IDOCK:   -1.11 KCAL/MOL
REMARK 927      BINDING AFFINITY PREDICTED BY RF-SCORE:    0.00 PKD
ROOT
HETATM    1 MG   UNL     1     -12.219  10.782  68.035  1.00  0.00    -0.267 Mg 
HETATM    2  C   UNL     2      -7.710   6.256  69.690  1.00  0.00    -0.099 C  
HETATM    3  O   UNL     2      -8.085   5.802  70.999  1.00  0.00    -0.115 OA 
HETATM    4  C   UNL     3     -10.349   7.948  67.219  1.00  0.00    -0.307 C  
HETATM    5  H   UNL     2      -7.227  10.086  71.140  1.00  0.00     0.000 HD 
HETATM    6  O   UNL     3     -10.640   7.173  68.427  1.00  0.00    -0.201 OA 
HETATM    7  O   UNL     3     -11.036  10.453  69.791  1.00  0.00    -0.253 OA 
HETATM    8  C   UNL     3     -10.565   9.372  67.732  1.00  0.00    -0.258 C  
HETATM    9  C   UNL     2      -8.066   6.847  71.873  1.00  0.00    -0.100 C  
HETATM   10  O   UNL     2      -6.824   8.349  68.919  1.00  0.00    -0.059 OA 
HETATM   11  C   UNL     3     -10.662   7.967  69.526  1.00  0.00    -0.192 C  
HETATM   12  C   UNL     2      -7.576   8.030  71.147  1.00  0.00    -0.082 C  
HETATM   13  O   UNL     2      -7.544   9.322  71.608  1.00  0.00    -0.338 OA 
HETATM   14  O   UNL     2      -8.390   6.796  73.045  1.00  0.00    -0.115 OA 
HETATM   15  C   UNL     2      -7.258   7.694  69.899  1.00  0.00    -0.072 C  
HETATM   16  O   UNL     3     -10.919  10.258  66.903  1.00  0.00    -0.190 OA 
HETATM   17  H   UNL     3     -10.975  11.352  69.490  1.00  0.00     0.000 HD 
HETATM   18  C   UNL     3     -10.568   9.359  69.062  1.00  0.00    -0.213 C  
HETATM   19  O   UNL     3     -11.057   7.675  70.640  1.00  0.00    -0.250 OA 
ENDROOT
BRANCH   2  20
HETATM   20  C   UNL     2      -6.867   5.196  68.968  1.00  0.00    -0.054 C  
HETATM   21  O   UNL     2      -6.451   5.580  67.642  1.00  0.00    -0.047 OA 
HETATM   22  H   UNL     2      -5.930   4.925  67.195  1.00  0.00     0.000 HD 
BRANCH  20  23
HETATM   23  C   UNL     2      -5.663   4.725  69.767  1.00  0.00    -0.013 C  
HETATM   24  H   UNL     2      -5.145   3.094  70.725  1.00  0.00     0.000 HD 
HETATM   25  O   UNL     2      -5.898   3.388  70.226  1.00  0.00    -0.017 OA 
ENDBRANCH  20  23
ENDBRANCH   2  20
BRANCH   4  26
HETATM   26  C   UNL     3      -9.023   7.410  66.615  1.00  0.00    -0.146 C  
HETATM   27  H   UNL     3      -8.484   5.745  65.744  1.00  0.00     0.000 HD 
HETATM   28  O   UNL     3      -9.296   6.074  66.113  1.00  0.00    -0.161 OA 
BRANCH  26  29
HETATM   29  C   UNL     3      -8.281   8.187  65.530  1.00  0.00    -0.144 C  
HETATM   30  O   UNL     3      -9.162   8.884  64.654  1.00  0.00    -0.431 OA 
HETATM   31  H   UNL     3      -8.701   9.367  63.979  1.00  0.00     0.000 HD 
ENDBRANCH  26  29
ENDBRANCH   4  26
TORSDOF 4
ENDMDL
MODEL       96
REMARK 921   NORMALIZED FREE ENERGY PREDICTED BY IDOCK:   -3.41 KCAL/MOL
REMARK 922        TOTAL FREE ENERGY PREDICTED BY IDOCK:   -5.22 KCAL/MOL
REMARK 923 INTER-LIGAND FREE ENERGY PREDICTED BY IDOCK:   -4.28 KCAL/MOL
REMARK 924 INTRA-LIGAND FREE ENERGY PREDICTED BY IDOCK:   -0.93 KCAL/MOL
REMARK 927      BINDING AFFINITY PREDICTED BY RF-SCORE:    0.00 PKD
ROOT
HETATM    1 MG   UNL     1     -12.321   7.655  70.269  1.00  0.00    -0.453 Mg 
HETATM    2  C   UNL     2      -7.740   7.017  65.559  1.00  0.00    -0.105 C  
HETATM    3  O   UNL     2      -8.177   5.916  64.748  1.00  0.00    -0.133 OA 
HETATM    4  C   UNL     3     -10.290   9.096  67.821  1.00  0.00    -0.245 C  
HETATM    5  H   UNL     2      -7.505   4.524  68.836  1.00  0.00     0.000 HD 
HETATM    6  O   UNL     3     -10.622   8.176  66.731  1.00  0.00    -0.313 OA 
HETATM    7  O   UNL     3     -11.235   5.982  69.484  1.00  0.00    -0.398 OA 
HETATM    8  C   UNL     3     -10.595   8.222  69.037  1.00  0.00    -0.150 C  
HETATM    9  C   UNL     2      -8.254   4.787  65.504  1.00  0.00    -0.117 C  
HETATM   10  O   UNL     2      -6.896   7.108  67.804  1.00  0.00    -0.068 OA 
HETATM   11  C   UNL     3     -10.745   6.904  67.182  1.00  0.00    -0.366 C  
HETATM   12  C   UNL     2      -7.769   5.116  66.855  1.00  0.00    -0.092 C  
HETATM   13  O   UNL     2      -7.818   4.311  67.964  1.00  0.00    -0.078 OA 
HETATM   14  O   UNL     2      -8.647   3.701  65.118  1.00  0.00    -0.110 OA 
HETATM   15  C   UNL     2      -7.362   6.383  66.890  1.00  0.00    -0.079 C  
HETATM   16  O   UNL     3     -10.933   8.794  70.113  1.00  0.00    -0.239 OA 
HETATM   17  H   UNL     3     -11.193   6.014  70.433  1.00  0.00     0.000 HD 
HETATM   18  C   UNL     3     -10.680   6.953  68.650  1.00  0.00    -0.216 C  
HETATM   19  O   UNL     3     -11.195   5.946  66.580  1.00  0.00    -0.132 OA 
ENDROOT
BRANCH   2  20
HETATM   20  C   UNL     2      -6.812   7.945  64.765  1.00  0.00    -0.055 C  
HETATM   21  O   UNL     2      -6.045   8.850  65.585  1.00  0.00    -0.051 OA 
HETATM   22  H   UNL     2      -5.471   9.425  65.093  1.00  0.00     0.000 HD 
BRANCH  20  23
HETATM   23  C   UNL     2      -5.887   7.211  63.809  1.00  0.00    -0.037 C  
HETATM   24  H   UNL     2      -4.675   7.704  62.347  1.00  0.00     0.000 HD 
HETATM   25  O   UNL     2      -5.254   8.162  62.945  1.00  0.00    -0.056 OA 
ENDBRANCH  20  23
ENDBRANCH   2  20
BRANCH   4  26
HETATM   26  C   UNL     3      -8.909   9.731  67.504  1.00  0.00    -0.125 C  
HETATM   27  H   UNL     3      -8.187  10.787  66.026  1.00  0.00     0.000 HD 
HETATM   28  O   UNL     3      -9.032  10.399  66.220  1.00  0.00    -0.150 OA 
BRANCH  26  29
HETATM   29  C   UNL     3      -8.243  10.696  68.483  1.00  0.00    -0.128 C  
HETATM   30  O   UNL     3      -9.156  11.650  69.019  1.00  0.00    -0.389 OA 
HETATM   31  H   UNL     3      -8.742  12.251  69.627  1.00  0.00     0.000 HD 
ENDBRANCH  26  29
ENDBRANCH   4  26
TORSDOF 4
ENDMDL
MODEL       97
REMARK 921   NORMALIZED FREE ENERGY PREDICTED BY IDOCK:   -3.40 KCAL/MOL
REMARK 922        TOTAL FREE ENERGY PREDICTED BY IDOCK:   -5.21 KCAL/MOL
REMARK 923 INTER-LIGAND FREE ENERGY PREDICTED BY IDOCK:   -4.13 KCAL/MOL
REMARK 924 INTRA-LIGAND FREE ENERGY PREDICTED BY IDOCK:   -1.08 KCAL/MOL
REMARK 927      BINDING AFFINITY PREDICTED BY RF-SCORE:    0.00 PKD
ROOT
HETATM    1 MG   UNL     1      -9.034   7.648  74.514  1.00  0.00    -0.191 Mg 
HETATM    2  C   UNL     2      -9.391   5.415  68.313  1.00  0.00    -0.114 C  
HETATM    3  O   UNL     2      -9.942   4.093  68.414  1.00  0.00    -0.063 OA 
HETATM    4  C   UNL     3      -9.940   8.141  71.178  1.00  0.00    -0.180 C  
HETATM    5  H   UNL     2      -6.163   4.256  70.604  1.00  0.00     0.000 HD 
HETATM    6  O   UNL     3     -10.679   6.890  70.994  1.00  0.00    -0.225 OA 
HETATM    7  O   UNL     3      -8.448   5.815  73.571  1.00  0.00    -0.115 OA 
HETATM    8  C   UNL     3      -9.003   7.755  72.323  1.00  0.00    -0.145 C  
HETATM    9  C   UNL     2      -9.123   3.307  69.165  1.00  0.00    -0.144 C  
HETATM   10  O   UNL     2      -7.258   6.307  68.960  1.00  0.00    -0.078 OA 
HETATM   11  C   UNL     3     -10.070   5.861  71.632  1.00  0.00    -0.190 C  
HETATM   12  C   UNL     2      -7.933   4.100  69.513  1.00  0.00    -0.056 C  
HETATM   13  O   UNL     2      -6.931   3.743  70.380  1.00  0.00    -0.033 OA 
HETATM   14  O   UNL     2      -9.343   2.152  69.479  1.00  0.00    -0.117 OA 
HETATM   15  C   UNL     2      -8.009   5.300  68.941  1.00  0.00    -0.086 C  
HETATM   16  O   UNL     3      -8.597   8.669  73.095  1.00  0.00    -0.393 OA 
HETATM   17  H   UNL     3      -7.743   6.184  74.090  1.00  0.00     0.000 HD 
HETATM   18  C   UNL     3      -8.978   6.430  72.436  1.00  0.00    -0.134 C  
HETATM   19  O   UNL     3     -10.518   4.747  71.836  1.00  0.00    -0.192 OA 
ENDROOT
BRANCH   2  20
HETATM   20  C   UNL     2      -9.645   6.007  66.921  1.00  0.00    -0.140 C  
HETATM   21  O   UNL     2      -9.093   7.326  66.734  1.00  0.00    -0.135 OA 
HETATM   22  H   UNL     2      -9.251   7.693  65.872  1.00  0.00     0.000 HD 
BRANCH  20  23
HETATM   23  C   UNL     2      -9.207   5.101  65.783  1.00  0.00    -0.156 C  
HETATM   24  H   UNL     2     -10.079   3.857  64.542  1.00  0.00     0.000 HD 
HETATM   25  O   UNL     2     -10.353   4.423  65.254  1.00  0.00    -0.242 OA 
ENDBRANCH  20  23
ENDBRANCH   2  20
BRANCH   4  26
HETATM   26  C   UNL     3      -9.482   8.633  69.778  1.00  0.00    -0.166 C  
HETATM   27  H   UNL     3     -10.377   8.950  68.070  1.00  0.00     0.000 HD 
HETATM   28  O   UNL     3     -10.658   8.649  68.927  1.00  0.00    -0.209 OA 
BRANCH  26  29
HETATM   29  C   UNL     3      -8.753   9.966  69.613  1.00  0.00    -0.204 C  
HETATM   30  O   UNL     3      -7.809  10.207  70.652  1.00  0.00    -0.420 OA 
HETATM   31  H   UNL     3      -7.356  11.035  70.550  1.00  0.00     0.000 HD 
ENDBRANCH  26  29
ENDBRANCH   4  26
TORSDOF 4
ENDMDL
MODEL       98
REMARK 921   NORMALIZED FREE ENERGY PREDICTED BY IDOCK:   -3.38 KCAL/MOL
REMARK 922        TOTAL FREE ENERGY PREDICTED BY IDOCK:   -5.18 KCAL/MOL
REMARK 923 INTER-LIGAND FREE ENERGY PREDICTED BY IDOCK:   -4.95 KCAL/MOL
REMARK 924 INTRA-LIGAND FREE ENERGY PREDICTED BY IDOCK:   -0.23 KCAL/MOL
REMARK 927      BINDING AFFINITY PREDICTED BY RF-SCORE:    0.00 PKD
ROOT
HETATM    1 MG   UNL     1     -12.380   6.662  69.729  1.00  0.00    -0.521 Mg 
HETATM    2  C   UNL     2      -6.985  10.454  69.439  1.00  0.00    -0.091 C  
HETATM    3  O   UNL     2      -7.326  11.537  68.562  1.00  0.00    -0.090 OA 
HETATM    4  C   UNL     3      -9.784   8.342  71.350  1.00  0.00    -0.199 C  
HETATM    5  H   UNL     2      -7.623   7.760  66.382  1.00  0.00     0.000 HD 
HETATM    6  O   UNL     3      -9.951   9.638  70.688  1.00  0.00    -0.273 OA 
HETATM    7  O   UNL     3     -11.286   7.548  68.114  1.00  0.00    -0.437 OA 
HETATM    8  C   UNL     3     -10.400   7.406  70.310  1.00  0.00    -0.212 C  
HETATM    9  C   UNL     2      -7.643  11.052  67.330  1.00  0.00    -0.110 C  
HETATM   10  O   UNL     2      -6.620   8.118  69.023  1.00  0.00    -0.046 OA 
HETATM   11  C   UNL     3     -10.261   9.483  69.377  1.00  0.00    -0.206 C  
HETATM   12  C   UNL     2      -7.425   9.596  67.351  1.00  0.00    -0.091 C  
HETATM   13  O   UNL     2      -7.764   8.700  66.368  1.00  0.00    -0.092 OA 
HETATM   14  O   UNL     2      -8.028  11.715  66.385  1.00  0.00    -0.112 OA 
HETATM   15  C   UNL     2      -6.940   9.230  68.535  1.00  0.00    -0.067 C  
HETATM   16  O   UNL     3     -10.909   6.321  70.711  1.00  0.00    -0.249 OA 
HETATM   17  H   UNL     3     -11.438   6.622  67.968  1.00  0.00     0.000 HD 
HETATM   18  C   UNL     3     -10.497   8.050  69.150  1.00  0.00    -0.208 C  
HETATM   19  O   UNL     3     -10.647  10.339  68.602  1.00  0.00    -0.186 OA 
ENDROOT
BRANCH   2  20
HETATM   20  C   UNL     2      -5.845  10.855  70.385  1.00  0.00    -0.128 C  
HETATM   21  O   UNL     2      -6.087  12.078  71.110  1.00  0.00    -0.478 OA 
HETATM   22  H   UNL     2      -5.381  12.327  71.694  1.00  0.00     0.000 HD 
BRANCH  20  23
HETATM   23  C   UNL     2      -5.439   9.756  71.352  1.00  0.00    -0.074 C  
HETATM   24  H   UNL     2      -5.138   9.608  73.285  1.00  0.00     0.000 HD 
HETATM   25  O   UNL     2      -5.391  10.294  72.680  1.00  0.00    -0.313 OA 
ENDBRANCH  20  23
ENDBRANCH   2  20
BRANCH   4  26
HETATM   26  C   UNL     3      -8.323   8.259  71.870  1.00  0.00    -0.157 C  
HETATM   27  H   UNL     3      -7.418   8.786  73.520  1.00  0.00     0.000 HD 
HETATM   28  O   UNL     3      -8.312   8.837  73.202  1.00  0.00    -0.402 OA 
BRANCH  26  29
HETATM   29  C   UNL     3      -7.581   6.925  71.921  1.00  0.00    -0.093 C  
HETATM   30  O   UNL     3      -8.323   5.910  72.591  1.00  0.00    -0.119 OA 
HETATM   31  H   UNL     3      -7.862   5.080  72.624  1.00  0.00     0.000 HD 
ENDBRANCH  26  29
ENDBRANCH   4  26
TORSDOF 4
ENDMDL
MODEL       99
REMARK 921   NORMALIZED FREE ENERGY PREDICTED BY IDOCK:   -3.36 KCAL/MOL
REMARK 922        TOTAL FREE ENERGY PREDICTED BY IDOCK:   -5.16 KCAL/MOL
REMARK 923 INTER-LIGAND FREE ENERGY PREDICTED BY IDOCK:   -4.38 KCAL/MOL
REMARK 924 INTRA-LIGAND FREE ENERGY PREDICTED BY IDOCK:   -0.78 KCAL/MOL
REMARK 927      BINDING AFFINITY PREDICTED BY RF-SCORE:    0.00 PKD
ROOT
HETATM    1 MG   UNL     1     -11.497   6.613  74.061  1.00  0.00    -0.431 Mg 
HETATM    2  C   UNL     2      -8.115   6.889  68.400  1.00  0.00    -0.120 C  
HETATM    3  O   UNL     2      -9.051   6.519  67.376  1.00  0.00    -0.114 OA 
HETATM    4  C   UNL     3      -9.320   8.317  71.928  1.00  0.00    -0.216 C  
HETATM    5  H   UNL     2      -8.593   3.205  70.189  1.00  0.00     0.000 HD 
HETATM    6  O   UNL     3     -10.116   8.195  70.705  1.00  0.00    -0.192 OA 
HETATM    7  O   UNL     3     -11.292   5.276  72.399  1.00  0.00    -0.213 OA 
HETATM    8  C   UNL     3      -9.831   7.117  72.724  1.00  0.00    -0.179 C  
HETATM    9  C   UNL     2      -9.510   5.258  67.605  1.00  0.00    -0.123 C  
HETATM   10  O   UNL     2      -7.079   5.617  70.151  1.00  0.00    -0.062 OA 
HETATM   11  C   UNL     3     -10.707   6.978  70.623  1.00  0.00    -0.231 C  
HETATM   12  C   UNL     2      -8.794   4.724  68.775  1.00  0.00    -0.098 C  
HETATM   13  O   UNL     2      -9.055   3.549  69.434  1.00  0.00    -0.105 OA 
HETATM   14  O   UNL     2     -10.356   4.681  66.946  1.00  0.00    -0.195 OA 
HETATM   15  C   UNL     2      -7.896   5.612  69.197  1.00  0.00    -0.089 C  
HETATM   16  O   UNL     3      -9.787   7.175  73.986  1.00  0.00    -0.288 OA 
HETATM   17  H   UNL     3     -11.141   4.834  73.226  1.00  0.00     0.000 HD 
HETATM   18  C   UNL     3     -10.474   6.292  71.903  1.00  0.00    -0.209 C  
HETATM   19  O   UNL     3     -11.575   6.628  69.844  1.00  0.00    -0.371 OA 
ENDROOT
BRANCH   2  20
HETATM   20  C   UNL     2      -6.974   7.733  67.815  1.00  0.00    -0.081 C  
HETATM   21  O   UNL     2      -6.165   7.035  66.846  1.00  0.00    -0.038 OA 
HETATM   22  H   UNL     2      -5.459   7.557  66.485  1.00  0.00     0.000 HD 
BRANCH  20  23
HETATM   23  C   UNL     2      -7.431   9.063  67.239  1.00  0.00    -0.084 C  
HETATM   24  H   UNL     2      -6.639  10.479  66.137  1.00  0.00     0.000 HD 
HETATM   25  O   UNL     2      -6.354   9.648  66.498  1.00  0.00    -0.064 OA 
ENDBRANCH  20  23
ENDBRANCH   2  20
BRANCH   4  26
HETATM   26  C   UNL     3      -7.842   8.547  71.512  1.00  0.00    -0.125 C  
HETATM   27  H   UNL     3      -6.893   9.935  70.515  1.00  0.00     0.000 HD 
HETATM   28  O   UNL     3      -7.798   9.794  70.769  1.00  0.00    -0.304 OA 
BRANCH  26  29
HETATM   29  C   UNL     3      -6.726   8.573  72.556  1.00  0.00    -0.067 C  
HETATM   30  O   UNL     3      -7.220   8.746  73.881  1.00  0.00    -0.379 OA 
HETATM   31  H   UNL     3      -6.526   8.762  74.530  1.00  0.00     0.000 HD 
ENDBRANCH  26  29
ENDBRANCH   4  26
TORSDOF 4
ENDMDL
MODEL      100
REMARK 921   NORMALIZED FREE ENERGY PREDICTED BY IDOCK:   -3.34 KCAL/MOL
REMARK 922        TOTAL FREE ENERGY PREDICTED BY IDOCK:   -5.13 KCAL/MOL
REMARK 923 INTER-LIGAND FREE ENERGY PREDICTED BY IDOCK:   -4.41 KCAL/MOL
REMARK 924 INTRA-LIGAND FREE ENERGY PREDICTED BY IDOCK:   -0.73 KCAL/MOL
REMARK 927      BINDING AFFINITY PREDICTED BY RF-SCORE:    0.00 PKD
ROOT
HETATM    1 MG   UNL     1     -12.772  11.651  69.826  1.00  0.00    -0.248 Mg 
HETATM    2  C   UNL     2      -7.629   7.760  68.421  1.00  0.00    -0.109 C  
HETATM    3  O   UNL     2      -7.789   6.600  69.251  1.00  0.00    -0.106 OA 
HETATM    4  C   UNL     3     -10.721  10.097  67.465  1.00  0.00    -0.290 C  
HETATM    5  H   UNL     2      -7.390  10.145  71.777  1.00  0.00     0.000 HD 
HETATM    6  O   UNL     3     -10.774   8.745  68.025  1.00  0.00    -0.190 OA 
HETATM    7  O   UNL     3     -11.353  10.590  71.031  1.00  0.00    -0.312 OA 
HETATM    8  C   UNL     3     -11.025  10.935  68.707  1.00  0.00    -0.237 C  
HETATM    9  C   UNL     2      -7.775   6.966  70.563  1.00  0.00    -0.096 C  
HETATM   10  O   UNL     2      -7.078  10.036  68.948  1.00  0.00    -0.064 OA 
HETATM   11  C   UNL     3     -10.747   8.774  69.380  1.00  0.00    -0.169 C  
HETATM   12  C   UNL     2      -7.510   8.412  70.624  1.00  0.00    -0.065 C  
HETATM   13  O   UNL     2      -7.561   9.211  71.738  1.00  0.00    -0.339 OA 
HETATM   14  O   UNL     2      -7.945   6.218  71.508  1.00  0.00    -0.103 OA 
HETATM   15  C   UNL     2      -7.314   8.886  69.395  1.00  0.00    -0.075 C  
HETATM   16  O   UNL     3     -11.572  12.063  68.546  1.00  0.00    -0.264 OA 
HETATM   17  H   UNL     3     -11.428  11.500  71.295  1.00  0.00     0.000 HD 
HETATM   18  C   UNL     3     -10.863  10.181  69.790  1.00  0.00    -0.279 C  
HETATM   19  O   UNL     3     -10.968   7.851  70.144  1.00  0.00    -0.253 OA 
ENDROOT
BRANCH   2  20
HETATM   20  C   UNL     2      -6.771   7.435  67.190  1.00  0.00    -0.069 C  
HETATM   21  O   UNL     2      -5.543   6.745  67.497  1.00  0.00    -0.014 OA 
HETATM   22  H   UNL     2      -5.012   6.544  66.735  1.00  0.00     0.000 HD 
BRANCH  20  23
HETATM   23  C   UNL     2      -7.523   6.686  66.103  1.00  0.00    -0.081 C  
HETATM   24  H   UNL     2      -9.392   6.216  65.737  1.00  0.00     0.000 HD 
HETATM   25  O   UNL     2      -8.922   6.684  66.417  1.00  0.00    -0.141 OA 
ENDBRANCH  20  23
ENDBRANCH   2  20
BRANCH   4  26
HETATM   26  C   UNL     3      -9.429  10.208  66.610  1.00  0.00    -0.170 C  
HETATM   27  H   UNL     3      -8.952   9.743  64.773  1.00  0.00     0.000 HD 
HETATM   28  O   UNL     3      -9.742   9.676  65.295  1.00  0.00    -0.300 OA 
BRANCH  26  29
HETATM   29  C   UNL     3      -8.719  11.548  66.427  1.00  0.00    -0.179 C  
HETATM   30  O   UNL     3      -9.626  12.622  66.198  1.00  0.00    -0.253 OA 
HETATM   31  H   UNL     3      -9.185  13.456  66.084  1.00  0.00     0.000 HD 
ENDBRANCH  26  29
ENDBRANCH   4  26
TORSDOF 4
ENDMDL
MODEL      101
REMARK 921   NORMALIZED FREE ENERGY PREDICTED BY IDOCK:   -3.33 KCAL/MOL
REMARK 922        TOTAL FREE ENERGY PREDICTED BY IDOCK:   -5.12 KCAL/MOL
REMARK 923 INTER-LIGAND FREE ENERGY PREDICTED BY IDOCK:   -3.93 KCAL/MOL
REMARK 924 INTRA-LIGAND FREE ENERGY PREDICTED BY IDOCK:   -1.20 KCAL/MOL
REMARK 927      BINDING AFFINITY PREDICTED BY RF-SCORE:    0.00 PKD
ROOT
HETATM    1 MG   UNL     1     -10.838   5.713  65.530  1.00  0.00    -0.423 Mg 
HETATM    2  C   UNL     2      -7.872   4.940  71.375  1.00  0.00    -0.104 C  
HETATM    3  O   UNL     2      -6.763   4.063  71.128  1.00  0.00    -0.029 OA 
HETATM    4  C   UNL     3      -9.528   7.100  68.454  1.00  0.00    -0.138 C  
HETATM    5  H   UNL     2     -10.488   2.005  70.130  1.00  0.00     0.000 HD 
HETATM    6  O   UNL     3      -8.232   6.420  68.424  1.00  0.00    -0.112 OA 
HETATM    7  O   UNL     3     -10.143   4.002  66.616  1.00  0.00    -0.358 OA 
HETATM    8  C   UNL     3     -10.380   6.131  67.634  1.00  0.00    -0.201 C  
HETATM    9  C   UNL     2      -7.215   2.870  70.653  1.00  0.00    -0.033 C  
HETATM   10  O   UNL     2     -10.241   4.557  71.370  1.00  0.00    -0.182 OA 
HETATM   11  C   UNL     3      -8.359   5.139  67.999  1.00  0.00    -0.097 C  
HETATM   12  C   UNL     2      -8.686   2.911  70.661  1.00  0.00    -0.072 C  
HETATM   13  O   UNL     2      -9.537   1.978  70.125  1.00  0.00    -0.097 OA 
HETATM   14  O   UNL     2      -6.516   1.939  70.297  1.00  0.00    -0.024 OA 
HETATM   15  C   UNL     2      -9.101   4.066  71.177  1.00  0.00    -0.118 C  
HETATM   16  O   UNL     3     -11.374   6.595  67.007  1.00  0.00    -0.348 OA 
HETATM   17  H   UNL     3     -11.039   3.890  66.321  1.00  0.00     0.000 HD 
HETATM   18  C   UNL     3      -9.746   4.966  67.543  1.00  0.00    -0.164 C  
HETATM   19  O   UNL     3      -7.467   4.373  67.682  1.00  0.00    -0.072 OA 
ENDROOT
BRANCH   2  20
HETATM   20  C   UNL     2      -7.626   5.791  72.629  1.00  0.00    -0.097 C  
HETATM   21  O   UNL     2      -8.617   6.814  72.848  1.00  0.00    -0.117 OA 
HETATM   22  H   UNL     2      -8.465   7.340  73.624  1.00  0.00     0.000 HD 
BRANCH  20  23
HETATM   23  C   UNL     2      -7.445   4.971  73.896  1.00  0.00    -0.087 C  
HETATM   24  H   UNL     2      -8.602   4.308  75.334  1.00  0.00     0.000 HD 
HETATM   25  O   UNL     2      -8.715   4.820  74.542  1.00  0.00    -0.111 OA 
ENDBRANCH  20  23
ENDBRANCH   2  20
BRANCH   4  26
HETATM   26  C   UNL     3      -9.814   7.515  69.923  1.00  0.00    -0.187 C  
HETATM   27  H   UNL     3      -9.131   8.902  71.119  1.00  0.00     0.000 HD 
HETATM   28  O   UNL     3      -8.955   8.648  70.220  1.00  0.00    -0.141 OA 
BRANCH  26  29
HETATM   29  C   UNL     3     -11.231   7.856  70.382  1.00  0.00    -0.234 C  
HETATM   30  O   UNL     3     -11.966   6.705  70.791  1.00  0.00    -0.382 OA 
HETATM   31  H   UNL     3     -12.847   6.917  71.076  1.00  0.00     0.000 HD 
ENDBRANCH  26  29
ENDBRANCH   4  26
TORSDOF 4
ENDMDL
MODEL      102
REMARK 921   NORMALIZED FREE ENERGY PREDICTED BY IDOCK:   -3.33 KCAL/MOL
REMARK 922        TOTAL FREE ENERGY PREDICTED BY IDOCK:   -5.11 KCAL/MOL
REMARK 923 INTER-LIGAND FREE ENERGY PREDICTED BY IDOCK:   -4.19 KCAL/MOL
REMARK 924 INTRA-LIGAND FREE ENERGY PREDICTED BY IDOCK:   -0.93 KCAL/MOL
REMARK 927      BINDING AFFINITY PREDICTED BY RF-SCORE:    0.00 PKD
ROOT
HETATM    1 MG   UNL     1      -9.250   8.269  64.180  1.00  0.00    -0.405 Mg 
HETATM    2  C   UNL     2      -9.242   5.730  70.272  1.00  0.00    -0.152 C  
HETATM    3  O   UNL     2     -10.623   5.519  70.600  1.00  0.00    -0.262 OA 
HETATM    4  C   UNL     3      -7.997   5.966  66.486  1.00  0.00    -0.102 C  
HETATM    5  H   UNL     2      -9.946   9.774  69.862  1.00  0.00     0.000 HD 
HETATM    6  O   UNL     3      -9.284   5.455  66.964  1.00  0.00    -0.112 OA 
HETATM    7  O   UNL     3     -10.346   8.718  65.966  1.00  0.00    -0.341 OA 
HETATM    8  C   UNL     3      -8.407   7.352  65.986  1.00  0.00    -0.143 C  
HETATM    9  C   UNL     2     -11.292   6.704  70.570  1.00  0.00    -0.358 C  
HETATM   10  O   UNL     2      -7.957   7.739  69.998  1.00  0.00    -0.108 OA 
HETATM   11  C   UNL     3     -10.198   6.450  67.072  1.00  0.00    -0.205 C  
HETATM   12  C   UNL     2     -10.311   7.767  70.298  1.00  0.00    -0.215 C  
HETATM   13  O   UNL     2     -10.579   9.087  70.038  1.00  0.00    -0.214 OA 
HETATM   14  O   UNL     2     -12.487   6.848  70.749  1.00  0.00    -0.356 OA 
HETATM   15  C   UNL     2      -9.089   7.244  70.225  1.00  0.00    -0.152 C  
HETATM   16  O   UNL     3      -7.727   7.876  65.058  1.00  0.00    -0.092 OA 
HETATM   17  H   UNL     3      -9.959   9.499  65.585  1.00  0.00     0.000 HD 
HETATM   18  C   UNL     3      -9.601   7.658  66.484  1.00  0.00    -0.186 C  
HETATM   19  O   UNL     3     -11.397   6.336  67.253  1.00  0.00    -0.254 OA 
ENDROOT
BRANCH   2  20
HETATM   20  C   UNL     2      -8.337   4.809  71.102  1.00  0.00    -0.105 C  
HETATM   21  O   UNL     2      -7.321   5.505  71.852  1.00  0.00    -0.087 OA 
HETATM   22  H   UNL     2      -6.761   4.936  72.365  1.00  0.00     0.000 HD 
BRANCH  20  23
HETATM   23  C   UNL     2      -9.101   3.871  72.022  1.00  0.00    -0.116 C  
HETATM   24  H   UNL     2      -9.256   1.930  72.257  1.00  0.00     0.000 HD 
HETATM   25  O   UNL     2      -8.779   2.517  71.682  1.00  0.00    -0.066 OA 
ENDBRANCH  20  23
ENDBRANCH   2  20
BRANCH   4  26
HETATM   26  C   UNL     3      -6.938   5.694  67.588  1.00  0.00    -0.066 C  
HETATM   27  H   UNL     3      -5.851   4.153  68.101  1.00  0.00     0.000 HD 
HETATM   28  O   UNL     3      -6.499   4.319  67.426  1.00  0.00    -0.039 OA 
BRANCH  26  29
HETATM   29  C   UNL     3      -5.700   6.578  67.725  1.00  0.00    -0.012 C  
HETATM   30  O   UNL     3      -6.024   7.962  67.835  1.00  0.00    -0.039 OA 
HETATM   31  H   UNL     3      -5.254   8.512  67.920  1.00  0.00     0.000 HD 
ENDBRANCH  26  29
ENDBRANCH   4  26
TORSDOF 4
ENDMDL
MODEL      103
REMARK 921   NORMALIZED FREE ENERGY PREDICTED BY IDOCK:   -3.29 KCAL/MOL
REMARK 922        TOTAL FREE ENERGY PREDICTED BY IDOCK:   -5.07 KCAL/MOL
REMARK 923 INTER-LIGAND FREE ENERGY PREDICTED BY IDOCK:   -3.85 KCAL/MOL
REMARK 924 INTRA-LIGAND FREE ENERGY PREDICTED BY IDOCK:   -1.23 KCAL/MOL
REMARK 927      BINDING AFFINITY PREDICTED BY RF-SCORE:    0.00 PKD
ROOT
HETATM    1 MG   UNL     1      -9.163   2.935  64.304  1.00  0.00    -0.102 Mg 
HETATM    2  C   UNL     2      -8.219   7.800  68.664  1.00  0.00    -0.128 C  
HETATM    3  O   UNL     2      -8.162   7.158  69.947  1.00  0.00    -0.129 OA 
HETATM    4  C   UNL     3      -7.447   5.813  65.288  1.00  0.00    -0.078 C  
HETATM    5  H   UNL     2     -12.063   6.406  68.124  1.00  0.00     0.000 HD 
HETATM    6  O   UNL     3      -7.133   5.390  66.655  1.00  0.00    -0.066 OA 
HETATM    7  O   UNL     3     -10.093   3.449  66.165  1.00  0.00    -0.383 OA 
HETATM    8  C   UNL     3      -8.683   4.960  65.001  1.00  0.00    -0.149 C  
HETATM    9  C   UNL     2      -9.334   6.510  70.191  1.00  0.00    -0.158 C  
HETATM   10  O   UNL     2     -10.032   8.138  67.129  1.00  0.00    -0.188 OA 
HETATM   11  C   UNL     3      -8.166   4.709  67.208  1.00  0.00    -0.105 C  
HETATM   12  C   UNL     2     -10.247   6.795  69.073  1.00  0.00    -0.178 C  
HETATM   13  O   UNL     2     -11.473   6.222  68.846  1.00  0.00    -0.331 OA 
HETATM   14  O   UNL     2      -9.574   5.826  71.169  1.00  0.00    -0.162 OA 
HETATM   15  C   UNL     2      -9.664   7.632  68.218  1.00  0.00    -0.157 C  
HETATM   16  O   UNL     3      -8.927   4.649  63.801  1.00  0.00    -0.143 OA 
HETATM   17  H   UNL     3     -10.735   3.305  65.480  1.00  0.00     0.000 HD 
HETATM   18  C   UNL     3      -9.160   4.487  66.148  1.00  0.00    -0.128 C  
HETATM   19  O   UNL     3      -8.159   4.066  68.242  1.00  0.00    -0.079 OA 
ENDROOT
BRANCH   2  20
HETATM   20  C   UNL     2      -7.491   9.150  68.698  1.00  0.00    -0.080 C  
HETATM   21  O   UNL     2      -7.323   9.759  67.401  1.00  0.00    -0.089 OA 
HETATM   22  H   UNL     2      -6.872  10.595  67.422  1.00  0.00     0.000 HD 
BRANCH  20  23
HETATM   23  C   UNL     2      -8.107  10.152  69.660  1.00  0.00    -0.168 C  
HETATM   24  H   UNL     2      -9.319  11.689  69.524  1.00  0.00     0.000 HD 
HETATM   25  O   UNL     2      -8.933  11.063  68.923  1.00  0.00    -0.168 OA 
ENDBRANCH  20  23
ENDBRANCH   2  20
BRANCH   4  26
HETATM   26  C   UNL     3      -7.407   7.365  65.249  1.00  0.00    -0.076 C  
HETATM   27  H   UNL     3      -5.995   8.708  65.394  1.00  0.00     0.000 HD 
HETATM   28  O   UNL     3      -6.019   7.759  65.418  1.00  0.00    -0.037 OA 
BRANCH  26  29
HETATM   29  C   UNL     3      -7.982   8.137  64.063  1.00  0.00    -0.139 C  
HETATM   30  O   UNL     3      -9.135   8.898  64.412  1.00  0.00    -0.423 OA 
HETATM   31  H   UNL     3      -9.494   9.378  63.675  1.00  0.00     0.000 HD 
ENDBRANCH  26  29
ENDBRANCH   4  26
TORSDOF 4
ENDMDL
MODEL      104
REMARK 921   NORMALIZED FREE ENERGY PREDICTED BY IDOCK:   -3.29 KCAL/MOL
REMARK 922        TOTAL FREE ENERGY PREDICTED BY IDOCK:   -5.07 KCAL/MOL
REMARK 923 INTER-LIGAND FREE ENERGY PREDICTED BY IDOCK:   -4.05 KCAL/MOL
REMARK 924 INTRA-LIGAND FREE ENERGY PREDICTED BY IDOCK:   -1.02 KCAL/MOL
REMARK 927      BINDING AFFINITY PREDICTED BY RF-SCORE:    0.00 PKD
ROOT
HETATM    1 MG   UNL     1      -9.563   8.957  72.296  1.00  0.00    -0.207 Mg 
HETATM    2  C   UNL     2      -9.355   4.188  67.738  1.00  0.00    -0.168 C  
HETATM    3  O   UNL     2      -9.688   2.978  68.434  1.00  0.00    -0.116 OA 
HETATM    4  C   UNL     3     -10.430   7.773  69.127  1.00  0.00    -0.211 C  
HETATM    5  H   UNL     2      -6.057   4.692  70.162  1.00  0.00     0.000 HD 
HETATM    6  O   UNL     3     -10.950   6.470  69.546  1.00  0.00    -0.274 OA 
HETATM    7  O   UNL     3      -8.659   7.015  72.233  1.00  0.00    -0.121 OA 
HETATM    8  C   UNL     3      -9.480   8.087  70.283  1.00  0.00    -0.167 C  
HETATM    9  C   UNL     2      -8.777   2.747  69.419  1.00  0.00    -0.082 C  
HETATM   10  O   UNL     2      -7.417   5.601  67.831  1.00  0.00    -0.075 OA 
HETATM   11  C   UNL     3     -10.203   5.940  70.545  1.00  0.00    -0.211 C  
HETATM   12  C   UNL     2      -7.742   3.790  69.329  1.00  0.00    -0.052 C  
HETATM   13  O   UNL     2      -6.725   4.018  70.221  1.00  0.00    -0.032 OA 
HETATM   14  O   UNL     2      -8.816   1.831  70.220  1.00  0.00    -0.058 OA 
HETATM   15  C   UNL     2      -7.994   4.585  68.291  1.00  0.00    -0.080 C  
HETATM   16  O   UNL     3      -9.252   9.301  70.555  1.00  0.00    -0.222 OA 
HETATM   17  H   UNL     3      -8.040   7.682  72.506  1.00  0.00     0.000 HD 
HETATM   18  C   UNL     3      -9.244   6.972  70.967  1.00  0.00    -0.155 C  
HETATM   19  O   UNL     3     -10.471   4.976  71.238  1.00  0.00    -0.208 OA 
ENDROOT
BRANCH   2  20
HETATM   20  C   UNL     2      -9.657   4.055  66.239  1.00  0.00    -0.199 C  
HETATM   21  O   UNL     2      -9.337   5.232  65.468  1.00  0.00    -0.235 OA 
HETATM   22  H   UNL     2      -9.525   5.150  64.541  1.00  0.00     0.000 HD 
BRANCH  20  23
HETATM   23  C   UNL     2      -9.025   2.833  65.595  1.00  0.00    -0.143 C  
HETATM   24  H   UNL     2      -7.259   2.355  64.888  1.00  0.00     0.000 HD 
HETATM   25  O   UNL     2      -7.654   3.119  65.291  1.00  0.00    -0.078 OA 
ENDBRANCH  20  23
ENDBRANCH   2  20
BRANCH   4  26
HETATM   26  C   UNL     3     -10.013   7.662  67.636  1.00  0.00    -0.175 C  
HETATM   27  H   UNL     3     -10.879   7.010  66.009  1.00  0.00     0.000 HD 
HETATM   28  O   UNL     3     -11.135   7.078  66.922  1.00  0.00    -0.359 OA 
BRANCH  26  29
HETATM   29  C   UNL     3      -9.538   8.889  66.858  1.00  0.00    -0.190 C  
HETATM   30  O   UNL     3     -10.530   9.909  66.784  1.00  0.00    -0.230 OA 
HETATM   31  H   UNL     3     -10.236  10.671  66.300  1.00  0.00     0.000 HD 
ENDBRANCH  26  29
ENDBRANCH   4  26
TORSDOF 4
ENDMDL
MODEL      105
REMARK 921   NORMALIZED FREE ENERGY PREDICTED BY IDOCK:   -3.27 KCAL/MOL
REMARK 922        TOTAL FREE ENERGY PREDICTED BY IDOCK:   -5.04 KCAL/MOL
REMARK 923 INTER-LIGAND FREE ENERGY PREDICTED BY IDOCK:   -3.96 KCAL/MOL
REMARK 924 INTRA-LIGAND FREE ENERGY PREDICTED BY IDOCK:   -1.08 KCAL/MOL
REMARK 927      BINDING AFFINITY PREDICTED BY RF-SCORE:    0.00 PKD
ROOT
HETATM    1 MG   UNL     1      -9.878   3.381  73.464  1.00  0.00    -0.100 Mg 
HETATM    2  C   UNL     2      -8.947   8.512  69.418  1.00  0.00    -0.149 C  
HETATM    3  O   UNL     2     -10.128   8.579  68.606  1.00  0.00    -0.180 OA 
HETATM    4  C   UNL     3      -8.948   6.712  72.981  1.00  0.00    -0.127 C  
HETATM    5  H   UNL     2      -8.147   4.735  67.967  1.00  0.00     0.000 HD 
HETATM    6  O   UNL     3     -10.115   7.125  72.199  1.00  0.00    -0.179 OA 
HETATM    7  O   UNL     3     -10.107   3.653  71.351  1.00  0.00    -0.137 OA 
HETATM    8  C   UNL     3      -8.932   5.209  72.702  1.00  0.00    -0.125 C  
HETATM    9  C   UNL     2     -10.269   7.424  67.899  1.00  0.00    -0.194 C  
HETATM   10  O   UNL     2      -7.148   6.925  69.490  1.00  0.00    -0.070 OA 
HETATM   11  C   UNL     3     -10.499   6.151  71.338  1.00  0.00    -0.225 C  
HETATM   12  C   UNL     2      -9.094   6.581  68.176  1.00  0.00    -0.114 C  
HETATM   13  O   UNL     2      -8.906   5.279  67.788  1.00  0.00    -0.107 OA 
HETATM   14  O   UNL     2     -11.200   7.152  67.164  1.00  0.00    -0.276 OA 
HETATM   15  C   UNL     2      -8.252   7.233  68.976  1.00  0.00    -0.125 C  
HETATM   16  O   UNL     3      -8.429   4.446  73.575  1.00  0.00    -0.097 OA 
HETATM   17  H   UNL     3      -9.592   2.881  71.551  1.00  0.00     0.000 HD 
HETATM   18  C   UNL     3      -9.701   4.955  71.648  1.00  0.00    -0.173 C  
HETATM   19  O   UNL     3     -11.530   6.099  70.692  1.00  0.00    -0.338 OA 
ENDROOT
BRANCH   2  20
HETATM   20  C   UNL     2      -8.252   9.879  69.481  1.00  0.00    -0.158 C  
HETATM   21  O   UNL     2      -7.388  10.046  70.624  1.00  0.00    -0.308 OA 
HETATM   22  H   UNL     2      -6.958  10.891  70.664  1.00  0.00     0.000 HD 
BRANCH  20  23
HETATM   23  C   UNL     2      -7.499  10.240  68.212  1.00  0.00    -0.086 C  
HETATM   24  H   UNL     2      -7.837  11.347  66.628  1.00  0.00     0.000 HD 
HETATM   25  O   UNL     2      -8.307  11.121  67.422  1.00  0.00    -0.129 OA 
ENDBRANCH  20  23
ENDBRANCH   2  20
BRANCH   4  26
HETATM   26  C   UNL     3      -7.786   7.691  72.657  1.00  0.00    -0.101 C  
HETATM   27  H   UNL     3      -7.397   9.556  73.091  1.00  0.00     0.000 HD 
HETATM   28  O   UNL     3      -8.108   8.957  73.290  1.00  0.00    -0.363 OA 
BRANCH  26  29
HETATM   29  C   UNL     3      -6.341   7.337  73.001  1.00  0.00    -0.060 C  
HETATM   30  O   UNL     3      -5.627   6.804  71.888  1.00  0.00    -0.035 OA 
HETATM   31  H   UNL     3      -4.728   6.584  72.101  1.00  0.00     0.000 HD 
ENDBRANCH  26  29
ENDBRANCH   4  26
TORSDOF 4
ENDMDL
MODEL      106
REMARK 921   NORMALIZED FREE ENERGY PREDICTED BY IDOCK:   -3.22 KCAL/MOL
REMARK 922        TOTAL FREE ENERGY PREDICTED BY IDOCK:   -4.99 KCAL/MOL
REMARK 923 INTER-LIGAND FREE ENERGY PREDICTED BY IDOCK:   -3.75 KCAL/MOL
REMARK 924 INTRA-LIGAND FREE ENERGY PREDICTED BY IDOCK:   -1.23 KCAL/MOL
REMARK 927      BINDING AFFINITY PREDICTED BY RF-SCORE:    0.00 PKD
ROOT
HETATM    1 MG   UNL     1     -10.769  12.752  62.518  1.00  0.00    -0.512 Mg 
HETATM    2  C   UNL     2      -8.535   9.674  67.912  1.00  0.00    -0.122 C  
HETATM    3  O   UNL     2      -9.626   9.697  68.845  1.00  0.00    -0.153 OA 
HETATM    4  C   UNL     3      -9.130  10.038  63.981  1.00  0.00    -0.257 C  
HETATM    5  H   UNL     2      -8.465  13.797  67.870  1.00  0.00     0.000 HD 
HETATM    6  O   UNL     3     -10.134   9.736  65.004  1.00  0.00    -0.225 OA 
HETATM    7  O   UNL     3     -10.808  13.224  64.608  1.00  0.00    -0.338 OA 
HETATM    8  C   UNL     3      -9.415  11.518  63.726  1.00  0.00    -0.134 C  
HETATM    9  C   UNL     2      -9.964  10.986  69.128  1.00  0.00    -0.121 C  
HETATM   10  O   UNL     2      -7.119  11.418  67.068  1.00  0.00    -0.120 OA 
HETATM   11  C   UNL     3     -10.663  10.871  65.523  1.00  0.00    -0.112 C  
HETATM   12  C   UNL     2      -9.012  11.864  68.429  1.00  0.00    -0.163 C  
HETATM   13  O   UNL     2      -9.080  13.230  68.321  1.00  0.00    -0.196 OA 
HETATM   14  O   UNL     2     -10.886  11.336  69.842  1.00  0.00    -0.127 OA 
HETATM   15  C   UNL     2      -8.101  11.127  67.796  1.00  0.00    -0.117 C  
HETATM   16  O   UNL     3      -9.137  11.991  62.588  1.00  0.00    -0.015 OA 
HETATM   17  H   UNL     3     -10.480  13.950  64.090  1.00  0.00     0.000 HD 
HETATM   18  C   UNL     3     -10.155  11.996  64.722  1.00  0.00    -0.257 C  
HETATM   19  O   UNL     3     -11.641  10.971  66.241  1.00  0.00    -0.082 OA 
ENDROOT
BRANCH   2  20
HETATM   20  C   UNL     2      -7.573   8.521  68.228  1.00  0.00    -0.097 C  
HETATM   21  O   UNL     2      -6.256   8.683  67.662  1.00  0.00    -0.051 OA 
HETATM   22  H   UNL     2      -5.661   7.970  67.857  1.00  0.00     0.000 HD 
BRANCH  20  23
HETATM   23  C   UNL     2      -7.459   8.210  69.711  1.00  0.00    -0.084 C  
HETATM   24  H   UNL     2      -6.014   8.120  71.035  1.00  0.00     0.000 HD 
HETATM   25  O   UNL     2      -6.086   8.314  70.108  1.00  0.00    -0.031 OA 
ENDBRANCH  20  23
ENDBRANCH   2  20
BRANCH   4  26
HETATM   26  C   UNL     3      -7.771   9.463  64.465  1.00  0.00    -0.118 C  
HETATM   27  H   UNL     3      -6.992   7.673  64.564  1.00  0.00     0.000 HD 
HETATM   28  O   UNL     3      -7.824   8.025  64.268  1.00  0.00    -0.124 OA 
BRANCH  26  29
HETATM   29  C   UNL     3      -6.451   9.976  63.893  1.00  0.00    -0.132 C  
HETATM   30  O   UNL     3      -5.426  10.069  64.878  1.00  0.00    -0.065 OA 
HETATM   31  H   UNL     3      -4.605  10.389  64.523  1.00  0.00     0.000 HD 
ENDBRANCH  26  29
ENDBRANCH   4  26
TORSDOF 4
ENDMDL
MODEL      107
REMARK 921   NORMALIZED FREE ENERGY PREDICTED BY IDOCK:   -3.21 KCAL/MOL
REMARK 922        TOTAL FREE ENERGY PREDICTED BY IDOCK:   -4.97 KCAL/MOL
REMARK 923 INTER-LIGAND FREE ENERGY PREDICTED BY IDOCK:   -4.14 KCAL/MOL
REMARK 924 INTRA-LIGAND FREE ENERGY PREDICTED BY IDOCK:   -0.83 KCAL/MOL
REMARK 927      BINDING AFFINITY PREDICTED BY RF-SCORE:    0.00 PKD
ROOT
HETATM    1 MG   UNL     1     -11.200  10.104  67.824  1.00  0.00    -0.217 Mg 
HETATM    2  C   UNL     2      -8.688   5.339  71.638  1.00  0.00    -0.134 C  
HETATM    3  O   UNL     2      -9.804   4.513  72.003  1.00  0.00    -0.162 OA 
HETATM    4  C   UNL     3      -8.769   7.662  68.392  1.00  0.00    -0.127 C  
HETATM    5  H   UNL     2     -10.459   8.570  73.493  1.00  0.00     0.000 HD 
HETATM    6  O   UNL     3      -9.678   6.560  68.714  1.00  0.00    -0.129 OA 
HETATM    7  O   UNL     3     -11.767   9.280  69.719  1.00  0.00    -0.445 OA 
HETATM    8  C   UNL     3      -9.642   8.866  68.749  1.00  0.00    -0.157 C  
HETATM    9  C   UNL     2     -10.720   5.250  72.689  1.00  0.00    -0.239 C  
HETATM   10  O   UNL     2      -8.088   7.577  72.266  1.00  0.00    -0.097 OA 
HETATM   11  C   UNL     3     -10.730   6.989  69.452  1.00  0.00    -0.238 C  
HETATM   12  C   UNL     2     -10.165   6.601  72.871  1.00  0.00    -0.195 C  
HETATM   13  O   UNL     2     -10.817   7.697  73.375  1.00  0.00    -0.380 OA 
HETATM   14  O   UNL     2     -11.799   4.849  73.085  1.00  0.00    -0.279 OA 
HETATM   15  C   UNL     2      -8.935   6.655  72.362  1.00  0.00    -0.135 C  
HETATM   16  O   UNL     3      -9.432   9.955  68.141  1.00  0.00    -0.138 OA 
HETATM   17  H   UNL     3     -11.722  10.228  69.748  1.00  0.00     0.000 HD 
HETATM   18  C   UNL     3     -10.661   8.458  69.498  1.00  0.00    -0.213 C  
HETATM   19  O   UNL     3     -11.748   6.375  69.718  1.00  0.00    -0.414 OA 
ENDROOT
BRANCH   2  20
HETATM   20  C   UNL     2      -7.374   4.552  71.730  1.00  0.00    -0.072 C  
HETATM   21  O   UNL     2      -7.147   3.936  73.014  1.00  0.00    -0.054 OA 
HETATM   22  H   UNL     2      -6.334   3.449  73.072  1.00  0.00     0.000 HD 
BRANCH  20  23
HETATM   23  C   UNL     2      -7.203   3.520  70.629  1.00  0.00    -0.037 C  
HETATM   24  H   UNL     2      -7.398   1.575  70.464  1.00  0.00     0.000 HD 
HETATM   25  O   UNL     2      -7.505   2.220  71.152  1.00  0.00    -0.033 OA 
ENDBRANCH  20  23
ENDBRANCH   2  20
BRANCH   4  26
HETATM   26  C   UNL     3      -7.389   7.343  69.028  1.00  0.00    -0.091 C  
HETATM   27  H   UNL     3      -5.939   6.100  68.615  1.00  0.00     0.000 HD 
HETATM   28  O   UNL     3      -6.783   6.295  68.225  1.00  0.00    -0.062 OA 
BRANCH  26  29
HETATM   29  C   UNL     3      -6.350   8.441  69.246  1.00  0.00    -0.038 C  
HETATM   30  O   UNL     3      -6.805   9.458  70.134  1.00  0.00    -0.053 OA 
HETATM   31  H   UNL     3      -6.159  10.141  70.269  1.00  0.00     0.000 HD 
ENDBRANCH  26  29
ENDBRANCH   4  26
TORSDOF 4
ENDMDL
MODEL      108
REMARK 921   NORMALIZED FREE ENERGY PREDICTED BY IDOCK:   -3.21 KCAL/MOL
REMARK 922        TOTAL FREE ENERGY PREDICTED BY IDOCK:   -4.97 KCAL/MOL
REMARK 923 INTER-LIGAND FREE ENERGY PREDICTED BY IDOCK:   -4.08 KCAL/MOL
REMARK 924 INTRA-LIGAND FREE ENERGY PREDICTED BY IDOCK:   -0.88 KCAL/MOL
REMARK 927      BINDING AFFINITY PREDICTED BY RF-SCORE:    0.00 PKD
ROOT
HETATM    1 MG   UNL     1      -9.365   3.746  66.663  1.00  0.00    -0.120 Mg 
HETATM    2  C   UNL     2      -9.047   5.921  72.887  1.00  0.00    -0.121 C  
HETATM    3  O   UNL     2      -8.158   5.019  73.562  1.00  0.00    -0.106 OA 
HETATM    4  C   UNL     3      -8.958   6.378  68.921  1.00  0.00    -0.123 C  
HETATM    5  H   UNL     2     -11.608   2.796  72.058  1.00  0.00     0.000 HD 
HETATM    6  O   UNL     3      -7.936   5.752  69.763  1.00  0.00    -0.096 OA 
HETATM    7  O   UNL     3      -9.534   2.786  68.571  1.00  0.00    -0.192 OA 
HETATM    8  C   UNL     3      -9.641   5.144  68.332  1.00  0.00    -0.139 C  
HETATM    9  C   UNL     2      -8.660   3.754  73.516  1.00  0.00    -0.087 C  
HETATM   10  O   UNL     2     -11.264   5.623  72.018  1.00  0.00    -0.257 OA 
HETATM   11  C   UNL     3      -8.184   4.431  69.936  1.00  0.00    -0.062 C  
HETATM   12  C   UNL     2      -9.977   3.817  72.863  1.00  0.00    -0.147 C  
HETATM   13  O   UNL     2     -10.757   2.755  72.480  1.00  0.00    -0.067 OA 
HETATM   14  O   UNL     2      -8.112   2.758  73.950  1.00  0.00    -0.065 OA 
HETATM   15  C   UNL     2     -10.279   5.083  72.579  1.00  0.00    -0.196 C  
HETATM   16  O   UNL     3     -10.195   5.252  67.202  1.00  0.00    -0.189 OA 
HETATM   17  H   UNL     3     -10.257   2.557  67.998  1.00  0.00     0.000 HD 
HETATM   18  C   UNL     3      -9.302   4.076  69.049  1.00  0.00    -0.169 C  
HETATM   19  O   UNL     3      -7.438   3.594  70.412  1.00  0.00    -0.041 OA 
ENDROOT
BRANCH   2  20
HETATM   20  C   UNL     2      -9.098   7.276  73.605  1.00  0.00    -0.205 C  
HETATM   21  O   UNL     2     -10.256   7.452  74.446  1.00  0.00    -0.377 OA 
HETATM   22  H   UNL     2     -10.288   8.290  74.890  1.00  0.00     0.000 HD 
BRANCH  20  23
HETATM   23  C   UNL     2      -7.839   7.597  74.393  1.00  0.00    -0.188 C  
HETATM   24  H   UNL     2      -6.887   9.220  74.949  1.00  0.00     0.000 HD 
HETATM   25  O   UNL     2      -7.674   9.019  74.456  1.00  0.00    -0.367 OA 
ENDBRANCH  20  23
ENDBRANCH   2  20
BRANCH   4  26
HETATM   26  C   UNL     3      -9.667   7.470  69.768  1.00  0.00    -0.171 C  
HETATM   27  H   UNL     3      -9.095   9.126  70.635  1.00  0.00     0.000 HD 
HETATM   28  O   UNL     3      -8.661   8.458  70.117  1.00  0.00    -0.125 OA 
BRANCH  26  29
HETATM   29  C   UNL     3     -10.894   8.206  69.233  1.00  0.00    -0.050 C  
HETATM   30  O   UNL     3     -12.000   8.152  70.131  1.00  0.00    -0.423 OA 
HETATM   31  H   UNL     3     -12.763   8.609  69.798  1.00  0.00     0.000 HD 
ENDBRANCH  26  29
ENDBRANCH   4  26
TORSDOF 4
ENDMDL
MODEL      109
REMARK 921   NORMALIZED FREE ENERGY PREDICTED BY IDOCK:   -3.18 KCAL/MOL
REMARK 922        TOTAL FREE ENERGY PREDICTED BY IDOCK:   -4.94 KCAL/MOL
REMARK 923 INTER-LIGAND FREE ENERGY PREDICTED BY IDOCK:   -3.78 KCAL/MOL
REMARK 924 INTRA-LIGAND FREE ENERGY PREDICTED BY IDOCK:   -1.15 KCAL/MOL
REMARK 927      BINDING AFFINITY PREDICTED BY RF-SCORE:    0.00 PKD
ROOT
HETATM    1 MG   UNL     1      -9.886   8.171  74.398  1.00  0.00    -0.359 Mg 
HETATM    2  C   UNL     2      -8.567   5.554  68.484  1.00  0.00    -0.102 C  
HETATM    3  O   UNL     2      -7.750   6.523  67.811  1.00  0.00    -0.103 OA 
HETATM    4  C   UNL     3      -8.852   5.453  72.465  1.00  0.00    -0.130 C  
HETATM    5  H   UNL     2     -11.632   8.301  68.744  1.00  0.00     0.000 HD 
HETATM    6  O   UNL     3      -7.845   6.158  71.668  1.00  0.00    -0.100 OA 
HETATM    7  O   UNL     3      -9.982   8.928  72.396  1.00  0.00    -0.251 OA 
HETATM    8  C   UNL     3      -9.768   6.612  72.859  1.00  0.00    -0.154 C  
HETATM    9  C   UNL     2      -8.433   7.693  67.681  1.00  0.00    -0.117 C  
HETATM   10  O   UNL     2     -10.887   5.575  69.101  1.00  0.00    -0.251 OA 
HETATM   11  C   UNL     3      -8.263   7.405  71.340  1.00  0.00    -0.104 C  
HETATM   12  C   UNL     2      -9.791   7.482  68.207  1.00  0.00    -0.163 C  
HETATM   13  O   UNL     2     -10.755   8.438  68.404  1.00  0.00    -0.146 OA 
HETATM   14  O   UNL     2      -7.992   8.722  67.204  1.00  0.00    -0.096 OA 
HETATM   15  C   UNL     2      -9.935   6.213  68.586  1.00  0.00    -0.148 C  
HETATM   16  O   UNL     3     -10.423   6.515  73.935  1.00  0.00    -0.310 OA 
HETATM   17  H   UNL     3     -10.789   9.089  72.871  1.00  0.00     0.000 HD 
HETATM   18  C   UNL     3      -9.512   7.654  72.075  1.00  0.00    -0.153 C  
HETATM   19  O   UNL     3      -7.599   8.304  70.856  1.00  0.00    -0.067 OA 
ENDROOT
BRANCH   2  20
HETATM   20  C   UNL     2      -8.340   4.152  67.904  1.00  0.00    -0.094 C  
HETATM   21  O   UNL     2      -9.235   3.148  68.425  1.00  0.00    -0.146 OA 
HETATM   22  H   UNL     2      -9.094   2.281  68.066  1.00  0.00     0.000 HD 
BRANCH  20  23
HETATM   23  C   UNL     2      -8.351   4.111  66.385  1.00  0.00    -0.105 C  
HETATM   24  H   UNL     2      -9.714   3.999  64.979  1.00  0.00     0.000 HD 
HETATM   25  O   UNL     2      -9.707   4.024  65.928  1.00  0.00    -0.182 OA 
ENDBRANCH  20  23
ENDBRANCH   2  20
BRANCH   4  26
HETATM   26  C   UNL     3      -9.296   4.196  71.668  1.00  0.00    -0.141 C  
HETATM   27  H   UNL     3      -8.359   2.731  70.776  1.00  0.00     0.000 HD 
HETATM   28  O   UNL     3      -8.087   3.500  71.264  1.00  0.00    -0.059 OA 
BRANCH  26  29
HETATM   29  C   UNL     3     -10.255   3.176  72.279  1.00  0.00    -0.103 C  
HETATM   30  O   UNL     3     -10.950   3.687  73.413  1.00  0.00    -0.202 OA 
HETATM   31  H   UNL     3     -11.546   3.053  73.793  1.00  0.00     0.000 HD 
ENDBRANCH  26  29
ENDBRANCH   4  26
TORSDOF 4
ENDMDL
MODEL      110
REMARK 921   NORMALIZED FREE ENERGY PREDICTED BY IDOCK:   -3.18 KCAL/MOL
REMARK 922        TOTAL FREE ENERGY PREDICTED BY IDOCK:   -4.93 KCAL/MOL
REMARK 923 INTER-LIGAND FREE ENERGY PREDICTED BY IDOCK:   -4.52 KCAL/MOL
REMARK 924 INTRA-LIGAND FREE ENERGY PREDICTED BY IDOCK:   -0.41 KCAL/MOL
REMARK 927      BINDING AFFINITY PREDICTED BY RF-SCORE:    0.00 PKD
ROOT
HETATM    1 MG   UNL     1      -8.890   5.617  70.577  1.00  0.00    -0.116 Mg 
HETATM    2  C   UNL     2      -9.629  11.023  66.864  1.00  0.00    -0.182 C  
HETATM    3  O   UNL     2      -9.246  10.632  65.537  1.00  0.00    -0.178 OA 
HETATM    4  C   UNL     3     -10.821   8.350  69.579  1.00  0.00    -0.117 C  
HETATM    5  H   UNL     2      -5.846  10.122  68.237  1.00  0.00     0.000 HD 
HETATM    6  O   UNL     3     -10.703   8.149  68.133  1.00  0.00    -0.147 OA 
HETATM    7  O   UNL     3      -7.644   6.598  69.137  1.00  0.00    -0.096 OA 
HETATM    8  C   UNL     3      -9.556   7.645  70.071  1.00  0.00    -0.164 C  
HETATM    9  C   UNL     2      -7.949  10.216  65.535  1.00  0.00    -0.146 C  
HETATM   10  O   UNL     2      -8.348  11.326  68.871  1.00  0.00    -0.143 OA 
HETATM   11  C   UNL     3      -9.456   7.740  67.794  1.00  0.00    -0.143 C  
HETATM   12  C   UNL     2      -7.410  10.416  66.890  1.00  0.00    -0.106 C  
HETATM   13  O   UNL     2      -6.194   9.993  67.362  1.00  0.00    -0.058 OA 
HETATM   14  O   UNL     2      -7.350   9.769  64.574  1.00  0.00    -0.123 OA 
HETATM   15  C   UNL     2      -8.334  10.985  67.662  1.00  0.00    -0.117 C  
HETATM   16  O   UNL     3      -9.562   7.154  71.235  1.00  0.00    -0.164 OA 
HETATM   17  H   UNL     3      -7.175   6.422  69.945  1.00  0.00     0.000 HD 
HETATM   18  C   UNL     3      -8.730   7.469  69.044  1.00  0.00    -0.136 C  
HETATM   19  O   UNL     3      -9.086   7.307  66.718  1.00  0.00    -0.135 OA 
ENDROOT
BRANCH   2  20
HETATM   20  C   UNL     2     -10.567  12.237  66.824  1.00  0.00    -0.224 C  
HETATM   21  O   UNL     2      -9.926  13.486  67.153  1.00  0.00    -0.239 OA 
HETATM   22  H   UNL     2     -10.507  14.237  67.129  1.00  0.00     0.000 HD 
BRANCH  20  23
HETATM   23  C   UNL     2     -11.326  12.379  65.515  1.00  0.00    -0.346 C  
HETATM   24  H   UNL     2     -12.776  13.508  64.831  1.00  0.00     0.000 HD 
HETATM   25  O   UNL     2     -12.302  13.419  65.649  1.00  0.00    -0.430 OA 
ENDBRANCH  20  23
ENDBRANCH   2  20
BRANCH   4  26
HETATM   26  C   UNL     3     -11.162   9.844  69.826  1.00  0.00    -0.235 C  
HETATM   27  H   UNL     3     -12.169  11.205  68.850  1.00  0.00     0.000 HD 
HETATM   28  O   UNL     3     -11.961  10.291  68.698  1.00  0.00    -0.149 OA 
BRANCH  26  29
HETATM   29  C   UNL     3     -11.856  10.291  71.111  1.00  0.00    -0.362 C  
HETATM   30  O   UNL     3     -11.649   9.383  72.190  1.00  0.00    -0.265 OA 
HETATM   31  H   UNL     3     -12.081   9.660  72.989  1.00  0.00     0.000 HD 
ENDBRANCH  26  29
ENDBRANCH   4  26
TORSDOF 4
ENDMDL
MODEL      111
REMARK 921   NORMALIZED FREE ENERGY PREDICTED BY IDOCK:   -3.17 KCAL/MOL
REMARK 922        TOTAL FREE ENERGY PREDICTED BY IDOCK:   -4.92 KCAL/MOL
REMARK 923 INTER-LIGAND FREE ENERGY PREDICTED BY IDOCK:   -4.04 KCAL/MOL
REMARK 924 INTRA-LIGAND FREE ENERGY PREDICTED BY IDOCK:   -0.88 KCAL/MOL
REMARK 927      BINDING AFFINITY PREDICTED BY RF-SCORE:    0.00 PKD
ROOT
HETATM    1 MG   UNL     1      -7.279   8.813  62.850  1.00  0.00    -0.092 Mg 
HETATM    2  C   UNL     2      -9.027   8.365  69.199  1.00  0.00    -0.147 C  
HETATM    3  O   UNL     2      -8.812   6.992  69.559  1.00  0.00    -0.134 OA 
HETATM    4  C   UNL     3      -7.130  10.045  66.114  1.00  0.00    -0.108 C  
HETATM    5  H   UNL     2     -11.773   7.202  66.350  1.00  0.00     0.000 HD 
HETATM    6  O   UNL     3      -6.793   8.785  66.779  1.00  0.00    -0.068 OA 
HETATM    7  O   UNL     3      -8.514   7.448  63.947  1.00  0.00    -0.363 OA 
HETATM    8  C   UNL     3      -7.822   9.528  64.852  1.00  0.00    -0.119 C  
HETATM    9  C   UNL     2      -9.589   6.185  68.784  1.00  0.00    -0.125 C  
HETATM   10  O   UNL     2     -10.644   9.404  67.762  1.00  0.00    -0.252 OA 
HETATM   11  C   UNL     3      -7.462   7.744  66.226  1.00  0.00    -0.079 C  
HETATM   12  C   UNL     2     -10.422   7.047  67.931  1.00  0.00    -0.214 C  
HETATM   13  O   UNL     2     -11.235   6.646  66.901  1.00  0.00    -0.391 OA 
HETATM   14  O   UNL     2      -9.592   4.968  68.810  1.00  0.00    -0.131 OA 
HETATM   15  C   UNL     2     -10.195   8.326  68.224  1.00  0.00    -0.208 C  
HETATM   16  O   UNL     3      -7.785  10.248  63.814  1.00  0.00    -0.147 OA 
HETATM   17  H   UNL     3      -8.955   7.775  63.172  1.00  0.00     0.000 HD 
HETATM   18  C   UNL     3      -8.145   8.250  65.027  1.00  0.00    -0.148 C  
HETATM   19  O   UNL     3      -7.267   6.556  66.414  1.00  0.00    -0.070 OA 
ENDROOT
BRANCH   2  20
HETATM   20  C   UNL     2      -8.985   9.266  70.440  1.00  0.00    -0.239 C  
HETATM   21  O   UNL     2      -9.761   8.773  71.551  1.00  0.00    -0.236 OA 
HETATM   22  H   UNL     2      -9.735   9.330  72.319  1.00  0.00     0.000 HD 
BRANCH  20  23
HETATM   23  C   UNL     2      -7.577   9.599  70.905  1.00  0.00     0.106 C  
HETATM   24  H   UNL     2      -6.438   9.126  72.430  1.00  0.00     0.000 HD 
HETATM   25  O   UNL     2      -7.317   8.918  72.139  1.00  0.00    -0.320 OA 
ENDBRANCH  20  23
ENDBRANCH   2  20
BRANCH   4  26
HETATM   26  C   UNL     3      -7.783  10.980  67.168  1.00  0.00    -0.131 C  
HETATM   27  H   UNL     3      -7.110  12.076  68.640  1.00  0.00     0.000 HD 
HETATM   28  O   UNL     3      -6.710  11.504  67.995  1.00  0.00    -0.057 OA 
BRANCH  26  29
HETATM   29  C   UNL     3      -8.672  12.147  66.742  1.00  0.00    -0.183 C  
HETATM   30  O   UNL     3      -9.843  12.266  67.544  1.00  0.00    -0.189 OA 
HETATM   31  H   UNL     3     -10.396  12.991  67.279  1.00  0.00     0.000 HD 
ENDBRANCH  26  29
ENDBRANCH   4  26
TORSDOF 4
ENDMDL
MODEL      112
REMARK 921   NORMALIZED FREE ENERGY PREDICTED BY IDOCK:   -3.15 KCAL/MOL
REMARK 922        TOTAL FREE ENERGY PREDICTED BY IDOCK:   -4.90 KCAL/MOL
REMARK 923 INTER-LIGAND FREE ENERGY PREDICTED BY IDOCK:   -4.26 KCAL/MOL
REMARK 924 INTRA-LIGAND FREE ENERGY PREDICTED BY IDOCK:   -0.64 KCAL/MOL
REMARK 927      BINDING AFFINITY PREDICTED BY RF-SCORE:    0.00 PKD
ROOT
HETATM    1 MG   UNL     1      -9.802   3.461  72.632  1.00  0.00    -0.106 Mg 
HETATM    2  C   UNL     2      -9.315   7.670  67.571  1.00  0.00    -0.139 C  
HETATM    3  O   UNL     2      -9.316   6.852  66.392  1.00  0.00    -0.169 OA 
HETATM    4  C   UNL     3     -10.850   6.377  71.023  1.00  0.00    -0.262 C  
HETATM    5  H   UNL     2      -5.875   5.807  68.876  1.00  0.00     0.000 HD 
HETATM    6  O   UNL     3     -11.054   5.799  69.692  1.00  0.00    -0.372 OA 
HETATM    7  O   UNL     3      -8.564   3.529  70.884  1.00  0.00    -0.068 OA 
HETATM    8  C   UNL     3      -9.829   5.401  71.607  1.00  0.00    -0.172 C  
HETATM    9  C   UNL     2      -8.253   6.002  66.419  1.00  0.00    -0.112 C  
HETATM   10  O   UNL     2      -7.685   7.963  69.308  1.00  0.00    -0.095 OA 
HETATM   11  C   UNL     3     -10.092   4.890  69.400  1.00  0.00    -0.200 C  
HETATM   12  C   UNL     2      -7.456   6.315  67.616  1.00  0.00    -0.089 C  
HETATM   13  O   UNL     2      -6.389   5.604  68.103  1.00  0.00    -0.038 OA 
HETATM   14  O   UNL     2      -8.011   5.145  65.589  1.00  0.00    -0.104 OA 
HETATM   15  C   UNL     2      -7.992   7.355  68.253  1.00  0.00    -0.124 C  
HETATM   16  O   UNL     3      -9.800   5.248  72.861  1.00  0.00    -0.153 OA 
HETATM   17  H   UNL     3      -8.051   3.397  71.673  1.00  0.00     0.000 HD 
HETATM   18  C   UNL     3      -9.297   4.687  70.620  1.00  0.00    -0.154 C  
HETATM   19  O   UNL     3     -10.077   4.102  68.472  1.00  0.00     0.008 OA 
ENDROOT
BRANCH   2  20
HETATM   20  C   UNL     2      -9.787   9.094  67.247  1.00  0.00    -0.189 C  
HETATM   21  O   UNL     2     -10.127   9.299  65.861  1.00  0.00    -0.342 OA 
HETATM   22  H   UNL     2     -10.418  10.180  65.660  1.00  0.00     0.000 HD 
BRANCH  20  23
HETATM   23  C   UNL     2     -10.926   9.575  68.131  1.00  0.00    -0.089 C  
HETATM   24  H   UNL     2     -11.240  11.084  69.344  1.00  0.00     0.000 HD 
HETATM   25  O   UNL     2     -10.529  10.783  68.792  1.00  0.00    -0.178 OA 
ENDBRANCH  20  23
ENDBRANCH   2  20
BRANCH   4  26
HETATM   26  C   UNL     3     -10.626   7.904  70.849  1.00  0.00    -0.213 C  
HETATM   27  H   UNL     3     -11.778   9.481  70.917  1.00  0.00     0.000 HD 
HETATM   28  O   UNL     3     -11.916   8.547  71.024  1.00  0.00    -0.284 OA 
BRANCH  26  29
HETATM   29  C   UNL     3      -9.600   8.650  71.700  1.00  0.00    -0.274 C  
HETATM   30  O   UNL     3      -8.990   9.732  71.001  1.00  0.00    -0.344 OA 
HETATM   31  H   UNL     3      -8.352  10.195  71.530  1.00  0.00     0.000 HD 
ENDBRANCH  26  29
ENDBRANCH   4  26
TORSDOF 4
ENDMDL
MODEL      113
REMARK 921   NORMALIZED FREE ENERGY PREDICTED BY IDOCK:   -3.11 KCAL/MOL
REMARK 922        TOTAL FREE ENERGY PREDICTED BY IDOCK:   -4.85 KCAL/MOL
REMARK 923 INTER-LIGAND FREE ENERGY PREDICTED BY IDOCK:   -4.16 KCAL/MOL
REMARK 924 INTRA-LIGAND FREE ENERGY PREDICTED BY IDOCK:   -0.69 KCAL/MOL
REMARK 927      BINDING AFFINITY PREDICTED BY RF-SCORE:    0.00 PKD
ROOT
HETATM    1 MG   UNL     1      -7.245  11.268  64.272  1.00  0.00    -0.338 Mg 
HETATM    2  C   UNL     2      -8.639   9.229  70.393  1.00  0.00    -0.219 C  
HETATM    3  O   UNL     2      -7.588   9.750  71.219  1.00  0.00    -0.231 OA 
HETATM    4  C   UNL     3      -9.546  10.868  66.867  1.00  0.00    -0.178 C  
HETATM    5  H   UNL     2      -5.879   7.071  68.217  1.00  0.00     0.000 HD 
HETATM    6  O   UNL     3      -8.736  11.458  67.935  1.00  0.00    -0.135 OA 
HETATM    7  O   UNL     3      -6.087  10.333  65.815  1.00  0.00    -0.087 OA 
HETATM    8  C   UNL     3      -8.457  10.420  65.893  1.00  0.00    -0.156 C  
HETATM    9  C   UNL     2      -6.388   9.256  70.805  1.00  0.00    -0.074 C  
HETATM   10  O   UNL     2      -8.648   7.513  68.715  1.00  0.00    -0.129 OA 
HETATM   11  C   UNL     3      -7.431  11.111  67.810  1.00  0.00    -0.095 C  
HETATM   12  C   UNL     2      -6.646   8.299  69.717  1.00  0.00    -0.039 C  
HETATM   13  O   UNL     2      -5.712   7.689  68.920  1.00  0.00    -0.022 OA 
HETATM   14  O   UNL     2      -5.302   9.553  71.268  1.00  0.00    -0.047 OA 
HETATM   15  C   UNL     2      -7.959   8.181  69.524  1.00  0.00    -0.113 C  
HETATM   16  O   UNL     3      -8.746  10.352  64.665  1.00  0.00    -0.174 OA 
HETATM   17  H   UNL     3      -5.994   9.882  64.984  1.00  0.00     0.000 HD 
HETATM   18  C   UNL     3      -7.287  10.412  66.524  1.00  0.00    -0.119 C  
HETATM   19  O   UNL     3      -6.480  11.580  68.409  1.00  0.00    -0.050 OA 
ENDROOT
BRANCH   2  20
HETATM   20  C   UNL     2      -9.900   8.956  71.224  1.00  0.00    -0.291 C  
HETATM   21  O   UNL     2     -10.924   8.229  70.516  1.00  0.00    -0.238 OA 
HETATM   22  H   UNL     2     -11.705   8.060  71.029  1.00  0.00     0.000 HD 
BRANCH  20  23
HETATM   23  C   UNL     2      -9.619   8.279  72.555  1.00  0.00    -0.295 C  
HETATM   24  H   UNL     2     -10.568   7.045  73.748  1.00  0.00     0.000 HD 
HETATM   25  O   UNL     2     -10.743   7.468  72.916  1.00  0.00    -0.290 OA 
ENDBRANCH  20  23
ENDBRANCH   2  20
BRANCH   4  26
HETATM   26  C   UNL     3     -10.592   9.929  67.528  1.00  0.00    -0.275 C  
HETATM   27  H   UNL     3     -12.439  10.137  68.133  1.00  0.00     0.000 HD 
HETATM   28  O   UNL     3     -11.799  10.711  67.729  1.00  0.00    -0.460 OA 
BRANCH  26  29
HETATM   29  C   UNL     3     -10.983   8.605  66.875  1.00  0.00     0.337 C  
HETATM   30  O   UNL     3      -9.894   7.984  66.198  1.00  0.00    -0.445 OA 
HETATM   31  H   UNL     3     -10.137   7.161  65.792  1.00  0.00     0.000 HD 
ENDBRANCH  26  29
ENDBRANCH   4  26
TORSDOF 4
ENDMDL
MODEL      114
REMARK 921   NORMALIZED FREE ENERGY PREDICTED BY IDOCK:   -3.11 KCAL/MOL
REMARK 922        TOTAL FREE ENERGY PREDICTED BY IDOCK:   -4.85 KCAL/MOL
REMARK 923 INTER-LIGAND FREE ENERGY PREDICTED BY IDOCK:   -4.27 KCAL/MOL
REMARK 924 INTRA-LIGAND FREE ENERGY PREDICTED BY IDOCK:   -0.57 KCAL/MOL
REMARK 927      BINDING AFFINITY PREDICTED BY RF-SCORE:    0.00 PKD
ROOT
HETATM    1 MG   UNL     1      -6.452   9.633  72.068  1.00  0.00    -0.071 Mg 
HETATM    2  C   UNL     2      -9.461   9.233  66.207  1.00  0.00    -0.224 C  
HETATM    3  O   UNL     2     -10.706   8.565  66.461  1.00  0.00    -0.099 OA 
HETATM    4  C   UNL     3      -7.482  11.150  69.096  1.00  0.00    -0.109 C  
HETATM    5  H   UNL     2      -7.397   5.925  67.552  1.00  0.00     0.000 HD 
HETATM    6  O   UNL     3      -8.876  10.703  69.126  1.00  0.00    -0.164 OA 
HETATM    7  O   UNL     3      -7.422   8.039  71.014  1.00  0.00    -0.066 OA 
HETATM    8  C   UNL     3      -6.815  10.070  69.949  1.00  0.00    -0.108 C  
HETATM    9  C   UNL     2     -10.469   7.324  66.970  1.00  0.00    -0.328 C  
HETATM   10  O   UNL     2      -7.192   8.450  66.250  1.00  0.00    -0.076 OA 
HETATM   11  C   UNL     3      -8.974   9.430  69.583  1.00  0.00    -0.173 C  
HETATM   12  C   UNL     2      -9.012   7.113  66.978  1.00  0.00    -0.129 C  
HETATM   13  O   UNL     2      -8.337   6.062  67.546  1.00  0.00    -0.109 OA 
HETATM   14  O   UNL     2     -11.319   6.536  67.339  1.00  0.00    -0.304 OA 
HETATM   15  C   UNL     2      -8.401   8.167  66.440  1.00  0.00    -0.115 C  
HETATM   16  O   UNL     3      -5.761  10.373  70.577  1.00  0.00    -0.070 OA 
HETATM   17  H   UNL     3      -6.560   7.784  71.322  1.00  0.00     0.000 HD 
HETATM   18  C   UNL     3      -7.640   9.034  70.060  1.00  0.00    -0.072 C  
HETATM   19  O   UNL     3      -9.986   8.837  69.907  1.00  0.00    -0.179 OA 
ENDROOT
BRANCH   2  20
HETATM   20  C   UNL     2      -9.548  10.081  64.931  1.00  0.00    -0.310 C  
HETATM   21  O   UNL     2      -9.456   9.317  63.711  1.00  0.00    -0.372 OA 
HETATM   22  H   UNL     2      -9.510   9.841  62.922  1.00  0.00     0.000 HD 
BRANCH  20  23
HETATM   23  C   UNL     2     -10.769  10.984  64.880  1.00  0.00    -0.208 C  
HETATM   24  H   UNL     2     -11.762  12.101  66.151  1.00  0.00     0.000 HD 
HETATM   25  O   UNL     2     -10.998  11.536  66.183  1.00  0.00    -0.287 OA 
ENDBRANCH  20  23
ENDBRANCH   2  20
BRANCH   4  26
HETATM   26  C   UNL     3      -7.117  11.473  67.622  1.00  0.00    -0.098 C  
HETATM   27  H   UNL     3      -7.739  12.776  66.305  1.00  0.00     0.000 HD 
HETATM   28  O   UNL     3      -7.962  12.579  67.207  1.00  0.00    -0.171 OA 
BRANCH  26  29
HETATM   29  C   UNL     3      -5.679  11.793  67.219  1.00  0.00    -0.118 C  
HETATM   30  O   UNL     3      -5.356  13.171  67.387  1.00  0.00    -0.315 OA 
HETATM   31  H   UNL     3      -4.462  13.370  67.136  1.00  0.00     0.000 HD 
ENDBRANCH  26  29
ENDBRANCH   4  26
TORSDOF 4
ENDMDL
MODEL      115
REMARK 921   NORMALIZED FREE ENERGY PREDICTED BY IDOCK:   -3.10 KCAL/MOL
REMARK 922        TOTAL FREE ENERGY PREDICTED BY IDOCK:   -4.84 KCAL/MOL
REMARK 923 INTER-LIGAND FREE ENERGY PREDICTED BY IDOCK:   -3.76 KCAL/MOL
REMARK 924 INTRA-LIGAND FREE ENERGY PREDICTED BY IDOCK:   -1.08 KCAL/MOL
REMARK 927      BINDING AFFINITY PREDICTED BY RF-SCORE:    0.00 PKD
ROOT
HETATM    1 MG   UNL     1     -10.555   3.803  74.060  1.00  0.00    -0.118 Mg 
HETATM    2  C   UNL     2      -8.389   6.760  68.571  1.00  0.00    -0.120 C  
HETATM    3  O   UNL     2      -8.083   5.695  67.658  1.00  0.00    -0.101 OA 
HETATM    4  C   UNL     3     -10.936   6.256  71.603  1.00  0.00    -0.261 C  
HETATM    5  H   UNL     2      -5.583   5.311  71.224  1.00  0.00     0.000 HD 
HETATM    6  O   UNL     3     -10.766   5.386  70.437  1.00  0.00    -0.274 OA 
HETATM    7  O   UNL     3      -8.855   3.496  72.793  1.00  0.00    -0.088 OA 
HETATM    8  C   UNL     3     -10.183   5.458  72.668  1.00  0.00    -0.185 C  
HETATM    9  C   UNL     2      -7.118   4.895  68.190  1.00  0.00    -0.062 C  
HETATM   10  O   UNL     2      -7.331   7.473  70.604  1.00  0.00    -0.066 OA 
HETATM   11  C   UNL     3      -9.807   4.454  70.655  1.00  0.00    -0.210 C  
HETATM   12  C   UNL     2      -6.696   5.488  69.469  1.00  0.00    -0.059 C  
HETATM   13  O   UNL     2      -5.856   4.928  70.398  1.00  0.00    -0.015 OA 
HETATM   14  O   UNL     2      -6.684   3.876  67.683  1.00  0.00    -0.042 OA 
HETATM   15  C   UNL     2      -7.343   6.635  69.668  1.00  0.00    -0.083 C  
HETATM   16  O   UNL     3     -10.533   5.595  73.875  1.00  0.00    -0.245 OA 
HETATM   17  H   UNL     3      -8.605   3.558  73.707  1.00  0.00     0.000 HD 
HETATM   18  C   UNL     3      -9.419   4.549  72.070  1.00  0.00    -0.143 C  
HETATM   19  O   UNL     3      -9.558   3.475  69.974  1.00  0.00    -0.188 OA 
ENDROOT
BRANCH   2  20
HETATM   20  C   UNL     2      -8.674   8.063  67.812  1.00  0.00    -0.127 C  
HETATM   21  O   UNL     2      -9.374   9.055  68.590  1.00  0.00    -0.137 OA 
HETATM   22  H   UNL     2      -9.550   9.861  68.121  1.00  0.00     0.000 HD 
BRANCH  20  23
HETATM   23  C   UNL     2      -7.439   8.684  67.181  1.00  0.00    -0.088 C  
HETATM   24  H   UNL     2      -7.072   9.962  65.739  1.00  0.00     0.000 HD 
HETATM   25  O   UNL     2      -7.844   9.573  66.133  1.00  0.00    -0.099 OA 
ENDBRANCH  20  23
ENDBRANCH   2  20
BRANCH   4  26
HETATM   26  C   UNL     3     -10.595   7.707  71.169  1.00  0.00    -0.221 C  
HETATM   27  H   UNL     3     -11.500   9.073  70.104  1.00  0.00     0.000 HD 
HETATM   28  O   UNL     3     -11.710   8.185  70.370  1.00  0.00    -0.153 OA 
BRANCH  26  29
HETATM   29  C   UNL     3     -10.254   8.778  72.203  1.00  0.00    -0.301 C  
HETATM   30  O   UNL     3      -8.896   8.713  72.632  1.00  0.00    -0.371 OA 
HETATM   31  H   UNL     3      -8.684   9.379  73.275  1.00  0.00     0.000 HD 
ENDBRANCH  26  29
ENDBRANCH   4  26
TORSDOF 4
ENDMDL
MODEL      116
REMARK 921   NORMALIZED FREE ENERGY PREDICTED BY IDOCK:   -3.09 KCAL/MOL
REMARK 922        TOTAL FREE ENERGY PREDICTED BY IDOCK:   -4.82 KCAL/MOL
REMARK 923 INTER-LIGAND FREE ENERGY PREDICTED BY IDOCK:   -3.75 KCAL/MOL
REMARK 924 INTRA-LIGAND FREE ENERGY PREDICTED BY IDOCK:   -1.08 KCAL/MOL
REMARK 927      BINDING AFFINITY PREDICTED BY RF-SCORE:    0.00 PKD
ROOT
HETATM    1 MG   UNL     1      -9.304   8.773  63.405  1.00  0.00    -0.423 Mg 
HETATM    2  C   UNL     2      -8.422   7.616  69.843  1.00  0.00    -0.137 C  
HETATM    3  O   UNL     2      -9.741   7.540  70.402  1.00  0.00    -0.179 OA 
HETATM    4  C   UNL     3      -7.749   6.972  65.960  1.00  0.00    -0.099 C  
HETATM    5  H   UNL     2      -9.133  11.501  68.656  1.00  0.00     0.000 HD 
HETATM    6  O   UNL     3      -8.956   6.633  66.717  1.00  0.00    -0.124 OA 
HETATM    7  O   UNL     3     -10.118   9.645  65.185  1.00  0.00    -0.387 OA 
HETATM    8  C   UNL     3      -8.213   8.233  65.230  1.00  0.00    -0.148 C  
HETATM    9  C   UNL     2     -10.393   8.719  70.207  1.00  0.00    -0.203 C  
HETATM   10  O   UNL     2      -7.169   9.459  68.953  1.00  0.00    -0.070 OA 
HETATM   11  C   UNL     3      -9.833   7.666  66.732  1.00  0.00    -0.237 C  
HETATM   12  C   UNL     2      -9.452   9.654  69.571  1.00  0.00    -0.199 C  
HETATM   13  O   UNL     2      -9.741  10.897  69.067  1.00  0.00    -0.202 OA 
HETATM   14  O   UNL     2     -11.548   8.950  70.518  1.00  0.00    -0.249 OA 
HETATM   15  C   UNL     2      -8.260   9.074  69.442  1.00  0.00    -0.117 C  
HETATM   16  O   UNL     3      -7.672   8.513  64.123  1.00  0.00    -0.119 OA 
HETATM   17  H   UNL     3      -9.783  10.307  64.591  1.00  0.00     0.000 HD 
HETATM   18  C   UNL     3      -9.316   8.691  65.813  1.00  0.00    -0.158 C  
HETATM   19  O   UNL     3     -10.993   7.647  67.102  1.00  0.00    -0.266 OA 
ENDROOT
BRANCH   2  20
HETATM   20  C   UNL     2      -7.414   6.858  70.718  1.00  0.00    -0.082 C  
HETATM   21  O   UNL     2      -6.073   6.840  70.189  1.00  0.00    -0.023 OA 
HETATM   22  H   UNL     2      -5.450   6.371  70.730  1.00  0.00     0.000 HD 
BRANCH  20  23
HETATM   23  C   UNL     2      -7.389   7.326  72.164  1.00  0.00    -0.079 C  
HETATM   24  H   UNL     2      -7.821   6.551  73.913  1.00  0.00     0.000 HD 
HETATM   25  O   UNL     2      -7.836   6.259  73.010  1.00  0.00    -0.103 OA 
ENDBRANCH  20  23
ENDBRANCH   2  20
BRANCH   4  26
HETATM   26  C   UNL     3      -6.541   6.899  66.934  1.00  0.00    -0.047 C  
HETATM   27  H   UNL     3      -5.577   5.450  67.823  1.00  0.00     0.000 HD 
HETATM   28  O   UNL     3      -6.316   5.495  67.228  1.00  0.00    -0.036 OA 
BRANCH  26  29
HETATM   29  C   UNL     3      -5.199   7.533  66.571  1.00  0.00    -0.024 C  
HETATM   30  O   UNL     3      -5.280   8.950  66.443  1.00  0.00    -0.033 OA 
HETATM   31  H   UNL     3      -4.446   9.345  66.218  1.00  0.00     0.000 HD 
ENDBRANCH  26  29
ENDBRANCH   4  26
TORSDOF 4
ENDMDL
MODEL      117
REMARK 921   NORMALIZED FREE ENERGY PREDICTED BY IDOCK:   -3.07 KCAL/MOL
REMARK 922        TOTAL FREE ENERGY PREDICTED BY IDOCK:   -4.80 KCAL/MOL
REMARK 923 INTER-LIGAND FREE ENERGY PREDICTED BY IDOCK:   -4.03 KCAL/MOL
REMARK 924 INTRA-LIGAND FREE ENERGY PREDICTED BY IDOCK:   -0.77 KCAL/MOL
REMARK 927      BINDING AFFINITY PREDICTED BY RF-SCORE:    0.00 PKD
ROOT
HETATM    1 MG   UNL     1     -10.288  11.022  70.383  1.00  0.00    -0.418 Mg 
HETATM    2  C   UNL     2      -8.964   4.710  68.980  1.00  0.00    -0.110 C  
HETATM    3  O   UNL     2      -9.896   3.942  69.755  1.00  0.00    -0.195 OA 
HETATM    4  C   UNL     3      -9.669   8.522  68.025  1.00  0.00    -0.154 C  
HETATM    5  H   UNL     2      -7.374   6.297  72.438  1.00  0.00     0.000 HD 
HETATM    6  O   UNL     3     -10.635   7.543  68.527  1.00  0.00    -0.195 OA 
HETATM    7  O   UNL     3      -9.996   9.273  71.587  1.00  0.00    -0.294 OA 
HETATM    8  C   UNL     3      -9.403   9.337  69.291  1.00  0.00    -0.160 C  
HETATM    9  C   UNL     2      -9.711   4.192  71.081  1.00  0.00    -0.188 C  
HETATM   10  O   UNL     2      -7.069   6.036  69.618  1.00  0.00    -0.064 OA 
HETATM   11  C   UNL     3     -10.666   7.532  69.882  1.00  0.00    -0.246 C  
HETATM   12  C   UNL     2      -8.556   5.095  71.210  1.00  0.00    -0.127 C  
HETATM   13  O   UNL     2      -8.120   5.714  72.354  1.00  0.00    -0.106 OA 
HETATM   14  O   UNL     2     -10.382   3.737  71.988  1.00  0.00    -0.131 OA 
HETATM   15  C   UNL     2      -8.032   5.331  70.009  1.00  0.00    -0.080 C  
HETATM   16  O   UNL     3      -9.054  10.544  69.160  1.00  0.00    -0.178 OA 
HETATM   17  H   UNL     3      -9.461   9.999  71.887  1.00  0.00     0.000 HD 
HETATM   18  C   UNL     3      -9.838   8.655  70.346  1.00  0.00    -0.183 C  
HETATM   19  O   UNL     3     -11.482   6.982  70.599  1.00  0.00    -0.292 OA 
ENDROOT
BRANCH   2  20
HETATM   20  C   UNL     2      -8.477   3.909  67.764  1.00  0.00    -0.095 C  
HETATM   21  O   UNL     2      -8.052   2.567  68.077  1.00  0.00    -0.058 OA 
HETATM   22  H   UNL     2      -7.751   2.072  67.325  1.00  0.00     0.000 HD 
BRANCH  20  23
HETATM   23  C   UNL     2      -9.472   3.878  66.616  1.00  0.00    -0.199 C  
HETATM   24  H   UNL     2      -9.446   4.315  64.704  1.00  0.00     0.000 HD 
HETATM   25  O   UNL     2      -8.824   4.335  65.422  1.00  0.00    -0.122 OA 
ENDBRANCH  20  23
ENDBRANCH   2  20
BRANCH   4  26
HETATM   26  C   UNL     3      -8.588   7.753  67.217  1.00  0.00    -0.128 C  
HETATM   27  H   UNL     3      -8.493   7.004  65.414  1.00  0.00     0.000 HD 
HETATM   28  O   UNL     3      -9.154   7.474  65.909  1.00  0.00    -0.137 OA 
BRANCH  26  29
HETATM   29  C   UNL     3      -7.191   8.337  67.019  1.00  0.00    -0.083 C  
HETATM   30  O   UNL     3      -7.207   9.751  66.844  1.00  0.00    -0.089 OA 
HETATM   31  H   UNL     3      -6.338  10.115  66.720  1.00  0.00     0.000 HD 
ENDBRANCH  26  29
ENDBRANCH   4  26
TORSDOF 4
ENDMDL
MODEL      118
REMARK 921   NORMALIZED FREE ENERGY PREDICTED BY IDOCK:   -3.04 KCAL/MOL
REMARK 922        TOTAL FREE ENERGY PREDICTED BY IDOCK:   -4.76 KCAL/MOL
REMARK 923 INTER-LIGAND FREE ENERGY PREDICTED BY IDOCK:   -4.11 KCAL/MOL
REMARK 924 INTRA-LIGAND FREE ENERGY PREDICTED BY IDOCK:   -0.66 KCAL/MOL
REMARK 927      BINDING AFFINITY PREDICTED BY RF-SCORE:    0.00 PKD
ROOT
HETATM    1 MG   UNL     1      -9.400  11.138  65.428  1.00  0.00    -0.177 Mg 
HETATM    2  C   UNL     2      -8.757   6.828  70.385  1.00  0.00    -0.151 C  
HETATM    3  O   UNL     2      -8.609   7.626  71.569  1.00  0.00    -0.113 OA 
HETATM    4  C   UNL     3     -10.491   8.267  67.089  1.00  0.00    -0.316 C  
HETATM    5  H   UNL     2      -5.328   8.496  68.816  1.00  0.00     0.000 HD 
HETATM    6  O   UNL     3     -10.546   8.835  68.438  1.00  0.00    -0.207 OA 
HETATM    7  O   UNL     3      -8.028  10.967  67.065  1.00  0.00    -0.122 OA 
HETATM    8  C   UNL     3      -9.463   9.188  66.431  1.00  0.00    -0.227 C  
HETATM    9  C   UNL     2      -7.501   8.409  71.462  1.00  0.00    -0.098 C  
HETATM   10  O   UNL     2      -7.299   6.463  68.515  1.00  0.00    -0.082 OA 
HETATM   11  C   UNL     3      -9.508   9.679  68.658  1.00  0.00    -0.146 C  
HETATM   12  C   UNL     2      -6.828   8.066  70.199  1.00  0.00    -0.041 C  
HETATM   13  O   UNL     2      -5.763   8.718  69.632  1.00  0.00    -0.029 OA 
HETATM   14  O   UNL     2      -7.137   9.237  72.278  1.00  0.00    -0.300 OA 
HETATM   15  C   UNL     2      -7.478   7.072  69.599  1.00  0.00    -0.098 C  
HETATM   16  O   UNL     3      -9.529   9.358  65.181  1.00  0.00    -0.259 OA 
HETATM   17  H   UNL     3      -7.575  11.079  66.237  1.00  0.00     0.000 HD 
HETATM   18  C   UNL     3      -8.807   9.852  67.378  1.00  0.00    -0.132 C  
HETATM   19  O   UNL     3      -9.367  10.450  69.590  1.00  0.00    -0.174 OA 
ENDROOT
BRANCH   2  20
HETATM   20  C   UNL     2      -9.289   5.431  70.733  1.00  0.00    -0.159 C  
HETATM   21  O   UNL     2     -10.712   5.283  70.553  1.00  0.00    -0.239 OA 
HETATM   22  H   UNL     2     -11.041   4.419  70.769  1.00  0.00     0.000 HD 
BRANCH  20  23
HETATM   23  C   UNL     2      -8.562   4.306  70.016  1.00  0.00    -0.068 C  
HETATM   24  H   UNL     2      -8.921   3.132  68.486  1.00  0.00     0.000 HD 
HETATM   25  O   UNL     2      -9.375   3.835  68.935  1.00  0.00    -0.145 OA 
ENDBRANCH  20  23
ENDBRANCH   2  20
BRANCH   4  26
HETATM   26  C   UNL     3     -10.348   6.727  67.228  1.00  0.00    -0.244 C  
HETATM   27  H   UNL     3     -11.306   5.340  68.218  1.00  0.00     0.000 HD 
HETATM   28  O   UNL     3     -11.393   6.282  68.133  1.00  0.00    -0.278 OA 
BRANCH  26  29
HETATM   29  C   UNL     3     -10.364   5.822  65.997  1.00  0.00     0.133 C  
HETATM   30  O   UNL     3     -10.993   4.567  66.248  1.00  0.00    -0.431 OA 
HETATM   31  H   UNL     3     -11.002   4.004  65.483  1.00  0.00     0.000 HD 
ENDBRANCH  26  29
ENDBRANCH   4  26
TORSDOF 4
ENDMDL
MODEL      119
REMARK 921   NORMALIZED FREE ENERGY PREDICTED BY IDOCK:   -3.01 KCAL/MOL
REMARK 922        TOTAL FREE ENERGY PREDICTED BY IDOCK:   -4.72 KCAL/MOL
REMARK 923 INTER-LIGAND FREE ENERGY PREDICTED BY IDOCK:   -4.00 KCAL/MOL
REMARK 924 INTRA-LIGAND FREE ENERGY PREDICTED BY IDOCK:   -0.72 KCAL/MOL
REMARK 927      BINDING AFFINITY PREDICTED BY RF-SCORE:    0.00 PKD
ROOT
HETATM    1 MG   UNL     1      -8.024  10.607  70.613  1.00  0.00    -0.300 Mg 
HETATM    2  C   UNL     2      -9.204   4.472  68.483  1.00  0.00    -0.133 C  
HETATM    3  O   UNL     2      -8.628   4.406  67.170  1.00  0.00    -0.104 OA 
HETATM    4  C   UNL     3      -7.989   7.161  71.173  1.00  0.00    -0.102 C  
HETATM    5  H   UNL     2     -11.740   7.475  67.232  1.00  0.00     0.000 HD 
HETATM    6  O   UNL     3      -7.304   6.773  69.938  1.00  0.00    -0.084 OA 
HETATM    7  O   UNL     3      -8.803   9.805  68.785  1.00  0.00    -0.122 OA 
HETATM    8  C   UNL     3      -8.605   8.496  70.753  1.00  0.00    -0.154 C  
HETATM    9  C   UNL     2      -9.223   5.323  66.358  1.00  0.00    -0.144 C  
HETATM   10  O   UNL     2     -11.118   5.649  69.328  1.00  0.00    -0.274 OA 
HETATM   11  C   UNL     3      -7.721   7.523  68.889  1.00  0.00    -0.115 C  
HETATM   12  C   UNL     2     -10.298   5.973  67.125  1.00  0.00    -0.230 C  
HETATM   13  O   UNL     2     -11.045   7.056  66.737  1.00  0.00    -0.289 OA 
HETATM   14  O   UNL     2      -8.916   5.549  65.202  1.00  0.00    -0.129 OA 
HETATM   15  C   UNL     2     -10.383   5.424  68.335  1.00  0.00    -0.146 C  
HETATM   16  O   UNL     3      -8.815   9.363  71.648  1.00  0.00    -0.243 OA 
HETATM   17  H   UNL     3      -9.361  10.492  69.133  1.00  0.00     0.000 HD 
HETATM   18  C   UNL     3      -8.583   8.586  69.427  1.00  0.00    -0.128 C  
HETATM   19  O   UNL     3      -7.221   7.586  67.780  1.00  0.00    -0.088 OA 
ENDROOT
BRANCH   2  20
HETATM   20  C   UNL     2      -9.314   3.072  69.101  1.00  0.00    -0.149 C  
HETATM   21  O   UNL     2      -9.734   2.052  68.173  1.00  0.00    -0.330 OA 
HETATM   22  H   UNL     2      -9.803   1.185  68.556  1.00  0.00     0.000 HD 
BRANCH  20  23
HETATM   23  C   UNL     2      -8.054   2.623  69.823  1.00  0.00    -0.041 C  
HETATM   24  H   UNL     2      -6.209   3.266  69.988  1.00  0.00     0.000 HD 
HETATM   25  O   UNL     2      -6.996   3.547  69.537  1.00  0.00    -0.041 OA 
ENDBRANCH  20  23
ENDBRANCH   2  20
BRANCH   4  26
HETATM   26  C   UNL     3      -8.790   5.930  71.679  1.00  0.00    -0.139 C  
HETATM   27  H   UNL     3      -8.362   4.361  72.763  1.00  0.00     0.000 HD 
HETATM   28  O   UNL     3      -7.871   5.114  72.453  1.00  0.00    -0.098 OA 
BRANCH  26  29
HETATM   29  C   UNL     3     -10.073   6.106  72.489  1.00  0.00    -0.178 C  
HETATM   30  O   UNL     3      -9.960   7.123  73.481  1.00  0.00    -0.235 OA 
HETATM   31  H   UNL     3     -10.758   7.232  73.985  1.00  0.00     0.000 HD 
ENDBRANCH  26  29
ENDBRANCH   4  26
TORSDOF 4
ENDMDL
MODEL      120
REMARK 921   NORMALIZED FREE ENERGY PREDICTED BY IDOCK:   -2.87 KCAL/MOL
REMARK 922        TOTAL FREE ENERGY PREDICTED BY IDOCK:   -4.56 KCAL/MOL
REMARK 923 INTER-LIGAND FREE ENERGY PREDICTED BY IDOCK:   -3.66 KCAL/MOL
REMARK 924 INTRA-LIGAND FREE ENERGY PREDICTED BY IDOCK:   -0.89 KCAL/MOL
REMARK 927      BINDING AFFINITY PREDICTED BY RF-SCORE:    0.00 PKD
ROOT
HETATM    1 MG   UNL     1      -7.827   8.941  73.895  1.00  0.00    -0.172 Mg 
HETATM    2  C   UNL     2      -9.092   4.871  68.855  1.00  0.00    -0.112 C  
HETATM    3  O   UNL     2      -9.410   5.724  67.745  1.00  0.00    -0.106 OA 
HETATM    4  C   UNL     3      -6.942   6.176  71.956  1.00  0.00    -0.078 C  
HETATM    5  H   UNL     2     -12.294   6.398  70.960  1.00  0.00     0.000 HD 
HETATM    6  O   UNL     3      -7.077   6.812  70.643  1.00  0.00    -0.065 OA 
HETATM    7  O   UNL     3      -9.408   8.826  72.454  1.00  0.00    -0.331 OA 
HETATM    8  C   UNL     3      -7.880   7.044  72.794  1.00  0.00    -0.098 C  
HETATM    9  C   UNL     2     -10.502   6.481  68.042  1.00  0.00    -0.216 C  
HETATM   10  O   UNL     2     -10.278   4.387  70.885  1.00  0.00    -0.164 OA 
HETATM   11  C   UNL     3      -8.145   7.646  70.609  1.00  0.00    -0.108 C  
HETATM   12  C   UNL     2     -10.992   6.064  69.365  1.00  0.00    -0.385 C  
HETATM   13  O   UNL     2     -11.977   6.667  70.105  1.00  0.00    -0.367 OA 
HETATM   14  O   UNL     2     -10.983   7.341  67.327  1.00  0.00    -0.293 OA 
HETATM   15  C   UNL     2     -10.255   5.052  69.820  1.00  0.00    -0.266 C  
HETATM   16  O   UNL     3      -7.646   7.154  74.031  1.00  0.00    -0.103 OA 
HETATM   17  H   UNL     3      -9.745   8.889  73.340  1.00  0.00     0.000 HD 
HETATM   18  C   UNL     3      -8.667   7.743  71.981  1.00  0.00    -0.126 C  
HETATM   19  O   UNL     3      -8.421   8.460  69.747  1.00  0.00    -0.122 OA 
ENDROOT
BRANCH   2  20
HETATM   20  C   UNL     2      -8.598   3.503  68.367  1.00  0.00    -0.093 C  
HETATM   21  O   UNL     2      -8.672   2.462  69.363  1.00  0.00    -0.066 OA 
HETATM   22  H   UNL     2      -8.365   1.616  69.062  1.00  0.00     0.000 HD 
BRANCH  20  23
HETATM   23  C   UNL     2      -9.265   3.034  67.085  1.00  0.00    -0.175 C  
HETATM   24  H   UNL     2      -8.677   2.512  65.288  1.00  0.00     0.000 HD 
HETATM   25  O   UNL     2      -8.260   2.805  66.090  1.00  0.00    -0.082 OA 
ENDBRANCH  20  23
ENDBRANCH   2  20
BRANCH   4  26
HETATM   26  C   UNL     3      -7.085   4.642  71.759  1.00  0.00    -0.060 C  
HETATM   27  H   UNL     3      -6.016   3.263  70.879  1.00  0.00     0.000 HD 
HETATM   28  O   UNL     3      -5.928   4.201  70.999  1.00  0.00    -0.013 OA 
BRANCH  26  29
HETATM   29  C   UNL     3      -7.256   3.708  72.955  1.00  0.00    -0.054 C  
HETATM   30  O   UNL     3      -6.267   2.683  72.997  1.00  0.00    -0.008 OA 
HETATM   31  H   UNL     3      -6.373   2.102  73.740  1.00  0.00     0.000 HD 
ENDBRANCH  26  29
ENDBRANCH   4  26
TORSDOF 4
ENDMDL
MODEL      121
REMARK 921   NORMALIZED FREE ENERGY PREDICTED BY IDOCK:   -2.86 KCAL/MOL
REMARK 922        TOTAL FREE ENERGY PREDICTED BY IDOCK:   -4.54 KCAL/MOL
REMARK 923 INTER-LIGAND FREE ENERGY PREDICTED BY IDOCK:   -3.96 KCAL/MOL
REMARK 924 INTRA-LIGAND FREE ENERGY PREDICTED BY IDOCK:   -0.59 KCAL/MOL
REMARK 927      BINDING AFFINITY PREDICTED BY RF-SCORE:    0.00 PKD
ROOT
HETATM    1 MG   UNL     1     -10.865  12.468  62.696  1.00  0.00    -0.588 Mg 
HETATM    2  C   UNL     2      -8.192  11.747  68.688  1.00  0.00    -0.091 C  
HETATM    3  O   UNL     2      -8.884  12.681  69.530  1.00  0.00     1.103 OA 
HETATM    4  C   UNL     3      -9.800  10.392  65.294  1.00  0.00    -0.297 C  
HETATM    5  H   UNL     2      -6.847  14.853  66.330  1.00  0.00     0.000 HD 
HETATM    6  O   UNL     3     -10.490  11.083  66.386  1.00  0.00    -0.246 OA 
HETATM    7  O   UNL     3     -10.121  13.850  64.155  1.00  0.00    -0.681 OA 
HETATM    8  C   UNL     3      -9.669  11.525  64.275  1.00  0.00    -0.202 C  
HETATM    9  C   UNL     2      -8.699  13.947  69.066  1.00  0.00     0.222 C  
HETATM   10  O   UNL     2      -6.625  12.071  66.899  1.00  0.00    -0.134 OA 
HETATM   11  C   UNL     3     -10.453  12.427  66.218  1.00  0.00    -0.245 C  
HETATM   12  C   UNL     2      -7.777  13.876  67.921  1.00  0.00    -0.160 C  
HETATM   13  O   UNL     2      -7.442  14.899  67.070  1.00  0.00    -0.145 OA 
HETATM   14  O   UNL     2      -9.203  14.953  69.531  1.00  0.00    -0.101 OA 
HETATM   15  C   UNL     2      -7.379  12.618  67.741  1.00  0.00    -0.128 C  
HETATM   16  O   UNL     3      -9.614  11.221  63.050  1.00  0.00    -0.335 OA 
HETATM   17  H   UNL     3      -9.754  14.017  63.294  1.00  0.00     0.000 HD 
HETATM   18  C   UNL     3      -9.885  12.686  64.886  1.00  0.00    -0.055 C  
HETATM   19  O   UNL     3     -11.085  13.267  66.832  1.00  0.00    -0.279 OA 
ENDROOT
BRANCH   2  20
HETATM   20  C   UNL     2      -7.593  10.605  69.518  1.00  0.00    -0.124 C  
HETATM   21  O   UNL     2      -6.800  11.046  70.639  1.00  0.00    -0.460 OA 
HETATM   22  H   UNL     2      -6.429  10.340  71.153  1.00  0.00     0.000 HD 
BRANCH  20  23
HETATM   23  C   UNL     2      -8.619   9.586  69.985  1.00  0.00    -0.215 C  
HETATM   24  H   UNL     2      -9.171   8.812  71.701  1.00  0.00     0.000 HD 
HETATM   25  O   UNL     2      -8.529   9.449  71.409  1.00  0.00    -0.293 OA 
ENDBRANCH  20  23
ENDBRANCH   2  20
BRANCH   4  26
HETATM   26  C   UNL     3      -8.612   9.602  65.906  1.00  0.00    -0.134 C  
HETATM   27  H   UNL     3      -8.448   7.980  66.984  1.00  0.00     0.000 HD 
HETATM   28  O   UNL     3      -9.175   8.463  66.609  1.00  0.00    -0.157 OA 
BRANCH  26  29
HETATM   29  C   UNL     3      -7.464   9.104  65.031  1.00  0.00    -0.105 C  
HETATM   30  O   UNL     3      -7.723   9.273  63.639  1.00  0.00    -0.108 OA 
HETATM   31  H   UNL     3      -7.009   8.963  63.094  1.00  0.00     0.000 HD 
ENDBRANCH  26  29
ENDBRANCH   4  26
TORSDOF 4
ENDMDL
MODEL      122
REMARK 921   NORMALIZED FREE ENERGY PREDICTED BY IDOCK:   -2.83 KCAL/MOL
REMARK 922        TOTAL FREE ENERGY PREDICTED BY IDOCK:   -4.50 KCAL/MOL
REMARK 923 INTER-LIGAND FREE ENERGY PREDICTED BY IDOCK:   -3.64 KCAL/MOL
REMARK 924 INTRA-LIGAND FREE ENERGY PREDICTED BY IDOCK:   -0.86 KCAL/MOL
REMARK 927      BINDING AFFINITY PREDICTED BY RF-SCORE:    0.00 PKD
ROOT
HETATM    1 MG   UNL     1      -8.817   7.508  66.163  1.00  0.00    -0.115 Mg 
HETATM    2  C   UNL     2     -10.287   5.506  72.278  1.00  0.00    -0.210 C  
HETATM    3  O   UNL     2     -11.451   6.256  72.657  1.00  0.00    -0.267 OA 
HETATM    4  C   UNL     3      -9.325   4.918  68.449  1.00  0.00    -0.131 C  
HETATM    5  H   UNL     2      -8.154   9.010  71.850  1.00  0.00     0.000 HD 
HETATM    6  O   UNL     3     -10.611   5.378  68.977  1.00  0.00    -0.217 OA 
HETATM    7  O   UNL     3      -9.282   8.542  67.981  1.00  0.00    -0.137 OA 
HETATM    8  C   UNL     3      -8.732   6.235  67.948  1.00  0.00    -0.114 C  
HETATM    9  C   UNL     2     -11.169   7.588  72.638  1.00  0.00    -0.348 C  
HETATM   10  O   UNL     2      -8.005   6.167  71.938  1.00  0.00    -0.105 OA 
HETATM   11  C   UNL     3     -10.634   6.727  69.106  1.00  0.00    -0.232 C  
HETATM   12  C   UNL     2      -9.740   7.740  72.320  1.00  0.00    -0.186 C  
HETATM   13  O   UNL     2      -9.077   8.912  72.056  1.00  0.00    -0.353 OA 
HETATM   14  O   UNL     2     -11.964   8.483  72.856  1.00  0.00    -0.243 OA 
HETATM   15  C   UNL     2      -9.173   6.541  72.209  1.00  0.00    -0.138 C  
HETATM   16  O   UNL     3      -7.907   6.192  66.992  1.00  0.00    -0.099 OA 
HETATM   17  H   UNL     3      -8.489   8.878  67.580  1.00  0.00     0.000 HD 
HETATM   18  C   UNL     3      -9.407   7.247  68.484  1.00  0.00    -0.141 C  
HETATM   19  O   UNL     3     -11.602   7.431  69.331  1.00  0.00     0.175 OA 
ENDROOT
BRANCH   2  20
HETATM   20  C   UNL     2     -10.190   4.205  73.086  1.00  0.00    -0.157 C  
HETATM   21  O   UNL     2      -9.704   3.078  72.328  1.00  0.00    -0.133 OA 
HETATM   22  H   UNL     2      -9.644   2.273  72.828  1.00  0.00     0.000 HD 
BRANCH  20  23
HETATM   23  C   UNL     2      -9.392   4.342  74.371  1.00  0.00    -0.110 C  
HETATM   24  H   UNL     2      -7.675   3.682  75.052  1.00  0.00     0.000 HD 
HETATM   25  O   UNL     2      -8.174   3.596  74.249  1.00  0.00    -0.080 OA 
ENDBRANCH  20  23
ENDBRANCH   2  20
BRANCH   4  26
HETATM   26  C   UNL     3      -8.674   3.996  69.516  1.00  0.00    -0.080 C  
HETATM   27  H   UNL     3      -8.985   2.166  70.127  1.00  0.00     0.000 HD 
HETATM   28  O   UNL     3      -9.383   2.729  69.474  1.00  0.00    -0.136 OA 
BRANCH  26  29
HETATM   29  C   UNL     3      -7.174   3.706  69.496  1.00  0.00    -0.045 C  
HETATM   30  O   UNL     3      -6.660   3.572  68.174  1.00  0.00    -0.036 OA 
HETATM   31  H   UNL     3      -5.727   3.391  68.161  1.00  0.00     0.000 HD 
ENDBRANCH  26  29
ENDBRANCH   4  26
TORSDOF 4
ENDMDL
MODEL      123
REMARK 921   NORMALIZED FREE ENERGY PREDICTED BY IDOCK:   -2.82 KCAL/MOL
REMARK 922        TOTAL FREE ENERGY PREDICTED BY IDOCK:   -4.49 KCAL/MOL
REMARK 923 INTER-LIGAND FREE ENERGY PREDICTED BY IDOCK:   -3.96 KCAL/MOL
REMARK 924 INTRA-LIGAND FREE ENERGY PREDICTED BY IDOCK:   -0.53 KCAL/MOL
REMARK 927      BINDING AFFINITY PREDICTED BY RF-SCORE:    0.00 PKD
ROOT
HETATM    1 MG   UNL     1      -7.016  13.925  69.546  1.00  0.00    -0.103 Mg 
HETATM    2  C   UNL     2      -9.014   8.006  67.417  1.00  0.00    -0.134 C  
HETATM    3  O   UNL     2      -8.526   7.066  68.385  1.00  0.00    -0.123 OA 
HETATM    4  C   UNL     3      -9.548  11.859  68.316  1.00  0.00    -0.201 C  
HETATM    5  H   UNL     2      -5.147   9.162  66.569  1.00  0.00     0.000 HD 
HETATM    6  O   UNL     3      -9.362  10.750  69.254  1.00  0.00    -0.167 OA 
HETATM    7  O   UNL     3      -6.029  12.040  69.288  1.00  0.00    -0.067 OA 
HETATM    8  C   UNL     3      -8.156  12.491  68.339  1.00  0.00    -0.136 C  
HETATM    9  C   UNL     2      -7.167   7.127  68.443  1.00  0.00    -0.091 C  
HETATM   10  O   UNL     2      -7.879   9.352  65.785  1.00  0.00    -0.097 OA 
HETATM   11  C   UNL     3      -8.047  10.533  69.503  1.00  0.00    -0.094 C  
HETATM   12  C   UNL     2      -6.715   8.079  67.415  1.00  0.00    -0.069 C  
HETATM   13  O   UNL     2      -5.439   8.547  67.233  1.00  0.00    -0.037 OA 
HETATM   14  O   UNL     2      -6.461   6.494  69.206  1.00  0.00    -0.037 OA 
HETATM   15  C   UNL     2      -7.763   8.529  66.727  1.00  0.00    -0.091 C  
HETATM   16  O   UNL     3      -8.057  13.726  68.089  1.00  0.00    -0.134 OA 
HETATM   17  H   UNL     3      -5.544  12.749  68.881  1.00  0.00     0.000 HD 
HETATM   18  C   UNL     3      -7.296  11.629  68.873  1.00  0.00    -0.107 C  
HETATM   19  O   UNL     3      -7.565   9.825  70.369  1.00  0.00    -0.159 OA 
ENDROOT
BRANCH   2  20
HETATM   20  C   UNL     2     -10.224   7.435  66.664  1.00  0.00    -0.177 C  
HETATM   21  O   UNL     2      -9.910   6.313  65.815  1.00  0.00    -0.374 OA 
HETATM   22  H   UNL     2     -10.658   5.959  65.349  1.00  0.00     0.000 HD 
BRANCH  20  23
HETATM   23  C   UNL     2     -11.394   7.083  67.568  1.00  0.00     0.136 C  
HETATM   24  H   UNL     2     -11.759   5.754  68.963  1.00  0.00     0.000 HD 
HETATM   25  O   UNL     2     -11.028   5.974  68.398  1.00  0.00    -0.292 OA 
ENDBRANCH  20  23
ENDBRANCH   2  20
BRANCH   4  26
HETATM   26  C   UNL     3     -10.252  11.300  67.050  1.00  0.00    -0.215 C  
HETATM   27  H   UNL     3     -12.041  10.617  66.660  1.00  0.00     0.000 HD 
HETATM   28  O   UNL     3     -11.611  10.959  67.435  1.00  0.00    -0.509 OA 
BRANCH  26  29
HETATM   29  C   UNL     3     -10.310  12.112  65.758  1.00  0.00    -0.258 C  
HETATM   30  O   UNL     3      -9.186  11.880  64.914  1.00  0.00    -0.424 OA 
HETATM   31  H   UNL     3      -9.221  12.385  64.110  1.00  0.00     0.000 HD 
ENDBRANCH  26  29
ENDBRANCH   4  26
TORSDOF 4
ENDMDL
MODEL      124
REMARK 921   NORMALIZED FREE ENERGY PREDICTED BY IDOCK:   -2.79 KCAL/MOL
REMARK 922        TOTAL FREE ENERGY PREDICTED BY IDOCK:   -4.45 KCAL/MOL
REMARK 923 INTER-LIGAND FREE ENERGY PREDICTED BY IDOCK:   -3.36 KCAL/MOL
REMARK 924 INTRA-LIGAND FREE ENERGY PREDICTED BY IDOCK:   -1.09 KCAL/MOL
REMARK 927      BINDING AFFINITY PREDICTED BY RF-SCORE:    0.00 PKD
ROOT
HETATM    1 MG   UNL     1      -6.979  10.855  65.875  1.00  0.00    -0.108 Mg 
HETATM    2  C   UNL     2      -8.789   5.258  68.867  1.00  0.00    -0.092 C  
HETATM    3  O   UNL     2      -8.960   4.299  67.813  1.00  0.00    -0.107 OA 
HETATM    4  C   UNL     3      -6.501   8.497  68.405  1.00  0.00    -0.055 C  
HETATM    5  H   UNL     2     -11.746   7.614  67.219  1.00  0.00     0.000 HD 
HETATM    6  O   UNL     3      -6.523   7.302  67.559  1.00  0.00    -0.051 OA 
HETATM    7  O   UNL     3      -8.542   9.433  65.521  1.00  0.00    -0.135 OA 
HETATM    8  C   UNL     3      -7.307   9.472  67.546  1.00  0.00    -0.090 C  
HETATM    9  C   UNL     2      -9.927   4.723  66.954  1.00  0.00    -0.217 C  
HETATM   10  O   UNL     2     -10.058   7.202  69.476  1.00  0.00    -0.172 OA 
HETATM   11  C   UNL     3      -7.451   7.412  66.577  1.00  0.00    -0.084 C  
HETATM   12  C   UNL     2     -10.491   5.971  67.494  1.00  0.00    -0.240 C  
HETATM   13  O   UNL     2     -11.382   6.808  66.871  1.00  0.00    -0.318 OA 
HETATM   14  O   UNL     2     -10.264   4.158  65.930  1.00  0.00    -0.193 OA 
HETATM   15  C   UNL     2      -9.922   6.253  68.664  1.00  0.00    -0.145 C  
HETATM   16  O   UNL     3      -7.073  10.708  67.668  1.00  0.00    -0.081 OA 
HETATM   17  H   UNL     3      -8.876  10.322  65.547  1.00  0.00     0.000 HD 
HETATM   18  C   UNL     3      -7.968   8.788  66.617  1.00  0.00    -0.100 C  
HETATM   19  O   UNL     3      -7.590   6.690  65.606  1.00  0.00    -0.079 OA 
ENDROOT
BRANCH   2  20
HETATM   20  C   UNL     2      -8.502   4.556  70.202  1.00  0.00    -0.073 C  
HETATM   21  O   UNL     2      -8.423   5.450  71.330  1.00  0.00    -0.123 OA 
HETATM   22  H   UNL     2      -8.246   5.016  72.156  1.00  0.00     0.000 HD 
BRANCH  20  23
HETATM   23  C   UNL     2      -9.463   3.421  70.513  1.00  0.00    -0.177 C  
HETATM   24  H   UNL     2     -10.179   2.571  72.129  1.00  0.00     0.000 HD 
HETATM   25  O   UNL     2      -9.579   3.280  71.934  1.00  0.00    -0.129 OA 
ENDBRANCH  20  23
ENDBRANCH   2  20
BRANCH   4  26
HETATM   26  C   UNL     3      -6.873   8.065  69.849  1.00  0.00    -0.041 C  
HETATM   27  H   UNL     3      -6.219   6.703  71.090  1.00  0.00     0.000 HD 
HETATM   28  O   UNL     3      -5.991   6.967  70.206  1.00  0.00    -0.023 OA 
BRANCH  26  29
HETATM   29  C   UNL     3      -6.871   9.073  70.997  1.00  0.00    -0.092 C  
HETATM   30  O   UNL     3      -7.414  10.335  70.620  1.00  0.00    -0.431 OA 
HETATM   31  H   UNL     3      -7.413  10.962  71.333  1.00  0.00     0.000 HD 
ENDBRANCH  26  29
ENDBRANCH   4  26
TORSDOF 4
ENDMDL
MODEL      125
REMARK 921   NORMALIZED FREE ENERGY PREDICTED BY IDOCK:   -2.76 KCAL/MOL
REMARK 922        TOTAL FREE ENERGY PREDICTED BY IDOCK:   -4.42 KCAL/MOL
REMARK 923 INTER-LIGAND FREE ENERGY PREDICTED BY IDOCK:   -3.36 KCAL/MOL
REMARK 924 INTRA-LIGAND FREE ENERGY PREDICTED BY IDOCK:   -1.06 KCAL/MOL
REMARK 927      BINDING AFFINITY PREDICTED BY RF-SCORE:    0.00 PKD
ROOT
HETATM    1 MG   UNL     1     -10.115   8.848  66.754  1.00  0.00    -0.153 Mg 
HETATM    2  C   UNL     2      -9.453   3.698  70.828  1.00  0.00    -0.168 C  
HETATM    3  O   UNL     2     -10.412   3.911  71.874  1.00  0.00    -0.057 OA 
HETATM    4  C   UNL     3      -9.849   5.401  67.238  1.00  0.00    -0.156 C  
HETATM    5  H   UNL     2      -7.552   7.217  71.834  1.00  0.00     0.000 HD 
HETATM    6  O   UNL     3     -10.875   5.273  68.275  1.00  0.00    -0.015 OA 
HETATM    7  O   UNL     3      -9.926   8.665  68.880  1.00  0.00    -0.179 OA 
HETATM    8  C   UNL     3      -9.446   6.865  67.412  1.00  0.00    -0.132 C  
HETATM    9  C   UNL     2     -10.138   5.078  72.520  1.00  0.00    -0.183 C  
HETATM   10  O   UNL     2      -7.413   4.836  70.276  1.00  0.00    -0.050 OA 
HETATM   11  C   UNL     3     -10.839   6.321  69.134  1.00  0.00    -0.340 C  
HETATM   12  C   UNL     2      -8.899   5.629  71.947  1.00  0.00    -0.135 C  
HETATM   13  O   UNL     2      -8.352   6.861  72.204  1.00  0.00    -0.106 OA 
HETATM   14  O   UNL     2     -10.803   5.564  73.417  1.00  0.00    -0.258 OA 
HETATM   15  C   UNL     2      -8.416   4.793  71.030  1.00  0.00    -0.111 C  
HETATM   16  O   UNL     3      -8.993   7.482  66.406  1.00  0.00    -0.153 OA 
HETATM   17  H   UNL     3      -9.313   9.298  68.527  1.00  0.00     0.000 HD 
HETATM   18  C   UNL     3      -9.889   7.301  68.587  1.00  0.00    -0.161 C  
HETATM   19  O   UNL     3     -11.666   6.614  69.978  1.00  0.00    -0.383 OA 
ENDROOT
BRANCH   2  20
HETATM   20  C   UNL     2      -9.103   2.208  70.705  1.00  0.00    -0.100 C  
HETATM   21  O   UNL     2      -7.954   1.942  69.875  1.00  0.00    -0.042 OA 
HETATM   22  H   UNL     2      -7.738   1.020  69.799  1.00  0.00     0.000 HD 
BRANCH  20  23
HETATM   23  C   UNL     2      -8.944   1.507  72.043  1.00  0.00    -0.068 C  
HETATM   24  H   UNL     2      -7.560   1.392  73.429  1.00  0.00     0.000 HD 
HETATM   25  O   UNL     2      -7.660   1.830  72.592  1.00  0.00    -0.037 OA 
ENDBRANCH  20  23
ENDBRANCH   2  20
BRANCH   4  26
HETATM   26  C   UNL     3      -8.885   4.190  67.371  1.00  0.00    -0.116 C  
HETATM   27  H   UNL     3      -8.944   2.318  66.812  1.00  0.00     0.000 HD 
HETATM   28  O   UNL     3      -9.534   3.058  66.731  1.00  0.00    -0.138 OA 
BRANCH  26  29
HETATM   29  C   UNL     3      -7.448   4.268  66.861  1.00  0.00    -0.081 C  
HETATM   30  O   UNL     3      -6.731   3.051  67.051  1.00  0.00    -0.040 OA 
HETATM   31  H   UNL     3      -5.837   3.100  66.734  1.00  0.00     0.000 HD 
ENDBRANCH  26  29
ENDBRANCH   4  26
TORSDOF 4
ENDMDL
MODEL      126
REMARK 921   NORMALIZED FREE ENERGY PREDICTED BY IDOCK:   -2.60 KCAL/MOL
REMARK 922        TOTAL FREE ENERGY PREDICTED BY IDOCK:   -4.22 KCAL/MOL
REMARK 923 INTER-LIGAND FREE ENERGY PREDICTED BY IDOCK:   -3.35 KCAL/MOL
REMARK 924 INTRA-LIGAND FREE ENERGY PREDICTED BY IDOCK:   -0.88 KCAL/MOL
REMARK 927      BINDING AFFINITY PREDICTED BY RF-SCORE:    0.00 PKD
ROOT
HETATM    1 MG   UNL     1      -9.363   8.679  62.491  1.00  0.00    -0.383 Mg 
HETATM    2  C   UNL     2      -7.999   9.304  68.919  1.00  0.00    -0.098 C  
HETATM    3  O   UNL     2      -9.175   9.880  69.505  1.00  0.00    -0.195 OA 
HETATM    4  C   UNL     3      -8.139   7.311  65.462  1.00  0.00    -0.132 C  
HETATM    5  H   UNL     2      -7.553  12.625  66.515  1.00  0.00     0.000 HD 
HETATM    6  O   UNL     3      -9.269   7.675  66.320  1.00  0.00    -0.174 OA 
HETATM    7  O   UNL     3      -9.580  10.283  63.896  1.00  0.00    -0.287 OA 
HETATM    8  C   UNL     3      -8.261   8.367  64.363  1.00  0.00    -0.138 C  
HETATM    9  C   UNL     2      -9.424  11.095  68.943  1.00  0.00    -0.124 C  
HETATM   10  O   UNL     2      -6.350  10.211  67.429  1.00  0.00    -0.064 OA 
HETATM   11  C   UNL     3      -9.745   8.906  66.009  1.00  0.00    -0.238 C  
HETATM   12  C   UNL     2      -8.328  11.389  68.005  1.00  0.00    -0.143 C  
HETATM   13  O   UNL     2      -8.261  12.436  67.121  1.00  0.00    -0.178 OA 
HETATM   14  O   UNL     2     -10.381  11.807  69.187  1.00  0.00    -0.118 OA 
HETATM   15  C   UNL     2      -7.425  10.411  68.047  1.00  0.00    -0.090 C  
HETATM   16  O   UNL     3      -7.823   8.084  63.212  1.00  0.00    -0.136 OA 
HETATM   17  H   UNL     3      -9.135  10.566  63.106  1.00  0.00     0.000 HD 
HETATM   18  C   UNL     3      -9.057   9.345  64.787  1.00  0.00    -0.193 C  
HETATM   19  O   UNL     3     -10.781   9.417  66.395  1.00  0.00    -0.064 OA 
ENDROOT
BRANCH   2  20
HETATM   20  C   UNL     2      -7.183   8.541  69.972  1.00  0.00    -0.051 C  
HETATM   21  O   UNL     2      -5.763   8.533  69.721  1.00  0.00    -0.029 OA 
HETATM   22  H   UNL     2      -5.259   8.061  70.372  1.00  0.00     0.000 HD 
BRANCH  20  23
HETATM   23  C   UNL     2      -7.450   8.995  71.397  1.00  0.00    -0.037 C  
HETATM   24  H   UNL     2      -6.485  10.017  72.765  1.00  0.00     0.000 HD 
HETATM   25  O   UNL     2      -6.318   9.733  71.874  1.00  0.00    -0.300 OA 
ENDBRANCH  20  23
ENDBRANCH   2  20
BRANCH   4  26
HETATM   26  C   UNL     3      -6.897   7.111  66.372  1.00  0.00    -0.061 C  
HETATM   27  H   UNL     3      -6.451   5.908  67.846  1.00  0.00     0.000 HD 
HETATM   28  O   UNL     3      -7.211   6.030  67.290  1.00  0.00    -0.072 OA 
BRANCH  26  29
HETATM   29  C   UNL     3      -5.518   6.843  65.772  1.00  0.00    -0.026 C  
HETATM   30  O   UNL     3      -5.316   5.468  65.454  1.00  0.00    -0.012 OA 
HETATM   31  H   UNL     3      -4.459   5.301  65.081  1.00  0.00     0.000 HD 
ENDBRANCH  26  29
ENDBRANCH   4  26
TORSDOF 4
ENDMDL
MODEL      127
REMARK 921   NORMALIZED FREE ENERGY PREDICTED BY IDOCK:   -2.53 KCAL/MOL
REMARK 922        TOTAL FREE ENERGY PREDICTED BY IDOCK:   -4.13 KCAL/MOL
REMARK 923 INTER-LIGAND FREE ENERGY PREDICTED BY IDOCK:   -3.46 KCAL/MOL
REMARK 924 INTRA-LIGAND FREE ENERGY PREDICTED BY IDOCK:   -0.68 KCAL/MOL
REMARK 927      BINDING AFFINITY PREDICTED BY RF-SCORE:    0.00 PKD
ROOT
HETATM    1 MG   UNL     1     -10.645   5.701  66.143  1.00  0.00    -0.185 Mg 
HETATM    2  C   UNL     2      -7.176   7.670  71.401  1.00  0.00    -0.066 C  
HETATM    3  O   UNL     2      -5.931   6.959  71.327  1.00  0.00    -0.035 OA 
HETATM    4  C   UNL     3      -9.442   8.276  68.171  1.00  0.00    -0.137 C  
HETATM    5  H   UNL     2      -9.218   4.096  71.659  1.00  0.00     0.000 HD 
HETATM    6  O   UNL     3      -8.039   7.857  68.201  1.00  0.00    -0.119 OA 
HETATM    7  O   UNL     3      -9.539   4.659  67.655  1.00  0.00    -0.144 OA 
HETATM    8  C   UNL     3     -10.134   6.945  67.877  1.00  0.00    -0.162 C  
HETATM    9  C   UNL     2      -6.162   5.618  71.374  1.00  0.00    -0.035 C  
HETATM   10  O   UNL     2      -9.411   6.930  71.867  1.00  0.00    -0.143 OA 
HETATM   11  C   UNL     3      -7.932   6.508  68.279  1.00  0.00    -0.110 C  
HETATM   12  C   UNL     2      -7.606   5.417  71.575  1.00  0.00    -0.103 C  
HETATM   13  O   UNL     2      -8.285   4.226  71.530  1.00  0.00    -0.087 OA 
HETATM   14  O   UNL     2      -5.315   4.749  71.275  1.00  0.00    -0.004 OA 
HETATM   15  C   UNL     2      -8.211   6.597  71.701  1.00  0.00    -0.111 C  
HETATM   16  O   UNL     3     -11.243   6.970  67.273  1.00  0.00    -0.281 OA 
HETATM   17  H   UNL     3     -10.412   4.300  67.548  1.00  0.00     0.000 HD 
HETATM   18  C   UNL     3      -9.283   5.951  68.115  1.00  0.00    -0.116 C  
HETATM   19  O   UNL     3      -6.927   5.836  68.130  1.00  0.00    -0.065 OA 
ENDROOT
BRANCH   2  20
HETATM   20  C   UNL     2      -7.020   8.956  72.225  1.00  0.00     0.127 C  
HETATM   21  O   UNL     2      -7.162   8.763  73.647  1.00  0.00    -0.362 OA 
HETATM   22  H   UNL     2      -7.067   9.558  74.157  1.00  0.00     0.000 HD 
BRANCH  20  23
HETATM   23  C   UNL     2      -5.735   9.714  71.936  1.00  0.00     0.028 C  
HETATM   24  H   UNL     2      -4.703  11.139  72.803  1.00  0.00     0.000 HD 
HETATM   25  O   UNL     2      -5.507  10.666  72.983  1.00  0.00    -0.148 OA 
ENDBRANCH  20  23
ENDBRANCH   2  20
BRANCH   4  26
HETATM   26  C   UNL     3      -9.702   9.158  69.422  1.00  0.00    -0.170 C  
HETATM   27  H   UNL     3      -8.845  10.735  70.197  1.00  0.00     0.000 HD 
HETATM   28  O   UNL     3      -8.686  10.195  69.431  1.00  0.00    -0.159 OA 
BRANCH  26  29
HETATM   29  C   UNL     3     -11.061   9.818  69.651  1.00  0.00    -0.217 C  
HETATM   30  O   UNL     3     -11.666  10.262  68.440  1.00  0.00    -0.652 OA 
HETATM   31  H   UNL     3     -12.510  10.673  68.582  1.00  0.00     0.000 HD 
ENDBRANCH  26  29
ENDBRANCH   4  26
TORSDOF 4
ENDMDL
MODEL      128
REMARK 921   NORMALIZED FREE ENERGY PREDICTED BY IDOCK:   -2.49 KCAL/MOL
REMARK 922        TOTAL FREE ENERGY PREDICTED BY IDOCK:   -4.09 KCAL/MOL
REMARK 923 INTER-LIGAND FREE ENERGY PREDICTED BY IDOCK:   -3.24 KCAL/MOL
REMARK 924 INTRA-LIGAND FREE ENERGY PREDICTED BY IDOCK:   -0.84 KCAL/MOL
REMARK 927      BINDING AFFINITY PREDICTED BY RF-SCORE:    0.00 PKD
ROOT
HETATM    1 MG   UNL     1      -9.699   3.621  69.242  1.00  0.00    -0.129 Mg 
HETATM    2  C   UNL     2      -7.633   9.793  68.152  1.00  0.00    -0.082 C  
HETATM    3  O   UNL     2      -7.685   9.969  66.728  1.00  0.00    -0.101 OA 
HETATM    4  C   UNL     3      -9.831   7.025  70.007  1.00  0.00    -0.177 C  
HETATM    5  H   UNL     2      -4.909   6.732  67.687  1.00  0.00     0.000 HD 
HETATM    6  O   UNL     3     -10.004   7.522  68.640  1.00  0.00    -0.162 OA 
HETATM    7  O   UNL     3      -8.280   4.483  67.888  1.00  0.00    -0.095 OA 
HETATM    8  C   UNL     3      -9.145   5.684  69.741  1.00  0.00    -0.138 C  
HETATM    9  C   UNL     2      -6.863   9.068  66.121  1.00  0.00    -0.081 C  
HETATM   10  O   UNL     2      -6.199   8.464  69.544  1.00  0.00    -0.036 OA 
HETATM   11  C   UNL     3      -9.254   6.812  67.761  1.00  0.00    -0.111 C  
HETATM   12  C   UNL     2      -6.164   8.316  67.176  1.00  0.00    -0.056 C  
HETATM   13  O   UNL     2      -5.360   7.217  67.006  1.00  0.00    -0.020 OA 
HETATM   14  O   UNL     2      -6.731   8.927  64.920  1.00  0.00    -0.069 OA 
HETATM   15  C   UNL     2      -6.512   8.788  68.371  1.00  0.00    -0.055 C  
HETATM   16  O   UNL     3      -9.304   4.756  70.584  1.00  0.00    -0.136 OA 
HETATM   17  H   UNL     3      -7.910   3.747  68.362  1.00  0.00     0.000 HD 
HETATM   18  C   UNL     3      -8.682   5.673  68.495  1.00  0.00    -0.110 C  
HETATM   19  O   UNL     3      -9.315   6.841  66.546  1.00  0.00    -0.161 OA 
ENDROOT
BRANCH   2  20
HETATM   20  C   UNL     2      -7.714  11.147  68.871  1.00  0.00    -0.137 C  
HETATM   21  O   UNL     2      -6.682  11.350  69.857  1.00  0.00    -0.260 OA 
HETATM   22  H   UNL     2      -6.733  12.188  70.303  1.00  0.00     0.000 HD 
BRANCH  20  23
HETATM   23  C   UNL     2      -7.763  12.337  67.927  1.00  0.00    -0.133 C  
HETATM   24  H   UNL     2      -9.137  13.580  67.282  1.00  0.00     0.000 HD 
HETATM   25  O   UNL     2      -9.106  12.836  67.872  1.00  0.00    -0.187 OA 
ENDBRANCH  20  23
ENDBRANCH   2  20
BRANCH   4  26
HETATM   26  C   UNL     3      -9.234   8.177  70.860  1.00  0.00    -0.151 C  
HETATM   27  H   UNL     3      -9.802   9.992  71.312  1.00  0.00     0.000 HD 
HETATM   28  O   UNL     3     -10.168   9.287  70.790  1.00  0.00    -0.241 OA 
BRANCH  26  29
HETATM   29  C   UNL     3      -8.859   7.959  72.325  1.00  0.00    -0.148 C  
HETATM   30  O   UNL     3     -10.000   7.816  73.167  1.00  0.00    -0.267 OA 
HETATM   31  H   UNL     3      -9.768   7.680  74.078  1.00  0.00     0.000 HD 
ENDBRANCH  26  29
ENDBRANCH   4  26
TORSDOF 4
ENDMDL
MODEL      129
REMARK 921   NORMALIZED FREE ENERGY PREDICTED BY IDOCK:   -2.34 KCAL/MOL
REMARK 922        TOTAL FREE ENERGY PREDICTED BY IDOCK:   -3.90 KCAL/MOL
REMARK 923 INTER-LIGAND FREE ENERGY PREDICTED BY IDOCK:   -2.78 KCAL/MOL
REMARK 924 INTRA-LIGAND FREE ENERGY PREDICTED BY IDOCK:   -1.12 KCAL/MOL
REMARK 927      BINDING AFFINITY PREDICTED BY RF-SCORE:    0.00 PKD
ROOT
HETATM    1 MG   UNL     1      -7.975  10.599  66.531  1.00  0.00    -0.107 Mg 
HETATM    2  C   UNL     2      -7.925   4.087  67.609  1.00  0.00    -0.090 C  
HETATM    3  O   UNL     2      -6.859   3.573  66.797  1.00  0.00    -0.051 OA 
HETATM    4  C   UNL     3      -8.031   7.909  68.758  1.00  0.00    -0.124 C  
HETATM    5  H   UNL     2      -9.846   5.474  64.233  1.00  0.00     0.000 HD 
HETATM    6  O   UNL     3      -6.885   7.182  68.209  1.00  0.00    -0.068 OA 
HETATM    7  O   UNL     3      -7.903   8.891  65.239  1.00  0.00    -0.097 OA 
HETATM    8  C   UNL     3      -8.475   8.712  67.534  1.00  0.00    -0.124 C  
HETATM    9  C   UNL     2      -7.105   3.845  65.486  1.00  0.00    -0.063 C  
HETATM   10  O   UNL     2     -10.063   5.014  67.036  1.00  0.00    -0.186 OA 
HETATM   11  C   UNL     3      -6.865   7.246  66.855  1.00  0.00    -0.069 C  
HETATM   12  C   UNL     2      -8.426   4.489  65.400  1.00  0.00    -0.123 C  
HETATM   13  O   UNL     2      -8.993   5.058  64.288  1.00  0.00    -0.118 OA 
HETATM   14  O   UNL     2      -6.361   3.588  64.557  1.00  0.00    -0.023 OA 
HETATM   15  C   UNL     2      -8.977   4.548  66.611  1.00  0.00    -0.114 C  
HETATM   16  O   UNL     3      -9.069   9.811  67.726  1.00  0.00    -0.131 OA 
HETATM   17  H   UNL     3      -8.581   9.501  64.976  1.00  0.00     0.000 HD 
HETATM   18  C   UNL     3      -7.915   8.191  66.447  1.00  0.00    -0.104 C  
HETATM   19  O   UNL     3      -5.958   6.918  66.112  1.00  0.00    -0.032 OA 
ENDROOT
BRANCH   2  20
HETATM   20  C   UNL     2      -8.221   3.142  68.782  1.00  0.00    -0.060 C  
HETATM   21  O   UNL     2      -9.226   3.633  69.692  1.00  0.00    -0.119 OA 
HETATM   22  H   UNL     2      -9.409   3.049  70.418  1.00  0.00     0.000 HD 
BRANCH  20  23
HETATM   23  C   UNL     2      -8.566   1.726  68.352  1.00  0.00    -0.066 C  
HETATM   24  H   UNL     2     -10.198   0.648  68.197  1.00  0.00     0.000 HD 
HETATM   25  O   UNL     2      -9.982   1.533  68.466  1.00  0.00    -0.030 OA 
ENDBRANCH  20  23
ENDBRANCH   2  20
BRANCH   4  26
HETATM   26  C   UNL     3      -8.918   6.891  69.524  1.00  0.00    -0.143 C  
HETATM   27  H   UNL     3      -8.640   5.697  71.046  1.00  0.00     0.000 HD 
HETATM   28  O   UNL     3      -8.097   6.320  70.578  1.00  0.00    -0.109 OA 
BRANCH  26  29
HETATM   29  C   UNL     3     -10.253   7.313  70.134  1.00  0.00    -0.203 C  
HETATM   30  O   UNL     3     -11.131   7.902  69.178  1.00  0.00    -0.431 OA 
HETATM   31  H   UNL     3     -11.961   8.165  69.557  1.00  0.00     0.000 HD 
ENDBRANCH  26  29
ENDBRANCH   4  26
TORSDOF 4
ENDMDL
MODEL      130
REMARK 921   NORMALIZED FREE ENERGY PREDICTED BY IDOCK:   -2.29 KCAL/MOL
REMARK 922        TOTAL FREE ENERGY PREDICTED BY IDOCK:   -3.83 KCAL/MOL
REMARK 923 INTER-LIGAND FREE ENERGY PREDICTED BY IDOCK:   -2.86 KCAL/MOL
REMARK 924 INTRA-LIGAND FREE ENERGY PREDICTED BY IDOCK:   -0.97 KCAL/MOL
REMARK 927      BINDING AFFINITY PREDICTED BY RF-SCORE:    0.00 PKD
ROOT
HETATM    1 MG   UNL     1      -7.794  11.318  68.287  1.00  0.00    -0.092 Mg 
HETATM    2  C   UNL     2      -8.868   5.333  65.721  1.00  0.00    -0.149 C  
HETATM    3  O   UNL     2      -9.795   4.695  66.612  1.00  0.00    -0.182 OA 
HETATM    4  C   UNL     3      -8.537   9.307  65.531  1.00  0.00    -0.152 C  
HETATM    5  H   UNL     2      -6.126   5.660  68.783  1.00  0.00     0.000 HD 
HETATM    6  O   UNL     3      -9.623   8.538  66.143  1.00  0.00    -0.231 OA 
HETATM    7  O   UNL     3      -7.802   9.340  69.111  1.00  0.00    -0.082 OA 
HETATM    8  C   UNL     3      -7.752   9.731  66.772  1.00  0.00    -0.098 C  
HETATM    9  C   UNL     2      -9.247   4.597  67.855  1.00  0.00    -0.127 C  
HETATM   10  O   UNL     2      -6.560   5.936  65.982  1.00  0.00    -0.045 OA 
HETATM   11  C   UNL     3      -9.350   8.247  67.438  1.00  0.00    -0.141 C  
HETATM   12  C   UNL     2      -7.869   5.109  67.780  1.00  0.00    -0.091 C  
HETATM   13  O   UNL     2      -7.016   5.330  68.832  1.00  0.00    -0.053 OA 
HETATM   14  O   UNL     2      -9.805   4.155  68.842  1.00  0.00    -0.139 OA 
HETATM   15  C   UNL     2      -7.582   5.447  66.525  1.00  0.00    -0.088 C  
HETATM   16  O   UNL     3      -7.080  10.800  66.716  1.00  0.00    -0.111 OA 
HETATM   17  H   UNL     3      -7.014   9.815  69.347  1.00  0.00     0.000 HD 
HETATM   18  C   UNL     3      -8.130   8.982  67.803  1.00  0.00    -0.109 C  
HETATM   19  O   UNL     3     -10.114   7.795  68.272  1.00  0.00    -0.179 OA 
ENDROOT
BRANCH   2  20
HETATM   20  C   UNL     2      -8.943   4.710  64.320  1.00  0.00    -0.136 C  
HETATM   21  O   UNL     2      -7.671   4.624  63.647  1.00  0.00    -0.065 OA 
HETATM   22  H   UNL     2      -7.717   4.239  62.780  1.00  0.00     0.000 HD 
BRANCH  20  23
HETATM   23  C   UNL     2      -9.632   3.356  64.290  1.00  0.00    -0.153 C  
HETATM   24  H   UNL     2      -9.165   1.539  63.718  1.00  0.00     0.000 HD 
HETATM   25  O   UNL     2      -8.735   2.385  63.736  1.00  0.00    -0.085 OA 
ENDBRANCH  20  23
ENDBRANCH   2  20
BRANCH   4  26
HETATM   26  C   UNL     3      -7.963   8.469  64.357  1.00  0.00    -0.147 C  
HETATM   27  H   UNL     3      -8.540   8.087  62.528  1.00  0.00     0.000 HD 
HETATM   28  O   UNL     3      -8.891   8.600  63.247  1.00  0.00    -0.004 OA 
BRANCH  26  29
HETATM   29  C   UNL     3      -6.551   8.715  63.831  1.00  0.00    -0.076 C  
HETATM   30  O   UNL     3      -6.240  10.102  63.722  1.00  0.00    -0.127 OA 
HETATM   31  H   UNL     3      -5.362  10.255  63.395  1.00  0.00     0.000 HD 
ENDBRANCH  26  29
ENDBRANCH   4  26
TORSDOF 4
ENDMDL
MODEL      131
REMARK 921   NORMALIZED FREE ENERGY PREDICTED BY IDOCK:   -2.21 KCAL/MOL
REMARK 922        TOTAL FREE ENERGY PREDICTED BY IDOCK:   -3.74 KCAL/MOL
REMARK 923 INTER-LIGAND FREE ENERGY PREDICTED BY IDOCK:   -2.88 KCAL/MOL
REMARK 924 INTRA-LIGAND FREE ENERGY PREDICTED BY IDOCK:   -0.86 KCAL/MOL
REMARK 927      BINDING AFFINITY PREDICTED BY RF-SCORE:    0.00 PKD
ROOT
HETATM    1 MG   UNL     1      -7.878   9.894  64.791  1.00  0.00    -0.108 Mg 
HETATM    2  C   UNL     2      -8.985   5.605  69.684  1.00  0.00    -0.123 C  
HETATM    3  O   UNL     2      -9.547   6.381  70.753  1.00  0.00    -0.177 OA 
HETATM    4  C   UNL     3      -9.150   6.833  65.889  1.00  0.00    -0.016 C  
HETATM    5  H   UNL     2      -5.540   7.867  69.837  1.00  0.00     0.000 HD 
HETATM    6  O   UNL     3      -9.930   7.344  67.018  1.00  0.00    -0.190 OA 
HETATM    7  O   UNL     3      -7.440   9.905  66.888  1.00  0.00    -0.091 OA 
HETATM    8  C   UNL     3      -8.096   7.931  65.747  1.00  0.00    -0.123 C  
HETATM    9  C   UNL     2      -8.663   7.341  71.141  1.00  0.00    -0.135 C  
HETATM   10  O   UNL     2      -6.776   5.543  68.748  1.00  0.00    -0.049 OA 
HETATM   11  C   UNL     3      -9.271   8.341  67.658  1.00  0.00    -0.137 C  
HETATM   12  C   UNL     2      -7.426   7.152  70.367  1.00  0.00    -0.084 C  
HETATM   13  O   UNL     2      -6.339   7.989  70.337  1.00  0.00    -0.036 OA 
HETATM   14  O   UNL     2      -8.868   8.193  71.986  1.00  0.00    -0.140 OA 
HETATM   15  C   UNL     2      -7.544   6.082  69.584  1.00  0.00    -0.089 C  
HETATM   16  O   UNL     3      -7.587   8.125  64.607  1.00  0.00    -0.096 OA 
HETATM   17  H   UNL     3      -6.673  10.115  66.368  1.00  0.00     0.000 HD 
HETATM   18  C   UNL     3      -8.084   8.667  66.854  1.00  0.00    -0.098 C  
HETATM   19  O   UNL     3      -9.715   9.098  68.503  1.00  0.00    -0.150 OA 
ENDROOT
BRANCH   2  20
HETATM   20  C   UNL     2      -9.386   4.129  69.813  1.00  0.00    -0.167 C  
HETATM   21  O   UNL     2      -8.355   3.204  69.413  1.00  0.00    -0.057 OA 
HETATM   22  H   UNL     2      -8.603   2.291  69.493  1.00  0.00     0.000 HD 
BRANCH  20  23
HETATM   23  C   UNL     2      -9.905   3.756  71.191  1.00  0.00    -0.143 C  
HETATM   24  H   UNL     2     -10.004   2.125  72.276  1.00  0.00     0.000 HD 
HETATM   25  O   UNL     2      -9.680   2.359  71.415  1.00  0.00    -0.148 OA 
ENDBRANCH  20  23
ENDBRANCH   2  20
BRANCH   4  26
HETATM   26  C   UNL     3      -8.846   5.335  66.160  1.00  0.00    -0.135 C  
HETATM   27  H   UNL     3      -9.928   3.769  66.602  1.00  0.00     0.000 HD 
HETATM   28  O   UNL     3     -10.115   4.686  66.436  1.00  0.00    -0.220 OA 
BRANCH  26  29
HETATM   29  C   UNL     3      -8.088   4.489  65.138  1.00  0.00    -0.103 C  
HETATM   30  O   UNL     3      -7.279   3.487  65.749  1.00  0.00    -0.065 OA 
HETATM   31  H   UNL     3      -6.807   2.961  65.114  1.00  0.00     0.000 HD 
ENDBRANCH  26  29
ENDBRANCH   4  26
TORSDOF 4
ENDMDL
MODEL      132
REMARK 921   NORMALIZED FREE ENERGY PREDICTED BY IDOCK:   -1.88 KCAL/MOL
REMARK 922        TOTAL FREE ENERGY PREDICTED BY IDOCK:   -3.34 KCAL/MOL
REMARK 923 INTER-LIGAND FREE ENERGY PREDICTED BY IDOCK:   -2.68 KCAL/MOL
REMARK 924 INTRA-LIGAND FREE ENERGY PREDICTED BY IDOCK:   -0.65 KCAL/MOL
REMARK 927      BINDING AFFINITY PREDICTED BY RF-SCORE:    0.00 PKD
ROOT
HETATM    1 MG   UNL     1      -5.686  10.812  65.426  1.00  0.00    -0.073 Mg 
HETATM    2  C   UNL     2      -9.142   6.856  69.422  1.00  0.00    -0.141 C  
HETATM    3  O   UNL     2     -10.051   7.718  70.122  1.00  0.00    -0.193 OA 
HETATM    4  C   UNL     3      -7.544   7.896  65.915  1.00  0.00    -0.083 C  
HETATM    5  H   UNL     2      -5.942   8.905  71.024  1.00  0.00     0.000 HD 
HETATM    6  O   UNL     3      -8.694   8.511  66.579  1.00  0.00    -0.122 OA 
HETATM    7  O   UNL     3      -6.205  10.903  67.503  1.00  0.00    -0.051 OA 
HETATM    8  C   UNL     3      -6.451   8.918  66.228  1.00  0.00    -0.065 C  
HETATM    9  C   UNL     2      -9.352   8.640  70.840  1.00  0.00    -0.189 C  
HETATM   10  O   UNL     2      -6.758   6.610  69.549  1.00  0.00    -0.046 OA 
HETATM   11  C   UNL     3      -8.305   9.497  67.424  1.00  0.00    -0.125 C  
HETATM   12  C   UNL     2      -7.920   8.336  70.689  1.00  0.00    -0.094 C  
HETATM   13  O   UNL     2      -6.867   9.101  71.122  1.00  0.00    -0.091 OA 
HETATM   14  O   UNL     2      -9.837   9.545  71.494  1.00  0.00    -0.183 OA 
HETATM   15  C   UNL     2      -7.768   7.236  69.954  1.00  0.00    -0.103 C  
HETATM   16  O   UNL     3      -5.483   9.022  65.422  1.00  0.00    -0.038 OA 
HETATM   17  H   UNL     3      -5.275  11.039  67.368  1.00  0.00     0.000 HD 
HETATM   18  C   UNL     3      -6.864   9.708  67.214  1.00  0.00    -0.083 C  
HETATM   19  O   UNL     3      -9.011  10.321  67.975  1.00  0.00    -0.130 OA 
ENDROOT
BRANCH   2  20
HETATM   20  C   UNL     2      -9.673   5.416  69.390  1.00  0.00    -0.165 C  
HETATM   21  O   UNL     2     -10.560   5.093  70.481  1.00  0.00    -0.242 OA 
HETATM   22  H   UNL     2     -10.888   4.202  70.461  1.00  0.00     0.000 HD 
BRANCH  20  23
HETATM   23  C   UNL     2     -10.322   5.034  68.070  1.00  0.00    -0.027 C  
HETATM   24  H   UNL     2     -10.126   3.588  66.760  1.00  0.00     0.000 HD 
HETATM   25  O   UNL     2      -9.721   3.827  67.585  1.00  0.00    -0.178 OA 
ENDBRANCH  20  23
ENDBRANCH   2  20
BRANCH   4  26
HETATM   26  C   UNL     3      -7.505   6.397  66.320  1.00  0.00    -0.085 C  
HETATM   27  H   UNL     3      -8.329   4.764  65.632  1.00  0.00     0.000 HD 
HETATM   28  O   UNL     3      -8.353   5.681  65.384  1.00  0.00    -0.132 OA 
BRANCH  26  29
HETATM   29  C   UNL     3      -6.179   5.647  66.435  1.00  0.00    -0.034 C  
HETATM   30  O   UNL     3      -5.329   5.861  65.311  1.00  0.00    -0.012 OA 
HETATM   31  H   UNL     3      -4.505   5.395  65.382  1.00  0.00     0.000 HD 
ENDBRANCH  26  29
ENDBRANCH   4  26
TORSDOF 4
ENDMDL
MODEL      133
REMARK 921   NORMALIZED FREE ENERGY PREDICTED BY IDOCK:   -1.88 KCAL/MOL
REMARK 922        TOTAL FREE ENERGY PREDICTED BY IDOCK:   -3.33 KCAL/MOL
REMARK 923 INTER-LIGAND FREE ENERGY PREDICTED BY IDOCK:   -5.41 KCAL/MOL
REMARK 924 INTRA-LIGAND FREE ENERGY PREDICTED BY IDOCK:    2.07 KCAL/MOL
REMARK 927      BINDING AFFINITY PREDICTED BY RF-SCORE:    0.00 PKD
ROOT
HETATM    1 MG   UNL     1      -5.818  10.295  69.588  1.00  0.00    -0.038 Mg 
HETATM    2  C   UNL     2      -9.186  15.229  66.783  1.00  0.00    -0.250 C  
HETATM    3  O   UNL     2      -8.191  16.127  66.268  1.00  0.00    -0.307 OA 
HETATM    4  C   UNL     3      -8.379  11.381  67.479  1.00  0.00    -0.137 C  
HETATM    5  H   UNL     2      -7.742  15.800  70.603  1.00  0.00     0.000 HD 
HETATM    6  O   UNL     3      -7.586  12.321  66.684  1.00  0.00     0.032 OA 
HETATM    7  O   UNL     3      -5.672  12.430  69.700  1.00  0.00    -0.083 OA 
HETATM    8  C   UNL     3      -7.565  11.341  68.772  1.00  0.00    -0.130 C  
HETATM    9  C   UNL     2      -7.414  16.588  67.286  1.00  0.00    -0.164 C  
HETATM   10  O   UNL     2      -9.839  14.689  69.028  1.00  0.00    -0.221 OA 
HETATM   11  C   UNL     3      -6.695  12.989  67.457  1.00  0.00    -0.152 C  
HETATM   12  C   UNL     2      -7.957  16.052  68.545  1.00  0.00    -0.159 C  
HETATM   13  O   UNL     2      -7.391  16.146  69.791  1.00  0.00    -0.100 OA 
HETATM   14  O   UNL     2      -6.450  17.322  67.165  1.00  0.00    -0.142 OA 
HETATM   15  C   UNL     2      -9.055  15.341  68.294  1.00  0.00    -0.181 C  
HETATM   16  O   UNL     3      -7.616  10.293  69.477  1.00  0.00    -0.119 OA 
HETATM   17  H   UNL     3      -5.696  12.034  70.563  1.00  0.00     0.000 HD 
HETATM   18  C   UNL     3      -6.732  12.377  68.793  1.00  0.00    -0.092 C  
HETATM   19  O   UNL     3      -5.771  13.688  67.084  1.00  0.00    -0.260 OA 
ENDROOT
BRANCH   2  20
HETATM   20  C   UNL     2     -10.512  15.395  66.029  1.00  0.00    -0.321 C  
HETATM   21  O   UNL     2     -11.682  15.202  66.850  1.00  0.00    -0.244 OA 
HETATM   22  H   UNL     2     -12.503  15.304  66.384  1.00  0.00     0.000 HD 
BRANCH  20  23
HETATM   23  C   UNL     2     -10.626  16.710  65.276  1.00  0.00    -0.205 C  
HETATM   24  H   UNL     2     -11.562  17.353  63.676  1.00  0.00     0.000 HD 
HETATM   25  O   UNL     2     -11.491  16.531  64.147  1.00  0.00    -1.059 OA 
ENDBRANCH  20  23
ENDBRANCH   2  20
BRANCH   4  26
HETATM   26  C   UNL     3      -9.868  11.809  67.376  1.00  0.00    -0.178 C  
HETATM   27  H   UNL     3     -11.083  12.844  68.505  1.00  0.00     0.000 HD 
HETATM   28  O   UNL     3     -10.172  12.582  68.568  1.00  0.00    -0.228 OA 
BRANCH  26  29
HETATM   29  C   UNL     3     -10.384  12.579  66.162  1.00  0.00    -0.253 C  
HETATM   30  O   UNL     3      -9.751  12.178  64.950  1.00  0.00    -0.413 OA 
HETATM   31  H   UNL     3     -10.071  12.657  64.195  1.00  0.00     0.000 HD 
ENDBRANCH  26  29
ENDBRANCH   4  26
TORSDOF 4
ENDMDL
MODEL      134
REMARK 921   NORMALIZED FREE ENERGY PREDICTED BY IDOCK:   -1.80 KCAL/MOL
REMARK 922        TOTAL FREE ENERGY PREDICTED BY IDOCK:   -3.23 KCAL/MOL
REMARK 923 INTER-LIGAND FREE ENERGY PREDICTED BY IDOCK:   -2.18 KCAL/MOL
REMARK 924 INTRA-LIGAND FREE ENERGY PREDICTED BY IDOCK:   -1.05 KCAL/MOL
REMARK 927      BINDING AFFINITY PREDICTED BY RF-SCORE:    0.00 PKD
ROOT
HETATM    1 MG   UNL     1      -8.307   8.463  66.140  1.00  0.00    -0.096 Mg 
HETATM    2  C   UNL     2     -11.345  13.236  69.539  1.00  0.00    -0.170 C  
HETATM    3  O   UNL     2     -11.371  12.780  70.899  1.00  0.00     0.950 OA 
HETATM    4  C   UNL     3      -8.678  11.848  66.912  1.00  0.00    -0.191 C  
HETATM    5  H   UNL     2     -13.575   9.965  68.384  1.00  0.00     0.000 HD 
HETATM    6  O   UNL     3      -8.634  11.718  68.370  1.00  0.00    -0.160 OA 
HETATM    7  O   UNL     3      -9.891   8.466  67.583  1.00  0.00    -0.155 OA 
HETATM    8  C   UNL     3      -9.156  10.451  66.513  1.00  0.00    -0.155 C  
HETATM    9  C   UNL     2     -12.065  11.611  70.980  1.00  0.00    -0.107 C  
HETATM   10  O   UNL     2     -12.504  12.478  67.578  1.00  0.00    -0.130 OA 
HETATM   11  C   UNL     3      -9.295  10.609  68.784  1.00  0.00    -0.180 C  
HETATM   12  C   UNL     2     -12.600  11.311  69.643  1.00  0.00     0.022 C  
HETATM   13  O   UNL     2     -13.229  10.158  69.248  1.00  0.00     0.875 OA 
HETATM   14  O   UNL     2     -12.216  10.946  71.989  1.00  0.00     0.125 OA 
HETATM   15  C   UNL     2     -12.287  12.296  68.802  1.00  0.00     0.307 C  
HETATM   16  O   UNL     3      -8.825  10.010  65.376  1.00  0.00    -0.155 OA 
HETATM   17  H   UNL     3     -10.124   7.970  66.807  1.00  0.00     0.000 HD 
HETATM   18  C   UNL     3      -9.656   9.842  67.583  1.00  0.00    -0.145 C  
HETATM   19  O   UNL     3      -9.284  10.114  69.897  1.00  0.00    -0.192 OA 
ENDROOT
BRANCH   2  20
HETATM   20  C   UNL     2     -11.449  14.766  69.475  1.00  0.00    -0.298 C  
HETATM   21  O   UNL     2     -12.509  15.248  68.625  1.00  0.00    -0.542 OA 
HETATM   22  H   UNL     2     -12.574  16.194  68.586  1.00  0.00     0.000 HD 
BRANCH  20  23
HETATM   23  C   UNL     2     -11.544  15.428  70.840  1.00  0.00    -0.358 C  
HETATM   24  H   UNL     2     -12.961  16.236  71.929  1.00  0.00     0.000 HD 
HETATM   25  O   UNL     2     -12.901  15.822  71.076  1.00  0.00    -0.475 OA 
ENDBRANCH  20  23
ENDBRANCH   2  20
BRANCH   4  26
HETATM   26  C   UNL     3      -9.416  13.172  66.574  1.00  0.00    -0.243 C  
HETATM   27  H   UNL     3      -8.922  15.063  66.585  1.00  0.00     0.000 HD 
HETATM   28  O   UNL     3      -8.470  14.253  66.792  1.00  0.00    -0.159 OA 
BRANCH  26  29
HETATM   29  C   UNL     3     -10.075  13.380  65.212  1.00  0.00    -0.249 C  
HETATM   30  O   UNL     3     -11.296  12.656  65.078  1.00  0.00    -0.294 OA 
HETATM   31  H   UNL     3     -11.706  12.785  64.231  1.00  0.00     0.000 HD 
ENDBRANCH  26  29
ENDBRANCH   4  26
TORSDOF 4
ENDMDL
MODEL      135
REMARK 921   NORMALIZED FREE ENERGY PREDICTED BY IDOCK:   -1.68 KCAL/MOL
REMARK 922        TOTAL FREE ENERGY PREDICTED BY IDOCK:   -3.09 KCAL/MOL
REMARK 923 INTER-LIGAND FREE ENERGY PREDICTED BY IDOCK:   -4.94 KCAL/MOL
REMARK 924 INTRA-LIGAND FREE ENERGY PREDICTED BY IDOCK:    1.85 KCAL/MOL
REMARK 927      BINDING AFFINITY PREDICTED BY RF-SCORE:    0.00 PKD
ROOT
HETATM    1 MG   UNL     1      -9.145   8.179  67.279  1.00  0.00    -0.124 Mg 
HETATM    2  C   UNL     2      -9.507  14.766  67.102  1.00  0.00    -0.227 C  
HETATM    3  O   UNL     2      -8.235  15.206  66.603  1.00  0.00    -0.202 OA 
HETATM    4  C   UNL     3     -10.876  11.082  66.403  1.00  0.00    -0.191 C  
HETATM    5  H   UNL     2      -7.644  13.018  70.340  1.00  0.00     0.000 HD 
HETATM    6  O   UNL     3      -9.774  11.761  65.717  1.00  0.00    -0.230 OA 
HETATM    7  O   UNL     3      -7.847   9.745  67.951  1.00  0.00    -0.090 OA 
HETATM    8  C   UNL     3     -10.102  10.152  67.338  1.00  0.00    -0.205 C  
HETATM    9  C   UNL     2      -7.243  14.798  67.441  1.00  0.00    -0.173 C  
HETATM   10  O   UNL     2     -10.141  13.761  69.188  1.00  0.00    -0.049 OA 
HETATM   11  C   UNL     3      -8.597  11.559  66.358  1.00  0.00    -0.159 C  
HETATM   12  C   UNL     2      -7.874  14.134  68.594  1.00  0.00    -0.137 C  
HETATM   13  O   UNL     2      -7.237  13.447  69.596  1.00  0.00     0.191 OA 
HETATM   14  O   UNL     2      -6.051  14.967  67.263  1.00  0.00    -0.312 OA 
HETATM   15  C   UNL     2      -9.199  14.194  68.478  1.00  0.00    -0.187 C  
HETATM   16  O   UNL     3     -10.653   9.073  67.696  1.00  0.00    -0.257 OA 
HETATM   17  H   UNL     3      -8.004   9.103  68.633  1.00  0.00     0.000 HD 
HETATM   18  C   UNL     3      -8.840  10.565  67.414  1.00  0.00    -0.132 C  
HETATM   19  O   UNL     3      -7.479  11.819  65.951  1.00  0.00     0.405 OA 
ENDROOT
BRANCH   2  20
HETATM   20  C   UNL     2     -10.589  15.824  66.844  1.00  0.00    -0.317 C  
HETATM   21  O   UNL     2     -11.427  16.096  67.985  1.00  0.00    -0.289 OA 
HETATM   22  H   UNL     2     -12.097  16.750  67.826  1.00  0.00     0.000 HD 
BRANCH  20  23
HETATM   23  C   UNL     2     -10.046  17.128  66.283  1.00  0.00    -0.320 C  
HETATM   24  H   UNL     2     -10.449  18.292  64.757  1.00  0.00     0.000 HD 
HETATM   25  O   UNL     2     -10.788  17.477  65.108  1.00  0.00    -0.642 OA 
ENDBRANCH  20  23
ENDBRANCH   2  20
BRANCH   4  26
HETATM   26  C   UNL     3     -11.891  12.164  66.861  1.00  0.00    -0.222 C  
HETATM   27  H   UNL     3     -12.246  13.091  68.545  1.00  0.00     0.000 HD 
HETATM   28  O   UNL     3     -11.625  12.429  68.265  1.00  0.00    -0.289 OA 
BRANCH  26  29
HETATM   29  C   UNL     3     -11.996  13.503  66.133  1.00  0.00    -0.412 C  
HETATM   30  O   UNL     3     -12.103  13.351  64.720  1.00  0.00    -0.371 OA 
HETATM   31  H   UNL     3     -12.168  14.184  64.267  1.00  0.00     0.000 HD 
ENDBRANCH  26  29
ENDBRANCH   4  26
TORSDOF 4
ENDMDL
MODEL      136
REMARK 921   NORMALIZED FREE ENERGY PREDICTED BY IDOCK:   -1.51 KCAL/MOL
REMARK 922        TOTAL FREE ENERGY PREDICTED BY IDOCK:   -2.88 KCAL/MOL
REMARK 923 INTER-LIGAND FREE ENERGY PREDICTED BY IDOCK:   -4.61 KCAL/MOL
REMARK 924 INTRA-LIGAND FREE ENERGY PREDICTED BY IDOCK:    1.73 KCAL/MOL
REMARK 927      BINDING AFFINITY PREDICTED BY RF-SCORE:    0.00 PKD
ROOT
HETATM    1 MG   UNL     1      -8.336   3.014  70.149  1.00  0.00    -0.045 Mg 
HETATM    2  C   UNL     2      -9.510   9.363  68.779  1.00  0.00    -0.150 C  
HETATM    3  O   UNL     2      -8.286  10.052  69.078  1.00  0.00    -0.115 OA 
HETATM    4  C   UNL     3      -9.574   5.452  67.978  1.00  0.00    -0.127 C  
HETATM    5  H   UNL     2      -9.800   8.147  72.709  1.00  0.00     0.000 HD 
HETATM    6  O   UNL     3      -8.404   6.333  67.992  1.00  0.00    -0.114 OA 
HETATM    7  O   UNL     3      -7.985   4.842  71.212  1.00  0.00    -0.091 OA 
HETATM    8  C   UNL     3      -9.411   4.737  69.319  1.00  0.00    -0.153 C  
HETATM    9  C   UNL     2      -7.975   9.890  70.393  1.00  0.00    -0.011 C  
HETATM   10  O   UNL     2     -11.132   8.304  70.196  1.00  0.00    -0.252 OA 
HETATM   11  C   UNL     3      -7.859   6.406  69.231  1.00  0.00    -0.106 C  
HETATM   12  C   UNL     2      -9.071   9.139  71.026  1.00  0.00    -0.237 C  
HETATM   13  O   UNL     2      -9.092   8.632  72.300  1.00  0.00    -0.259 OA 
HETATM   14  O   UNL     2      -6.970  10.306  70.940  1.00  0.00    -0.321 OA 
HETATM   15  C   UNL     2     -10.032   8.909  70.134  1.00  0.00    -0.185 C  
HETATM   16  O   UNL     3      -9.893   3.575  69.438  1.00  0.00    -0.076 OA 
HETATM   17  H   UNL     3      -8.430   4.200  71.754  1.00  0.00     0.000 HD 
HETATM   18  C   UNL     3      -8.547   5.413  70.070  1.00  0.00    -0.122 C  
HETATM   19  O   UNL     3      -6.785   6.889  69.538  1.00  0.00    -0.047 OA 
ENDROOT
BRANCH   2  20
HETATM   20  C   UNL     2     -10.348  10.156  67.766  1.00  0.00    -0.210 C  
HETATM   21  O   UNL     2     -11.552  10.725  68.319  1.00  0.00    -0.450 OA 
HETATM   22  H   UNL     2     -12.071  11.215  67.692  1.00  0.00     0.000 HD 
BRANCH  20  23
HETATM   23  C   UNL     2      -9.562  11.230  67.033  1.00  0.00    -0.178 C  
HETATM   24  H   UNL     2      -8.868  11.489  65.216  1.00  0.00     0.000 HD 
HETATM   25  O   UNL     2      -9.359  10.817  65.675  1.00  0.00    -0.189 OA 
ENDBRANCH  20  23
ENDBRANCH   2  20
BRANCH   4  26
HETATM   26  C   UNL     3     -10.806   6.304  67.566  1.00  0.00    -0.349 C  
HETATM   27  H   UNL     3     -12.350   7.039  68.513  1.00  0.00     0.000 HD 
HETATM   28  O   UNL     3     -11.596   6.518  68.765  1.00  0.00    -0.154 OA 
BRANCH  26  29
HETATM   29  C   UNL     3     -10.633   7.648  66.860  1.00  0.00    -0.289 C  
HETATM   30  O   UNL     3      -9.702   7.586  65.783  1.00  0.00    -0.379 OA 
HETATM   31  H   UNL     3      -9.594   8.421  65.345  1.00  0.00     0.000 HD 
ENDBRANCH  26  29
ENDBRANCH   4  26
TORSDOF 4
ENDMDL
MODEL      137
REMARK 921   NORMALIZED FREE ENERGY PREDICTED BY IDOCK:   -1.27 KCAL/MOL
REMARK 922        TOTAL FREE ENERGY PREDICTED BY IDOCK:   -2.58 KCAL/MOL
REMARK 923 INTER-LIGAND FREE ENERGY PREDICTED BY IDOCK:   -1.85 KCAL/MOL
REMARK 924 INTRA-LIGAND FREE ENERGY PREDICTED BY IDOCK:   -0.73 KCAL/MOL
REMARK 927      BINDING AFFINITY PREDICTED BY RF-SCORE:    0.00 PKD
ROOT
HETATM    1 MG   UNL     1     -12.329  14.998  72.904  1.00  0.00    -0.297 Mg 
HETATM    2  C   UNL     2     -10.503  14.890  66.563  1.00  0.00    -0.297 C  
HETATM    3  O   UNL     2     -11.722  14.981  65.811  1.00  0.00    -0.251 OA 
HETATM    4  C   UNL     3     -10.265  16.161  70.340  1.00  0.00     0.375 C  
HETATM    5  H   UNL     2     -11.797  11.362  68.263  1.00  0.00     0.000 HD 
HETATM    6  O   UNL     3     -11.319  16.465  69.369  1.00  0.00    -0.296 OA 
HETATM    7  O   UNL     3     -13.002  13.895  71.194  1.00  0.00    -0.330 OA 
HETATM    8  C   UNL     3     -10.959  15.100  71.194  1.00  0.00    -0.136 C  
HETATM    9  C   UNL     2     -12.524  13.919  66.103  1.00  0.00    -0.436 C  
HETATM   10  O   UNL     2      -9.592  13.132  67.921  1.00  0.00    -0.204 OA 
HETATM   11  C   UNL     3     -12.298  15.529  69.398  1.00  0.00    -0.112 C  
HETATM   12  C   UNL     2     -11.784  13.034  67.017  1.00  0.00    -0.383 C  
HETATM   13  O   UNL     2     -12.275  11.934  67.672  1.00  0.00    -0.510 OA 
HETATM   14  O   UNL     2     -13.648  13.741  65.670  1.00  0.00    -0.406 OA 
HETATM   15  C   UNL     2     -10.561  13.519  67.220  1.00  0.00    -0.263 C  
HETATM   16  O   UNL     3     -10.600  14.977  72.399  1.00  0.00     0.718 OA 
HETATM   17  H   UNL     3     -12.824  13.324  71.933  1.00  0.00     0.000 HD 
HETATM   18  C   UNL     3     -12.023  14.644  70.540  1.00  0.00    -0.310 C  
HETATM   19  O   UNL     3     -13.391  15.585  68.864  1.00  0.00     1.656 OA 
ENDROOT
BRANCH   2  20
HETATM   20  C   UNL     2      -9.312  15.384  65.730  1.00  0.00    -0.229 C  
HETATM   21  O   UNL     2      -9.454  15.161  64.312  1.00  0.00     0.687 OA 
HETATM   22  H   UNL     2      -8.717  15.466  63.797  1.00  0.00     0.000 HD 
BRANCH  20  23
HETATM   23  C   UNL     2      -8.948  16.836  65.987  1.00  0.00    -0.185 C  
HETATM   24  H   UNL     2      -9.732  18.588  65.581  1.00  0.00     0.000 HD 
HETATM   25  O   UNL     2      -9.958  17.680  65.420  1.00  0.00    -0.388 OA 
ENDBRANCH  20  23
ENDBRANCH   2  20
BRANCH   4  26
HETATM   26  C   UNL     3      -8.942  15.949  69.555  1.00  0.00    -0.135 C  
HETATM   27  H   UNL     3      -7.639  17.135  68.709  1.00  0.00     0.000 HD 
HETATM   28  O   UNL     3      -8.448  17.265  69.189  1.00  0.00    -0.138 OA 
BRANCH  26  29
HETATM   29  C   UNL     3      -7.786  15.156  70.162  1.00  0.00     0.344 C  
HETATM   30  O   UNL     3      -7.495  13.966  69.435  1.00  0.00    -0.322 OA 
HETATM   31  H   UNL     3      -6.777  13.473  69.813  1.00  0.00     0.000 HD 
ENDBRANCH  26  29
ENDBRANCH   4  26
TORSDOF 4
ENDMDL
MODEL      138
REMARK 921   NORMALIZED FREE ENERGY PREDICTED BY IDOCK:   -1.04 KCAL/MOL
REMARK 922        TOTAL FREE ENERGY PREDICTED BY IDOCK:   -2.29 KCAL/MOL
REMARK 923 INTER-LIGAND FREE ENERGY PREDICTED BY IDOCK:   -1.84 KCAL/MOL
REMARK 924 INTRA-LIGAND FREE ENERGY PREDICTED BY IDOCK:   -0.45 KCAL/MOL
REMARK 927      BINDING AFFINITY PREDICTED BY RF-SCORE:    0.00 PKD
ROOT
HETATM    1 MG   UNL     1      -7.715   2.589  70.651  1.00  0.00    -0.039 Mg 
HETATM    2  C   UNL     2      -7.418   8.459  67.646  1.00  0.00    -0.094 C  
HETATM    3  O   UNL     2      -7.980   8.250  66.342  1.00  0.00    -0.093 OA 
HETATM    4  C   UNL     3      -8.261   6.038  70.707  1.00  0.00    -0.125 C  
HETATM    5  H   UNL     2      -4.454   5.712  66.822  1.00  0.00     0.000 HD 
HETATM    6  O   UNL     3      -8.980   6.138  69.435  1.00  0.00    -0.127 OA 
HETATM    7  O   UNL     3      -7.037   3.225  68.720  1.00  0.00    -0.048 OA 
HETATM    8  C   UNL     3      -7.451   4.761  70.479  1.00  0.00    -0.057 C  
HETATM    9  C   UNL     2      -7.247   7.322  65.667  1.00  0.00    -0.070 C  
HETATM   10  O   UNL     2      -5.364   7.710  68.637  1.00  0.00    -0.024 OA 
HETATM   11  C   UNL     3      -8.444   5.314  68.501  1.00  0.00    -0.092 C  
HETATM   12  C   UNL     2      -6.099   6.955  66.510  1.00  0.00    -0.034 C  
HETATM   13  O   UNL     2      -5.196   5.949  66.277  1.00  0.00    -0.008 OA 
HETATM   14  O   UNL     2      -7.502   6.889  64.558  1.00  0.00    -0.084 OA 
HETATM   15  C   UNL     2      -6.111   7.679  67.627  1.00  0.00    -0.048 C  
HETATM   16  O   UNL     3      -7.127   4.072  71.488  1.00  0.00    -0.036 OA 
HETATM   17  H   UNL     3      -6.390   2.685  69.159  1.00  0.00     0.000 HD 
HETATM   18  C   UNL     3      -7.442   4.478  69.180  1.00  0.00    -0.056 C  
HETATM   19  O   UNL     3      -8.914   5.019  67.418  1.00  0.00    -0.109 OA 
ENDROOT
BRANCH   2  20
HETATM   20  C   UNL     2      -7.522   9.934  68.055  1.00  0.00    -0.085 C  
HETATM   21  O   UNL     2      -6.503  10.361  68.981  1.00  0.00    -0.050 OA 
HETATM   22  H   UNL     2      -6.567  11.273  69.234  1.00  0.00     0.000 HD 
BRANCH  20  23
HETATM   23  C   UNL     2      -7.578  10.891  66.876  1.00  0.00    -0.128 C  
HETATM   24  H   UNL     2      -8.928  12.051  66.051  1.00  0.00     0.000 HD 
HETATM   25  O   UNL     2      -8.893  11.452  66.788  1.00  0.00    -0.166 OA 
ENDBRANCH  20  23
ENDBRANCH   2  20
BRANCH   4  26
HETATM   26  C   UNL     3      -7.656   7.432  71.023  1.00  0.00    -0.086 C  
HETATM   27  H   UNL     3      -8.254   8.995  72.033  1.00  0.00     0.000 HD 
HETATM   28  O   UNL     3      -8.625   8.141  71.840  1.00  0.00    -0.124 OA 
BRANCH  26  29
HETATM   29  C   UNL     3      -6.285   7.563  71.684  1.00  0.00    -0.036 C  
HETATM   30  O   UNL     3      -5.259   6.895  70.956  1.00  0.00    -0.022 OA 
HETATM   31  H   UNL     3      -4.407   6.976  71.367  1.00  0.00     0.000 HD 
ENDBRANCH  26  29
ENDBRANCH   4  26
TORSDOF 4
ENDMDL
MODEL      139
REMARK 921   NORMALIZED FREE ENERGY PREDICTED BY IDOCK:   -1.03 KCAL/MOL
REMARK 922        TOTAL FREE ENERGY PREDICTED BY IDOCK:   -2.28 KCAL/MOL
REMARK 923 INTER-LIGAND FREE ENERGY PREDICTED BY IDOCK:   -4.48 KCAL/MOL
REMARK 924 INTRA-LIGAND FREE ENERGY PREDICTED BY IDOCK:    2.20 KCAL/MOL
REMARK 927      BINDING AFFINITY PREDICTED BY RF-SCORE:    0.00 PKD
ROOT
HETATM    1 MG   UNL     1      -8.098   7.255  67.780  1.00  0.00    -0.100 Mg 
HETATM    2  C   UNL     2     -10.647  13.128  66.176  1.00  0.00    -0.279 C  
HETATM    3  O   UNL     2     -10.514  13.937  67.354  1.00  0.00    -0.260 OA 
HETATM    4  C   UNL     3      -8.335   9.934  65.553  1.00  0.00    -0.140 C  
HETATM    5  H   UNL     2     -13.038  10.483  68.249  1.00  0.00     0.000 HD 
HETATM    6  O   UNL     3      -8.115  11.009  66.523  1.00  0.00    -0.151 OA 
HETATM    7  O   UNL     3      -9.495   8.567  68.738  1.00  0.00    -0.143 OA 
HETATM    8  C   UNL     3      -8.873   8.830  66.464  1.00  0.00    -0.131 C  
HETATM    9  C   UNL     2     -11.206  13.374  68.382  1.00  0.00    -0.279 C  
HETATM   10  O   UNL     2     -12.044  11.237  65.689  1.00  0.00     0.302 OA 
HETATM   11  C   UNL     3      -8.734  10.743  67.699  1.00  0.00    -0.126 C  
HETATM   12  C   UNL     2     -11.903  12.188  67.859  1.00  0.00    -0.269 C  
HETATM   13  O   UNL     2     -12.588  11.249  68.587  1.00  0.00    -0.295 OA 
HETATM   14  O   UNL     2     -11.241  13.792  69.525  1.00  0.00    -0.236 OA 
HETATM   15  C   UNL     2     -11.683  12.078  66.550  1.00  0.00    -0.256 C  
HETATM   16  O   UNL     3      -8.688   7.629  66.119  1.00  0.00    -0.143 OA 
HETATM   17  H   UNL     3      -9.827   7.678  68.688  1.00  0.00     0.000 HD 
HETATM   18  C   UNL     3      -9.247   9.367  67.622  1.00  0.00    -0.127 C  
HETATM   19  O   UNL     3      -8.593  11.328  68.758  1.00  0.00    -0.158 OA 
ENDROOT
BRANCH   2  20
HETATM   20  C   UNL     2     -10.741  14.005  64.920  1.00  0.00    -0.418 C  
HETATM   21  O   UNL     2     -12.009  13.921  64.239  1.00  0.00    -0.425 OA 
HETATM   22  H   UNL     2     -12.067  14.463  63.461  1.00  0.00     0.000 HD 
BRANCH  20  23
HETATM   23  C   UNL     2     -10.385  15.461  65.164  1.00  0.00    -0.374 C  
HETATM   24  H   UNL     2     -10.999  17.203  64.503  1.00  0.00     0.000 HD 
HETATM   25  O   UNL     2     -11.222  16.292  64.350  1.00  0.00    -0.716 OA 
ENDBRANCH  20  23
ENDBRANCH   2  20
BRANCH   4  26
HETATM   26  C   UNL     3      -9.093  10.535  64.339  1.00  0.00    -0.225 C  
HETATM   27  H   UNL     3     -10.969  10.635  63.800  1.00  0.00     0.000 HD 
HETATM   28  O   UNL     3     -10.505  10.267  64.544  1.00  0.00    -0.159 OA 
BRANCH  26  29
HETATM   29  C   UNL     3      -8.935  12.008  63.964  1.00  0.00     0.762 C  
HETATM   30  O   UNL     3      -9.441  12.299  62.664  1.00  0.00    -0.131 OA 
HETATM   31  H   UNL     3      -9.342  13.215  62.430  1.00  0.00     0.000 HD 
ENDBRANCH  26  29
ENDBRANCH   4  26
TORSDOF 4
ENDMDL
MODEL      140
REMARK 921   NORMALIZED FREE ENERGY PREDICTED BY IDOCK:   -0.59 KCAL/MOL
REMARK 922        TOTAL FREE ENERGY PREDICTED BY IDOCK:   -1.73 KCAL/MOL
REMARK 923 INTER-LIGAND FREE ENERGY PREDICTED BY IDOCK:   -2.30 KCAL/MOL
REMARK 924 INTRA-LIGAND FREE ENERGY PREDICTED BY IDOCK:    0.57 KCAL/MOL
REMARK 927      BINDING AFFINITY PREDICTED BY RF-SCORE:    0.00 PKD
ROOT
HETATM    1 MG   UNL     1     -12.416  13.117  68.450  1.00  0.00    -0.307 Mg 
HETATM    2  C   UNL     2      -8.162   8.157  67.521  1.00  0.00    -0.123 C  
HETATM    3  O   UNL     2      -8.971   7.006  67.237  1.00  0.00    -0.118 OA 
HETATM    4  C   UNL     3      -9.518  11.869  66.954  1.00  0.00    -0.199 C  
HETATM    5  H   UNL     2      -9.941   8.511  71.225  1.00  0.00     0.000 HD 
HETATM    6  O   UNL     3     -10.093  10.628  66.431  1.00  0.00    -0.211 OA 
HETATM    7  O   UNL     3     -12.303  11.111  69.197  1.00  0.00    -0.473 OA 
HETATM    8  C   UNL     3     -10.471  12.159  68.115  1.00  0.00    -0.211 C  
HETATM    9  C   UNL     2      -9.793   6.749  68.292  1.00  0.00    -0.142 C  
HETATM   10  O   UNL     2      -7.837   9.422  69.535  1.00  0.00    -0.078 OA 
HETATM   11  C   UNL     3     -10.973  10.086  67.307  1.00  0.00    -0.156 C  
HETATM   12  C   UNL     2      -9.466   7.705  69.361  1.00  0.00    -0.152 C  
HETATM   13  O   UNL     2     -10.152   7.893  70.535  1.00  0.00    -0.191 OA 
HETATM   14  O   UNL     2     -10.638   5.873  68.334  1.00  0.00    -0.216 OA 
HETATM   15  C   UNL     2      -8.445   8.472  68.983  1.00  0.00    -0.126 C  
HETATM   16  O   UNL     3     -10.631  13.362  68.468  1.00  0.00    -0.244 OA 
HETATM   17  H   UNL     3     -12.426  11.741  69.898  1.00  0.00     0.000 HD 
HETATM   18  C   UNL     3     -11.164  11.059  68.393  1.00  0.00    -0.274 C  
HETATM   19  O   UNL     3     -11.755   9.175  67.103  1.00  0.00     1.562 OA 
ENDROOT
BRANCH   2  20
HETATM   20  C   UNL     2      -6.749   7.984  66.948  1.00  0.00    -0.064 C  
HETATM   21  O   UNL     2      -6.714   7.801  65.518  1.00  0.00    -0.045 OA 
HETATM   22  H   UNL     2      -5.840   7.693  65.163  1.00  0.00     0.000 HD 
BRANCH  20  23
HETATM   23  C   UNL     2      -5.788   9.092  67.347  1.00  0.00    -0.046 C  
HETATM   24  H   UNL     2      -4.790  10.505  66.423  1.00  0.00     0.000 HD 
HETATM   25  O   UNL     2      -5.391   9.813  66.174  1.00  0.00    -0.038 OA 
ENDBRANCH  20  23
ENDBRANCH   2  20
BRANCH   4  26
HETATM   26  C   UNL     3      -7.985  11.664  67.090  1.00  0.00    -0.163 C  
HETATM   27  H   UNL     3      -6.560  11.094  65.879  1.00  0.00     0.000 HD 
HETATM   28  O   UNL     3      -7.499  11.220  65.795  1.00  0.00     0.076 OA 
BRANCH  26  29
HETATM   29  C   UNL     3      -7.080  12.793  67.580  1.00  0.00    -0.148 C  
HETATM   30  O   UNL     3      -7.087  13.918  66.705  1.00  0.00    -0.216 OA 
HETATM   31  H   UNL     3      -6.524  14.621  67.009  1.00  0.00     0.000 HD 
ENDBRANCH  26  29
ENDBRANCH   4  26
TORSDOF 4
ENDMDL
MODEL      141
REMARK 921   NORMALIZED FREE ENERGY PREDICTED BY IDOCK:   -0.21 KCAL/MOL
REMARK 922        TOTAL FREE ENERGY PREDICTED BY IDOCK:   -1.28 KCAL/MOL
REMARK 923 INTER-LIGAND FREE ENERGY PREDICTED BY IDOCK:   -0.83 KCAL/MOL
REMARK 924 INTRA-LIGAND FREE ENERGY PREDICTED BY IDOCK:   -0.45 KCAL/MOL
REMARK 927      BINDING AFFINITY PREDICTED BY RF-SCORE:    0.00 PKD
ROOT
HETATM    1 MG   UNL     1     -11.076   3.667  73.600  1.00  0.00    -0.145 Mg 
HETATM    2  C   UNL     2      -7.991   4.936  67.905  1.00  0.00    -0.093 C  
HETATM    3  O   UNL     2      -7.520   3.665  67.433  1.00  0.00    -0.066 OA 
HETATM    4  C   UNL     3     -11.033   5.223  70.475  1.00  0.00     0.093 C  
HETATM    5  H   UNL     2      -5.690   4.544  71.305  1.00  0.00     0.000 HD 
HETATM    6  O   UNL     3     -10.652   4.052  69.683  1.00  0.00     0.884 OA 
HETATM    7  O   UNL     3      -9.175   3.094  72.793  1.00  0.00    -0.089 OA 
HETATM    8  C   UNL     3     -10.474   4.838  71.845  1.00  0.00    -0.130 C  
HETATM    9  C   UNL     2      -6.659   3.126  68.341  1.00  0.00    -0.037 C  
HETATM   10  O   UNL     2      -7.317   6.300  69.761  1.00  0.00    -0.075 OA 
HETATM   11  C   UNL     3      -9.739   3.292  70.337  1.00  0.00    -0.055 C  
HETATM   12  C   UNL     2      -6.475   4.107  69.423  1.00  0.00    -0.033 C  
HETATM   13  O   UNL     2      -5.809   3.911  70.606  1.00  0.00    -0.013 OA 
HETATM   14  O   UNL     2      -6.134   2.031  68.256  1.00  0.00    -0.023 OA 
HETATM   15  C   UNL     2      -7.156   5.217  69.145  1.00  0.00    -0.057 C  
HETATM   16  O   UNL     3     -11.034   5.314  72.873  1.00  0.00    -0.245 OA 
HETATM   17  H   UNL     3      -9.091   3.448  73.671  1.00  0.00     0.000 HD 
HETATM   18  C   UNL     3      -9.610   3.839  71.696  1.00  0.00    -0.157 C  
HETATM   19  O   UNL     3      -9.366   2.170  70.046  1.00  0.00    -0.114 OA 
ENDROOT
BRANCH   2  20
HETATM   20  C   UNL     2      -8.146   5.925  66.741  1.00  0.00    -0.102 C  
HETATM   21  O   UNL     2      -6.911   6.232  66.063  1.00  0.00    -0.062 OA 
HETATM   22  H   UNL     2      -7.007   6.844  65.344  1.00  0.00     0.000 HD 
BRANCH  20  23
HETATM   23  C   UNL     2      -9.200   5.513  65.727  1.00  0.00    -0.120 C  
HETATM   24  H   UNL     2      -9.982   6.283  64.101  1.00  0.00     0.000 HD 
HETATM   25  O   UNL     2      -9.324   6.541  64.735  1.00  0.00     0.765 OA 
ENDBRANCH  20  23
ENDBRANCH   2  20
BRANCH   4  26
HETATM   26  C   UNL     3     -10.631   6.491  69.673  1.00  0.00    -0.243 C  
HETATM   27  H   UNL     3     -10.811   7.056  67.811  1.00  0.00     0.000 HD 
HETATM   28  O   UNL     3     -11.058   6.280  68.301  1.00  0.00    -0.324 OA 
BRANCH  26  29
HETATM   29  C   UNL     3     -11.096   7.879  70.111  1.00  0.00    -0.201 C  
HETATM   30  O   UNL     3     -10.046   8.653  70.684  1.00  0.00    -0.186 OA 
HETATM   31  H   UNL     3     -10.334   9.516  70.957  1.00  0.00     0.000 HD 
ENDBRANCH  26  29
ENDBRANCH   4  26
TORSDOF 4
ENDMDL
MODEL      142
REMARK 921   NORMALIZED FREE ENERGY PREDICTED BY IDOCK:   -0.08 KCAL/MOL
REMARK 922        TOTAL FREE ENERGY PREDICTED BY IDOCK:   -1.10 KCAL/MOL
REMARK 923 INTER-LIGAND FREE ENERGY PREDICTED BY IDOCK:   -0.74 KCAL/MOL
REMARK 924 INTRA-LIGAND FREE ENERGY PREDICTED BY IDOCK:   -0.37 KCAL/MOL
REMARK 927      BINDING AFFINITY PREDICTED BY RF-SCORE:    0.00 PKD
ROOT
HETATM    1 MG   UNL     1      -5.190   9.623  65.412  1.00  0.00    -0.035 Mg 
HETATM    2  C   UNL     2      -8.905   4.743  67.852  1.00  0.00    -0.105 C  
HETATM    3  O   UNL     2      -9.270   5.165  69.174  1.00  0.00    -0.102 OA 
HETATM    4  C   UNL     3      -7.825   7.362  65.038  1.00  0.00    -0.124 C  
HETATM    5  H   UNL     2      -4.919   4.850  68.904  1.00  0.00     0.000 HD 
HETATM    6  O   UNL     3      -8.506   7.652  66.302  1.00  0.00    -0.124 OA 
HETATM    7  O   UNL     3      -5.186   8.554  67.269  1.00  0.00    -0.032 OA 
HETATM    8  C   UNL     3      -6.397   7.790  65.377  1.00  0.00    -0.041 C  
HETATM    9  C   UNL     2      -8.150   5.344  69.927  1.00  0.00    -0.088 C  
HETATM   10  O   UNL     2      -6.802   4.061  66.918  1.00  0.00    -0.052 OA 
HETATM   11  C   UNL     3      -7.617   7.860  67.303  1.00  0.00    -0.101 C  
HETATM   12  C   UNL     2      -6.991   4.945  69.112  1.00  0.00    -0.051 C  
HETATM   13  O   UNL     2      -5.667   5.108  69.430  1.00  0.00    -0.014 OA 
HETATM   14  O   UNL     2      -8.125   5.752  71.074  1.00  0.00    -0.115 OA 
HETATM   15  C   UNL     2      -7.407   4.489  67.932  1.00  0.00    -0.066 C  
HETATM   16  O   UNL     3      -5.652   8.181  64.434  1.00  0.00    -0.047 OA 
HETATM   17  H   UNL     3      -4.321   8.579  66.877  1.00  0.00     0.000 HD 
HETATM   18  C   UNL     3      -6.278   7.899  66.697  1.00  0.00    -0.050 C  
HETATM   19  O   UNL     3      -7.844   8.304  68.414  1.00  0.00    -0.113 OA 
ENDROOT
BRANCH   2  20
HETATM   20  C   UNL     2      -9.913   3.721  67.308  1.00  0.00     0.191 C  
HETATM   21  O   UNL     2     -10.775   4.240  66.275  1.00  0.00    -0.315 OA 
HETATM   22  H   UNL     2     -11.399   3.608  65.939  1.00  0.00     0.000 HD 
BRANCH  20  23
HETATM   23  C   UNL     2      -9.275   2.424  66.840  1.00  0.00    -0.060 C  
HETATM   24  H   UNL     2      -8.476   0.848  67.692  1.00  0.00     0.000 HD 
HETATM   25  O   UNL     2      -8.875   1.659  67.984  1.00  0.00    -0.089 OA 
ENDBRANCH  20  23
ENDBRANCH   2  20
BRANCH   4  26
HETATM   26  C   UNL     3      -8.244   5.936  64.588  1.00  0.00    -0.120 C  
HETATM   27  H   UNL     3      -9.950   5.049  64.238  1.00  0.00     0.000 HD 
HETATM   28  O   UNL     3      -9.694   5.922  64.513  1.00  0.00     1.061 OA 
BRANCH  26  29
HETATM   29  C   UNL     3      -7.693   5.323  63.301  1.00  0.00    -0.075 C  
HETATM   30  O   UNL     3      -7.827   3.905  63.268  1.00  0.00    -0.072 OA 
HETATM   31  H   UNL     3      -7.484   3.524  62.469  1.00  0.00     0.000 HD 
ENDBRANCH  26  29
ENDBRANCH   4  26
TORSDOF 4
ENDMDL
MODEL      143
REMARK 921   NORMALIZED FREE ENERGY PREDICTED BY IDOCK:    0.12 KCAL/MOL
REMARK 922        TOTAL FREE ENERGY PREDICTED BY IDOCK:   -0.86 KCAL/MOL
REMARK 923 INTER-LIGAND FREE ENERGY PREDICTED BY IDOCK:   -0.44 KCAL/MOL
REMARK 924 INTRA-LIGAND FREE ENERGY PREDICTED BY IDOCK:   -0.42 KCAL/MOL
REMARK 927      BINDING AFFINITY PREDICTED BY RF-SCORE:    0.00 PKD
ROOT
HETATM    1 MG   UNL     1      -6.435  16.327  69.112  1.00  0.00    -0.121 Mg 
HETATM    2  C   UNL     2     -10.252  11.085  67.881  1.00  0.00    -0.182 C  
HETATM    3  O   UNL     2     -11.416  11.605  67.221  1.00  0.00    -0.386 OA 
HETATM    4  C   UNL     3      -6.789  13.071  67.902  1.00  0.00    -0.130 C  
HETATM    5  H   UNL     2     -11.107  13.360  71.213  1.00  0.00     0.000 HD 
HETATM    6  O   UNL     3      -7.942  13.314  67.033  1.00  0.00    -0.106 OA 
HETATM    7  O   UNL     3      -8.516  15.913  69.417  1.00  0.00    -0.255 OA 
HETATM    8  C   UNL     3      -6.950  14.203  68.917  1.00  0.00    -0.109 C  
HETATM    9  C   UNL     2     -12.054  12.488  68.039  1.00  0.00    -0.063 C  
HETATM   10  O   UNL     2      -9.480  11.281  70.145  1.00  0.00     1.334 OA 
HETATM   11  C   UNL     3      -8.818  14.174  67.608  1.00  0.00    -0.194 C  
HETATM   12  C   UNL     2     -11.346  12.499  69.329  1.00  0.00    -0.245 C  
HETATM   13  O   UNL     2     -11.564  13.353  70.380  1.00  0.00    -0.155 OA 
HETATM   14  O   UNL     2     -13.040  13.139  67.746  1.00  0.00     1.457 OA 
HETATM   15  C   UNL     2     -10.353  11.611  69.305  1.00  0.00     0.069 C  
HETATM   16  O   UNL     3      -5.912  14.644  69.488  1.00  0.00    -0.097 OA 
HETATM   17  H   UNL     3      -8.105  16.248  70.206  1.00  0.00     0.000 HD 
HETATM   18  C   UNL     3      -8.183  14.693  68.829  1.00  0.00    -0.156 C  
HETATM   19  O   UNL     3      -9.767  14.725  67.081  1.00  0.00    -0.226 OA 
ENDROOT
BRANCH   2  20
HETATM   20  C   UNL     2     -10.046   9.604  67.534  1.00  0.00    -0.197 C  
HETATM   21  O   UNL     2      -9.277   9.383  66.335  1.00  0.00    -0.151 OA 
HETATM   22  H   UNL     2      -9.149   8.467  66.120  1.00  0.00     0.000 HD 
BRANCH  20  23
HETATM   23  C   UNL     2      -9.464   8.786  68.675  1.00  0.00    -0.141 C  
HETATM   24  H   UNL     2      -8.866   6.936  68.933  1.00  0.00     0.000 HD 
HETATM   25  O   UNL     2      -9.230   7.447  68.220  1.00  0.00    -0.138 OA 
ENDBRANCH  20  23
ENDBRANCH   2  20
BRANCH   4  26
HETATM   26  C   UNL     3      -6.766  11.558  68.251  1.00  0.00    -0.064 C  
HETATM   27  H   UNL     3      -6.890   9.905  67.216  1.00  0.00     0.000 HD 
HETATM   28  O   UNL     3      -6.904  10.830  67.002  1.00  0.00    -0.083 OA 
BRANCH  26  29
HETATM   29  C   UNL     3      -5.604  10.948  69.034  1.00  0.00    -0.040 C  
HETATM   30  O   UNL     3      -6.024  10.340  70.253  1.00  0.00    -0.065 OA 
HETATM   31  H   UNL     3      -5.302   9.962  70.740  1.00  0.00     0.000 HD 
ENDBRANCH  26  29
ENDBRANCH   4  26
TORSDOF 4
ENDMDL
MODEL      144
REMARK 921   NORMALIZED FREE ENERGY PREDICTED BY IDOCK:    1.56 KCAL/MOL
REMARK 922        TOTAL FREE ENERGY PREDICTED BY IDOCK:    0.91 KCAL/MOL
REMARK 923 INTER-LIGAND FREE ENERGY PREDICTED BY IDOCK:    2.03 KCAL/MOL
REMARK 924 INTRA-LIGAND FREE ENERGY PREDICTED BY IDOCK:   -1.12 KCAL/MOL
REMARK 927      BINDING AFFINITY PREDICTED BY RF-SCORE:    0.00 PKD
ROOT
HETATM    1 MG   UNL     1     -11.261  13.571  63.900  1.00  0.00    -0.350 Mg 
HETATM    2  C   UNL     2      -7.332  13.239  69.193  1.00  0.00     0.115 C  
HETATM    3  O   UNL     2      -6.534  12.062  69.003  1.00  0.00    -0.076 OA 
HETATM    4  C   UNL     3      -9.059  15.120  66.123  1.00  0.00    -0.241 C  
HETATM    5  H   UNL     2     -10.754  10.937  69.177  1.00  0.00     0.000 HD 
HETATM    6  O   UNL     3      -7.990  14.121  66.060  1.00  0.00     1.438 OA 
HETATM    7  O   UNL     3     -10.750  11.997  65.260  1.00  0.00    -0.269 OA 
HETATM    8  C   UNL     3     -10.268  14.272  65.726  1.00  0.00    -0.334 C  
HETATM    9  C   UNL     2      -7.338  10.966  68.928  1.00  0.00    -0.111 C  
HETATM   10  O   UNL     2      -9.668  13.524  69.667  1.00  0.00     0.816 OA 
HETATM   11  C   UNL     3      -8.495  12.864  66.002  1.00  0.00     0.919 C  
HETATM   12  C   UNL     2      -8.722  11.407  69.161  1.00  0.00     0.202 C  
HETATM   13  O   UNL     2      -9.860  10.652  69.026  1.00  0.00    -0.193 OA 
HETATM   14  O   UNL     2      -6.965   9.827  68.714  1.00  0.00    -0.064 OA 
HETATM   15  C   UNL     2      -8.741  12.712  69.425  1.00  0.00     1.282 C  
HETATM   16  O   UNL     3     -11.244  14.849  65.169  1.00  0.00    -0.352 OA 
HETATM   17  H   UNL     3     -11.691  12.075  65.152  1.00  0.00     0.000 HD 
HETATM   18  C   UNL     3      -9.950  12.985  65.835  1.00  0.00    -0.267 C  
HETATM   19  O   UNL     3      -7.892  11.836  65.752  1.00  0.00     0.389 OA 
ENDROOT
BRANCH   2  20
HETATM   20  C   UNL     2      -6.630  14.229  70.132  1.00  0.00    -0.070 C  
HETATM   21  O   UNL     2      -7.492  15.263  70.647  1.00  0.00     0.304 OA 
HETATM   22  H   UNL     2      -7.058  15.876  71.228  1.00  0.00     0.000 HD 
BRANCH  20  23
HETATM   23  C   UNL     2      -5.888  13.562  71.278  1.00  0.00    -0.050 C  
HETATM   24  H   UNL     2      -4.693  14.139  72.722  1.00  0.00     0.000 HD 
HETATM   25  O   UNL     2      -5.157  14.556  72.006  1.00  0.00    -0.151 OA 
ENDBRANCH  20  23
ENDBRANCH   2  20
BRANCH   4  26
HETATM   26  C   UNL     3      -8.912  15.890  67.464  1.00  0.00    -0.194 C  
HETATM   27  H   UNL     3      -7.611  17.156  68.187  1.00  0.00     0.000 HD 
HETATM   28  O   UNL     3      -7.701  16.685  67.367  1.00  0.00    -0.150 OA 
BRANCH  26  29
HETATM   29  C   UNL     3     -10.034  16.788  67.982  1.00  0.00    -0.272 C  
HETATM   30  O   UNL     3     -10.413  16.475  69.320  1.00  0.00    -0.285 OA 
HETATM   31  H   UNL     3     -11.111  17.033  69.642  1.00  0.00     0.000 HD 
ENDBRANCH  26  29
ENDBRANCH   4  26
TORSDOF 4
ENDMDL
MODEL      145
REMARK 921   NORMALIZED FREE ENERGY PREDICTED BY IDOCK:    4.15 KCAL/MOL
REMARK 922        TOTAL FREE ENERGY PREDICTED BY IDOCK:    4.11 KCAL/MOL
REMARK 923 INTER-LIGAND FREE ENERGY PREDICTED BY IDOCK:    3.79 KCAL/MOL
REMARK 924 INTRA-LIGAND FREE ENERGY PREDICTED BY IDOCK:    0.32 KCAL/MOL
REMARK 927      BINDING AFFINITY PREDICTED BY RF-SCORE:    0.00 PKD
ROOT
HETATM    1 MG   UNL     1     -11.614  16.238  73.587  1.00  0.00    -0.386 Mg 
HETATM    2  C   UNL     2     -10.792  14.849  67.188  1.00  0.00    -0.311 C  
HETATM    3  O   UNL     2     -11.424  13.575  66.988  1.00  0.00    -0.311 OA 
HETATM    4  C   UNL     3     -11.777  17.224  70.241  1.00  0.00     2.392 C  
HETATM    5  H   UNL     2      -8.181  13.145  69.888  1.00  0.00     0.000 HD 
HETATM    6  O   UNL     3     -12.528  16.072  69.739  1.00  0.00    -0.170 OA 
HETATM    7  O   UNL     3     -10.946  14.498  72.530  1.00  0.00     0.482 OA 
HETATM    8  C   UNL     3     -11.121  16.620  71.483  1.00  0.00     0.590 C  
HETATM    9  C   UNL     2     -10.824  12.635  67.769  1.00  0.00    -0.221 C  
HETATM   10  O   UNL     2      -8.795  15.472  68.365  1.00  0.00    -0.174 OA 
HETATM   11  C   UNL     3     -12.123  14.924  70.333  1.00  0.00    -0.330 C  
HETATM   12  C   UNL     2      -9.690  13.276  68.455  1.00  0.00    -0.145 C  
HETATM   13  O   UNL     2      -8.913  12.731  69.445  1.00  0.00     0.834 OA 
HETATM   14  O   UNL     2     -11.167  11.471  67.867  1.00  0.00    -0.237 OA 
HETATM   15  C   UNL     2      -9.580  14.542  68.055  1.00  0.00    -0.217 C  
HETATM   16  O   UNL     3     -10.836  17.392  72.443  1.00  0.00     1.803 OA 
HETATM   17  H   UNL     3     -10.346  14.738  73.226  1.00  0.00     0.000 HD 
HETATM   18  C   UNL     3     -11.193  15.294  71.411  1.00  0.00    -0.308 C  
HETATM   19  O   UNL     3     -12.664  13.834  70.284  1.00  0.00    -0.265 OA 
ENDROOT
BRANCH   2  20
HETATM   20  C   UNL     2     -10.718  15.632  65.870  1.00  0.00    -0.329 C  
HETATM   21  O   UNL     2      -9.417  16.186  65.589  1.00  0.00    -0.427 OA 
HETATM   22  H   UNL     2      -9.371  16.672  64.774  1.00  0.00     0.000 HD 
BRANCH  20  23
HETATM   23  C   UNL     2     -11.213  14.849  64.666  1.00  0.00    -0.341 C  
HETATM   24  H   UNL     2     -10.428  13.629  63.346  1.00  0.00     0.000 HD 
HETATM   25  O   UNL     2     -10.119  14.118  64.099  1.00  0.00     0.128 OA 
ENDBRANCH  20  23
ENDBRANCH   2  20
BRANCH   4  26
HETATM   26  C   UNL     3     -11.010  17.851  69.045  1.00  0.00     0.716 C  
HETATM   27  H   UNL     3     -10.798  19.664  68.345  1.00  0.00     0.000 HD 
HETATM   28  O   UNL     3     -11.267  19.280  69.077  1.00  0.00     1.459 OA 
BRANCH  26  29
HETATM   29  C   UNL     3      -9.507  17.639  68.876  1.00  0.00    -0.183 C  
HETATM   30  O   UNL     3      -9.001  18.230  67.682  1.00  0.00    -0.262 OA 
HETATM   31  H   UNL     3      -8.067  18.097  67.576  1.00  0.00     0.000 HD 
ENDBRANCH  26  29
ENDBRANCH   4  26
TORSDOF 4
ENDMDL
MODEL      146
REMARK 921   NORMALIZED FREE ENERGY PREDICTED BY IDOCK:    6.04 KCAL/MOL
REMARK 922        TOTAL FREE ENERGY PREDICTED BY IDOCK:    6.44 KCAL/MOL
REMARK 923 INTER-LIGAND FREE ENERGY PREDICTED BY IDOCK:    0.07 KCAL/MOL
REMARK 924 INTRA-LIGAND FREE ENERGY PREDICTED BY IDOCK:    6.37 KCAL/MOL
REMARK 927      BINDING AFFINITY PREDICTED BY RF-SCORE:    0.00 PKD
ROOT
HETATM    1 MG   UNL     1      -7.691  10.959  70.146  1.00  0.00    -0.247 Mg 
HETATM    2  C   UNL     2      -9.038   4.615  68.922  1.00  0.00    -0.119 C  
HETATM    3  O   UNL     2      -9.892   4.620  67.769  1.00  0.00    -0.161 OA 
HETATM    4  C   UNL     3      -6.599   7.667  69.741  1.00  0.00    -0.039 C  
HETATM    5  H   UNL     2     -11.828   6.815  71.016  1.00  0.00     0.000 HD 
HETATM    6  O   UNL     3      -7.279   7.394  68.474  1.00  0.00    -0.081 OA 
HETATM    7  O   UNL     3      -9.502   9.887  69.745  1.00  0.00    -0.210 OA 
HETATM    8  C   UNL     3      -7.480   8.781  70.307  1.00  0.00    -0.067 C  
HETATM    9  C   UNL     2     -11.032   5.313  68.042  1.00  0.00     0.504 C  
HETATM   10  O   UNL     2      -9.408   5.322  71.186  1.00  0.00    -0.144 OA 
HETATM   11  C   UNL     3      -8.512   7.957  68.447  1.00  0.00    -0.128 C  
HETATM   12  C   UNL     2     -10.985   5.716  69.457  1.00  0.00    -0.196 C  
HETATM   13  O   UNL     2     -11.858   6.555  70.102  1.00  0.00    -0.416 OA 
HETATM   14  O   UNL     2     -11.928   5.544  67.251  1.00  0.00     2.628 OA 
HETATM   15  C   UNL     2      -9.883   5.232  70.027  1.00  0.00    -0.218 C  
HETATM   16  O   UNL     3      -6.954   9.617  71.095  1.00  0.00    -0.304 OA 
HETATM   17  H   UNL     3      -9.581  10.431  70.519  1.00  0.00     0.000 HD 
HETATM   18  C   UNL     3      -8.634   8.799  69.646  1.00  0.00    -0.130 C  
HETATM   19  O   UNL     3      -9.248   8.080  67.485  1.00  0.00    -0.135 OA 
ENDROOT
BRANCH   2  20
HETATM   20  C   UNL     2      -8.314   3.268  69.058  1.00  0.00    -0.060 C  
HETATM   21  O   UNL     2      -8.656   2.312  68.033  1.00  0.00    -0.071 OA 
HETATM   22  H   UNL     2      -8.209   1.479  68.117  1.00  0.00     0.000 HD 
BRANCH  20  23
HETATM   23  C   UNL     2      -6.803   3.395  69.157  1.00  0.00    -0.041 C  
HETATM   24  H   UNL     2      -5.252   2.305  68.654  1.00  0.00     0.000 HD 
HETATM   25  O   UNL     2      -6.196   2.226  68.592  1.00  0.00    -0.024 OA 
ENDBRANCH  20  23
ENDBRANCH   2  20
BRANCH   4  26
HETATM   26  C   UNL     3      -6.326   6.306  70.438  1.00  0.00    -0.036 C  
HETATM   27  H   UNL     3      -5.000   5.658  71.719  1.00  0.00     0.000 HD 
HETATM   28  O   UNL     3      -5.167   6.491  71.293  1.00  0.00    -0.024 OA 
BRANCH  26  29
HETATM   29  C   UNL     3      -7.414   5.607  71.251  1.00  0.00    -0.094 C  
HETATM   30  O   UNL     3      -8.296   6.525  71.890  1.00  0.00    -0.115 OA 
HETATM   31  H   UNL     3      -8.972   6.090  72.396  1.00  0.00     0.000 HD 
ENDBRANCH  26  29
ENDBRANCH   4  26
TORSDOF 4
ENDMDL
MODEL      147
REMARK 921   NORMALIZED FREE ENERGY PREDICTED BY IDOCK:    7.72 KCAL/MOL
REMARK 922        TOTAL FREE ENERGY PREDICTED BY IDOCK:    8.52 KCAL/MOL
REMARK 923 INTER-LIGAND FREE ENERGY PREDICTED BY IDOCK:    3.45 KCAL/MOL
REMARK 924 INTRA-LIGAND FREE ENERGY PREDICTED BY IDOCK:    5.07 KCAL/MOL
REMARK 927      BINDING AFFINITY PREDICTED BY RF-SCORE:    0.00 PKD
ROOT
HETATM    1 MG   UNL     1      -6.043   2.801  69.119  1.00  0.00    -0.019 Mg 
HETATM    2  C   UNL     2      -9.724   7.735  71.499  1.00  0.00    -0.162 C  
HETATM    3  O   UNL     2     -11.078   7.404  71.154  1.00  0.00    -0.244 OA 
HETATM    4  C   UNL     3      -6.879   4.946  71.745  1.00  0.00    -0.052 C  
HETATM    5  H   UNL     2      -8.715   7.830  67.501  1.00  0.00     0.000 HD 
HETATM    6  O   UNL     3      -8.327   4.731  71.713  1.00  0.00    -0.109 OA 
HETATM    7  O   UNL     3      -7.608   4.007  68.288  1.00  0.00    -0.065 OA 
HETATM    8  C   UNL     3      -6.504   4.588  70.306  1.00  0.00    -0.034 C  
HETATM    9  C   UNL     2     -11.201   7.317  69.801  1.00  0.00    -0.126 C  
HETATM   10  O   UNL     2      -7.854   8.409  70.154  1.00  0.00    -0.096 OA 
HETATM   11  C   UNL     3      -8.781   4.627  70.440  1.00  0.00    -0.089 C  
HETATM   12  C   UNL     2      -9.907   7.688  69.207  1.00  0.00    -0.168 C  
HETATM   13  O   UNL     2      -9.551   7.590  67.885  1.00  0.00    -0.140 OA 
HETATM   14  O   UNL     2     -12.211   6.997  69.201  1.00  0.00     0.856 OA 
HETATM   15  C   UNL     2      -9.055   8.040  70.167  1.00  0.00    -0.151 C  
HETATM   16  O   UNL     3      -5.340   4.150  70.085  1.00  0.00    -0.007 OA 
HETATM   17  H   UNL     3      -6.847   3.978  67.720  1.00  0.00     0.000 HD 
HETATM   18  C   UNL     3      -7.604   4.583  69.559  1.00  0.00    -0.055 C  
HETATM   19  O   UNL     3      -9.883   4.261  70.075  1.00  0.00    -0.215 OA 
ENDROOT
BRANCH   2  20
HETATM   20  C   UNL     2      -9.686   8.681  72.707  1.00  0.00    -0.044 C  
HETATM   21  O   UNL     2      -9.842   8.018  73.978  1.00  0.00    -0.093 OA 
HETATM   22  H   UNL     2      -9.819   8.603  74.725  1.00  0.00     0.000 HD 
BRANCH  20  23
HETATM   23  C   UNL     2      -8.458   9.576  72.742  1.00  0.00     2.772 C  
HETATM   24  H   UNL     2      -7.598  10.853  71.527  1.00  0.00     0.000 HD 
HETATM   25  O   UNL     2      -8.365  10.294  71.505  1.00  0.00     1.887 OA 
ENDBRANCH  20  23
ENDBRANCH   2  20
BRANCH   4  26
HETATM   26  C   UNL     3      -6.615   6.320  72.418  1.00  0.00    -0.067 C  
HETATM   27  H   UNL     3      -5.766   6.896  74.081  1.00  0.00     0.000 HD 
HETATM   28  O   UNL     3      -5.926   6.055  73.669  1.00  0.00    -0.058 OA 
BRANCH  26  29
HETATM   29  C   UNL     3      -5.862   7.426  71.682  1.00  0.00    -0.036 C  
HETATM   30  O   UNL     3      -6.471   7.770  70.440  1.00  0.00    -0.037 OA 
HETATM   31  H   UNL     3      -6.002   8.457  69.981  1.00  0.00     0.000 HD 
ENDBRANCH  26  29
ENDBRANCH   4  26
TORSDOF 4
ENDMDL
MODEL      148
REMARK 921   NORMALIZED FREE ENERGY PREDICTED BY IDOCK:   11.18 KCAL/MOL
REMARK 922        TOTAL FREE ENERGY PREDICTED BY IDOCK:   12.79 KCAL/MOL
REMARK 923 INTER-LIGAND FREE ENERGY PREDICTED BY IDOCK:    6.40 KCAL/MOL
REMARK 924 INTRA-LIGAND FREE ENERGY PREDICTED BY IDOCK:    6.39 KCAL/MOL
REMARK 927      BINDING AFFINITY PREDICTED BY RF-SCORE:    0.00 PKD
ROOT
HETATM    1 MG   UNL     1      -7.549  15.142  68.382  1.00  0.00    -0.103 Mg 
HETATM    2  C   UNL     2     -10.353   9.655  66.015  1.00  0.00    -0.090 C  
HETATM    3  O   UNL     2     -11.268  10.099  65.002  1.00  0.00     1.080 OA 
HETATM    4  C   UNL     3      -7.245  11.886  67.158  1.00  0.00    -0.144 C  
HETATM    5  H   UNL     2     -12.423  11.816  68.853  1.00  0.00     0.000 HD 
HETATM    6  O   UNL     3      -8.061  12.057  65.954  1.00  0.00     0.372 OA 
HETATM    7  O   UNL     3      -9.577  14.574  67.987  1.00  0.00    -0.207 OA 
HETATM    8  C   UNL     3      -7.814  12.989  68.050  1.00  0.00    -0.146 C  
HETATM    9  C   UNL     2     -12.203  10.922  65.553  1.00  0.00     2.996 C  
HETATM   10  O   UNL     2     -10.388   9.874  68.405  1.00  0.00    -0.180 OA 
HETATM   11  C   UNL     3      -9.138  12.843  66.198  1.00  0.00     0.077 C  
HETATM   12  C   UNL     2     -11.963  10.966  67.005  1.00  0.00     1.303 C  
HETATM   13  O   UNL     2     -12.578  11.787  67.915  1.00  0.00     0.284 OA 
HETATM   14  O   UNL     2     -13.081  11.504  64.944  1.00  0.00     0.939 OA 
HETATM   15  C   UNL     2     -10.956  10.153  67.320  1.00  0.00    -0.183 C  
HETATM   16  O   UNL     3      -7.059  13.496  68.927  1.00  0.00    -0.105 OA 
HETATM   17  H   UNL     3      -9.476  14.927  68.863  1.00  0.00     0.000 HD 
HETATM   18  C   UNL     3      -8.981  13.389  67.554  1.00  0.00    -0.207 C  
HETATM   19  O   UNL     3      -9.897  13.331  65.381  1.00  0.00    -0.219 OA 
ENDROOT
BRANCH   2  20
HETATM   20  C   UNL     2      -9.936   8.198  65.772  1.00  0.00     0.617 C  
HETATM   21  O   UNL     2      -9.423   7.947  64.448  1.00  0.00     0.889 OA 
HETATM   22  H   UNL     2      -9.165   7.046  64.297  1.00  0.00     0.000 HD 
BRANCH  20  23
HETATM   23  C   UNL     2      -8.965   7.660  66.809  1.00  0.00    -0.144 C  
HETATM   24  H   UNL     2      -7.957   6.000  67.082  1.00  0.00     0.000 HD 
HETATM   25  O   UNL     2      -8.564   6.336  66.434  1.00  0.00    -0.123 OA 
ENDBRANCH  20  23
ENDBRANCH   2  20
BRANCH   4  26
HETATM   26  C   UNL     3      -7.229  10.373  67.511  1.00  0.00    -0.087 C  
HETATM   27  H   UNL     3      -8.601   9.004  67.757  1.00  0.00     0.000 HD 
HETATM   28  O   UNL     3      -8.611   9.929  67.541  1.00  0.00    -0.121 OA 
BRANCH  26  29
HETATM   29  C   UNL     3      -6.424   9.379  66.676  1.00  0.00    -0.067 C  
HETATM   30  O   UNL     3      -5.232   8.952  67.331  1.00  0.00    -0.033 OA 
HETATM   31  H   UNL     3      -4.731   8.334  66.812  1.00  0.00     0.000 HD 
ENDBRANCH  26  29
ENDBRANCH   4  26
TORSDOF 4
ENDMDL
MODEL      149
REMARK 921   NORMALIZED FREE ENERGY PREDICTED BY IDOCK:   26.96 KCAL/MOL
REMARK 922        TOTAL FREE ENERGY PREDICTED BY IDOCK:   32.25 KCAL/MOL
REMARK 923 INTER-LIGAND FREE ENERGY PREDICTED BY IDOCK:   26.08 KCAL/MOL
REMARK 924 INTRA-LIGAND FREE ENERGY PREDICTED BY IDOCK:    6.17 KCAL/MOL
REMARK 927      BINDING AFFINITY PREDICTED BY RF-SCORE:    0.00 PKD
ROOT
HETATM    1 MG   UNL     1     -14.338   4.472  72.988  1.00  0.00     0.063 Mg 
HETATM    2  C   UNL     2     -11.816   9.394  69.387  1.00  0.00     0.649 C  
HETATM    3  O   UNL     2     -11.827   8.922  68.032  1.00  0.00     1.646 OA 
HETATM    4  C   UNL     3     -14.243   7.863  72.162  1.00  0.00    -0.254 C  
HETATM    5  H   UNL     2      -9.308   6.302  70.460  1.00  0.00     0.000 HD 
HETATM    6  O   UNL     3     -14.352   7.709  70.710  1.00  0.00     0.018 OA 
HETATM    7  O   UNL     3     -12.833   4.564  71.465  1.00  0.00     5.014 OA 
HETATM    8  C   UNL     3     -13.650   6.509  72.550  1.00  0.00     0.646 C  
HETATM    9  C   UNL     2     -11.058   7.802  67.927  1.00  0.00     0.284 C  
HETATM   10  O   UNL     2     -10.510   8.746  71.293  1.00  0.00    -0.215 OA 
HETATM   11  C   UNL     3     -13.637   6.643  70.274  1.00  0.00     2.869 C  
HETATM   12  C   UNL     2     -10.436   7.560  69.239  1.00  0.00    -0.214 C  
HETATM   13  O   UNL     2      -9.709   6.459  69.613  1.00  0.00    -0.151 OA 
HETATM   14  O   UNL     2     -10.912   7.135  66.920  1.00  0.00    -0.363 OA 
HETATM   15  C   UNL     2     -10.774   8.532  70.084  1.00  0.00    -0.235 C  
HETATM   16  O   UNL     3     -13.891   6.062  73.708  1.00  0.00     4.271 OA 
HETATM   17  H   UNL     3     -12.526   4.097  72.234  1.00  0.00     0.000 HD 
HETATM   18  C   UNL     3     -13.162   5.920  71.463  1.00  0.00     1.655 C  
HETATM   19  O   UNL     3     -13.670   6.133  69.169  1.00  0.00     8.454 OA 
ENDROOT
BRANCH   2  20
HETATM   20  C   UNL     2     -11.816  10.929  69.428  1.00  0.00    -0.328 C  
HETATM   21  O   UNL     2     -13.094  11.524  69.123  1.00  0.00     0.655 OA 
HETATM   22  H   UNL     2     -13.094  12.473  69.148  1.00  0.00     0.000 HD 
BRANCH  20  23
HETATM   23  C   UNL     2     -11.280  11.504  70.728  1.00  0.00     1.122 C  
HETATM   24  H   UNL     2     -11.861  12.851  72.030  1.00  0.00     0.000 HD 
HETATM   25  O   UNL     2     -12.196  12.491  71.218  1.00  0.00    -0.164 OA 
ENDBRANCH  20  23
ENDBRANCH   2  20
BRANCH   4  26
HETATM   26  C   UNL     3     -13.584   9.240  72.447  1.00  0.00    -0.463 C  
HETATM   27  H   UNL     3     -13.750  10.579  73.861  1.00  0.00     0.000 HD 
HETATM   28  O   UNL     3     -14.154   9.736  73.687  1.00  0.00     1.275 OA 
BRANCH  26  29
HETATM   29  C   UNL     3     -12.065   9.383  72.527  1.00  0.00     0.240 C  
HETATM   30  O   UNL     3     -11.409   8.140  72.764  1.00  0.00    -0.397 OA 
HETATM   31  H   UNL     3     -10.465   8.229  72.815  1.00  0.00     0.000 HD 
ENDBRANCH  26  29
ENDBRANCH   4  26
TORSDOF 4
ENDMDL
MODEL      150
REMARK 921   NORMALIZED FREE ENERGY PREDICTED BY IDOCK:   28.97 KCAL/MOL
REMARK 922        TOTAL FREE ENERGY PREDICTED BY IDOCK:   34.73 KCAL/MOL
REMARK 923 INTER-LIGAND FREE ENERGY PREDICTED BY IDOCK:   25.19 KCAL/MOL
REMARK 924 INTRA-LIGAND FREE ENERGY PREDICTED BY IDOCK:    9.54 KCAL/MOL
REMARK 927      BINDING AFFINITY PREDICTED BY RF-SCORE:    0.00 PKD
ROOT
HETATM    1 MG   UNL     1     -14.128   7.769  68.001  1.00  0.00     9.635 Mg 
HETATM    2  C   UNL     2      -8.071  10.103  69.196  1.00  0.00    -0.134 C  
HETATM    3  O   UNL     2      -7.171   9.133  68.641  1.00  0.00    -0.073 OA 
HETATM    4  C   UNL     3     -11.850  10.415  67.947  1.00  0.00     0.744 C  
HETATM    5  H   UNL     2      -9.586   7.249  71.760  1.00  0.00     0.000 HD 
HETATM    6  O   UNL     3     -10.754   9.709  67.280  1.00  0.00    -0.263 OA 
HETATM    7  O   UNL     3     -12.345   6.897  68.807  1.00  0.00     1.099 OA 
HETATM    8  C   UNL     3     -12.607   9.243  68.573  1.00  0.00     5.175 C  
HETATM    9  C   UNL     2      -7.355   7.929  69.251  1.00  0.00    -0.082 C  
HETATM   10  O   UNL     2      -9.531  10.019  71.100  1.00  0.00     0.309 OA 
HETATM   11  C   UNL     3     -10.656   8.429  67.716  1.00  0.00    -0.171 C  
HETATM   12  C   UNL     2      -8.354   8.113  70.316  1.00  0.00    -0.124 C  
HETATM   13  O   UNL     2      -8.940   7.130  71.073  1.00  0.00    -0.148 OA 
HETATM   14  O   UNL     2      -6.782   6.894  68.964  1.00  0.00    -0.052 OA 
HETATM   15  C   UNL     2      -8.713   9.394  70.380  1.00  0.00    -0.240 C  
HETATM   16  O   UNL     3     -13.848   9.373  68.772  1.00  0.00     6.329 OA 
HETATM   17  H   UNL     3     -13.098   6.729  69.361  1.00  0.00     0.000 HD 
HETATM   18  C   UNL     3     -11.822   8.170  68.573  1.00  0.00     2.274 C  
HETATM   19  O   UNL     3      -9.987   7.533  67.234  1.00  0.00    -0.172 OA 
ENDROOT
BRANCH   2  20
HETATM   20  C   UNL     2      -7.398  11.479  69.292  1.00  0.00    -0.009 C  
HETATM   21  O   UNL     2      -8.238  12.505  69.858  1.00  0.00     1.185 OA 
HETATM   22  H   UNL     2      -7.822  13.356  69.917  1.00  0.00     0.000 HD 
BRANCH  20  23
HETATM   23  C   UNL     2      -6.061  11.455  70.013  1.00  0.00    -0.145 C  
HETATM   24  H   UNL     2      -4.642  10.138  70.327  1.00  0.00     0.000 HD 
HETATM   25  O   UNL     2      -5.478  10.153  69.876  1.00  0.00    -0.037 OA 
ENDBRANCH  20  23
ENDBRANCH   2  20
BRANCH   4  26
HETATM   26  C   UNL     3     -11.240  11.605  68.736  1.00  0.00    -0.245 C  
HETATM   27  H   UNL     3     -11.949  13.264  69.487  1.00  0.00     0.000 HD 
HETATM   28  O   UNL     3     -12.322  12.536  69.005  1.00  0.00    -0.071 OA 
BRANCH  26  29
HETATM   29  C   UNL     3     -10.472  11.376  70.035  1.00  0.00     0.768 C  
HETATM   30  O   UNL     3     -11.019  10.318  70.817  1.00  0.00    -0.361 OA 
HETATM   31  H   UNL     3     -10.541  10.175  71.625  1.00  0.00     0.000 HD 
ENDBRANCH  26  29
ENDBRANCH   4  26
TORSDOF 4
ENDMDL
MODEL      151
REMARK 921   NORMALIZED FREE ENERGY PREDICTED BY IDOCK:   30.98 KCAL/MOL
REMARK 922        TOTAL FREE ENERGY PREDICTED BY IDOCK:   37.22 KCAL/MOL
REMARK 923 INTER-LIGAND FREE ENERGY PREDICTED BY IDOCK:   31.24 KCAL/MOL
REMARK 924 INTRA-LIGAND FREE ENERGY PREDICTED BY IDOCK:    5.97 KCAL/MOL
REMARK 927      BINDING AFFINITY PREDICTED BY RF-SCORE:    0.00 PKD
ROOT
HETATM    1 MG   UNL     1     -12.561  12.109  68.548  1.00  0.00    -0.282 Mg 
HETATM    2  C   UNL     2      -8.414  16.955  70.247  1.00  0.00     2.695 C  
HETATM    3  O   UNL     2      -7.283  16.813  69.375  1.00  0.00    -0.221 OA 
HETATM    4  C   UNL     3     -11.997  15.474  69.292  1.00  0.00    -0.316 C  
HETATM    5  H   UNL     2      -7.721  13.189  71.780  1.00  0.00     0.000 HD 
HETATM    6  O   UNL     3     -10.857  15.679  68.395  1.00  0.00    -0.265 OA 
HETATM    7  O   UNL     3     -10.460  12.174  68.965  1.00  0.00    -0.386 OA 
HETATM    8  C   UNL     3     -11.912  13.965  69.523  1.00  0.00    -0.343 C  
HETATM    9  C   UNL     2      -6.706  15.594  69.562  1.00  0.00    -0.185 C  
HETATM   10  O   UNL     2      -9.208  15.602  72.064  1.00  0.00     4.494 OA 
HETATM   11  C   UNL     3     -10.040  14.597  68.384  1.00  0.00    -0.237 C  
HETATM   12  C   UNL     2      -7.419  14.922  70.660  1.00  0.00     1.004 C  
HETATM   13  O   UNL     2      -7.260  13.623  71.071  1.00  0.00     1.503 OA 
HETATM   14  O   UNL     2      -5.761  15.154  68.933  1.00  0.00    -0.092 OA 
HETATM   15  C   UNL     2      -8.354  15.733  71.152  1.00  0.00     4.020 C  
HETATM   16  O   UNL     3     -12.978  13.342  69.794  1.00  0.00     0.287 OA 
HETATM   17  H   UNL     3     -10.895  11.487  69.457  1.00  0.00     0.000 HD 
HETATM   18  C   UNL     3     -10.712  13.534  69.145  1.00  0.00    -0.082 C  
HETATM   19  O   UNL     3      -9.125  14.370  67.613  1.00  0.00    -0.182 OA 
ENDROOT
BRANCH   2  20
HETATM   20  C   UNL     2      -8.525  18.394  70.767  1.00  0.00     5.016 C  
HETATM   21  O   UNL     2      -8.663  19.385  69.729  1.00  0.00     0.277 OA 
HETATM   22  H   UNL     2      -8.731  20.276  70.050  1.00  0.00     0.000 HD 
BRANCH  20  23
HETATM   23  C   UNL     2      -9.616  18.585  71.808  1.00  0.00     6.994 C  
HETATM   24  H   UNL     2     -11.558  18.323  71.891  1.00  0.00     0.000 HD 
HETATM   25  O   UNL     2     -10.875  18.204  71.241  1.00  0.00     1.709 OA 
ENDBRANCH  20  23
ENDBRANCH   2  20
BRANCH   4  26
HETATM   26  C   UNL     3     -11.925  16.551  70.408  1.00  0.00     0.606 C  
HETATM   27  H   UNL     3     -13.195  17.822  71.176  1.00  0.00     0.000 HD 
HETATM   28  O   UNL     3     -13.239  17.163  70.494  1.00  0.00     5.889 OA 
BRANCH  26  29
HETATM   29  C   UNL     3     -11.471  16.191  71.821  1.00  0.00    -0.299 C  
HETATM   30  O   UNL     3     -11.793  14.849  72.175  1.00  0.00    -0.361 OA 
HETATM   31  H   UNL     3     -11.511  14.625  73.054  1.00  0.00     0.000 HD 
ENDBRANCH  26  29
ENDBRANCH   4  26
TORSDOF 4
ENDMDL
MODEL      152
REMARK 921   NORMALIZED FREE ENERGY PREDICTED BY IDOCK:   34.21 KCAL/MOL
REMARK 922        TOTAL FREE ENERGY PREDICTED BY IDOCK:   41.20 KCAL/MOL
REMARK 923 INTER-LIGAND FREE ENERGY PREDICTED BY IDOCK:   39.20 KCAL/MOL
REMARK 924 INTRA-LIGAND FREE ENERGY PREDICTED BY IDOCK:    2.01 KCAL/MOL
REMARK 927      BINDING AFFINITY PREDICTED BY RF-SCORE:    0.00 PKD
ROOT
HETATM    1 MG   UNL     1     -11.947  15.238  72.694  1.00  0.00    -0.294 Mg 
HETATM    2  C   UNL     2      -8.409  14.036  67.254  1.00  0.00    -0.194 C  
HETATM    3  O   UNL     2      -7.806  12.751  67.465  1.00  0.00    -0.148 OA 
HETATM    4  C   UNL     3     -11.702  15.157  69.212  1.00  0.00    -0.329 C  
HETATM    5  H   UNL     2      -6.434  15.521  70.556  1.00  0.00     0.000 HD 
HETATM    6  O   UNL     3     -11.165  13.800  69.090  1.00  0.00    -0.252 OA 
HETATM    7  O   UNL     3      -9.940  14.564  72.359  1.00  0.00     2.991 OA 
HETATM    8  C   UNL     3     -11.257  15.515  70.630  1.00  0.00    -0.347 C  
HETATM    9  C   UNL     2      -7.004  12.792  68.565  1.00  0.00    -0.095 C  
HETATM   10  O   UNL     2      -8.017  16.170  68.279  1.00  0.00    -0.144 OA 
HETATM   11  C   UNL     3     -10.271  13.535  70.074  1.00  0.00     1.603 C  
HETATM   12  C   UNL     2      -6.996  14.177  69.064  1.00  0.00    -0.112 C  
HETATM   13  O   UNL     2      -6.439  14.626  70.234  1.00  0.00    -0.176 OA 
HETATM   14  O   UNL     2      -6.399  11.847  69.037  1.00  0.00    -0.067 OA 
HETATM   15  C   UNL     2      -7.721  14.950  68.257  1.00  0.00    -0.113 C  
HETATM   16  O   UNL     3     -11.947  16.352  71.278  1.00  0.00    -0.323 OA 
HETATM   17  H   UNL     3      -9.969  15.292  72.969  1.00  0.00     0.000 HD 
HETATM   18  C   UNL     3     -10.315  14.661  71.018  1.00  0.00     1.292 C  
HETATM   19  O   UNL     3      -9.794  12.454  70.368  1.00  0.00     3.418 OA 
ENDROOT
BRANCH   2  20
HETATM   20  C   UNL     2      -8.516  14.347  65.754  1.00  0.00     1.806 C  
HETATM   21  O   UNL     2      -8.279  15.731  65.424  1.00  0.00     0.924 OA 
HETATM   22  H   UNL     2      -8.346  15.923  64.497  1.00  0.00     0.000 HD 
BRANCH  20  23
HETATM   23  C   UNL     2      -7.647  13.455  64.883  1.00  0.00     9.600 C  
HETATM   24  H   UNL     2      -6.626  13.658  63.221  1.00  0.00     0.000 HD 
HETATM   25  O   UNL     2      -7.168  14.215  63.766  1.00  0.00    16.780 OA 
ENDBRANCH  20  23
ENDBRANCH   2  20
BRANCH   4  26
HETATM   26  C   UNL     3     -11.311  15.941  67.930  1.00  0.00    -0.252 C  
HETATM   27  H   UNL     3     -10.228  15.545  66.352  1.00  0.00     0.000 HD 
HETATM   28  O   UNL     3     -10.467  15.065  67.136  1.00  0.00    -0.268 OA 
BRANCH  26  29
HETATM   29  C   UNL     3     -12.380  16.534  67.014  1.00  0.00     2.646 C  
HETATM   30  O   UNL     3     -12.198  16.167  65.649  1.00  0.00     1.253 OA 
HETATM   31  H   UNL     3     -12.863  16.536  65.080  1.00  0.00     0.000 HD 
ENDBRANCH  26  29
ENDBRANCH   4  26
TORSDOF 4
ENDMDL
MODEL      153
REMARK 921   NORMALIZED FREE ENERGY PREDICTED BY IDOCK:   39.66 KCAL/MOL
REMARK 922        TOTAL FREE ENERGY PREDICTED BY IDOCK:   47.92 KCAL/MOL
REMARK 923 INTER-LIGAND FREE ENERGY PREDICTED BY IDOCK:   43.21 KCAL/MOL
REMARK 924 INTRA-LIGAND FREE ENERGY PREDICTED BY IDOCK:    4.71 KCAL/MOL
REMARK 927      BINDING AFFINITY PREDICTED BY RF-SCORE:    0.00 PKD
ROOT
HETATM    1 MG   UNL     1      -9.272  15.141  74.295  1.00  0.00     4.892 Mg 
HETATM    2  C   UNL     2      -9.125  12.618  68.198  1.00  0.00    -0.204 C  
HETATM    3  O   UNL     2     -10.480  12.246  67.905  1.00  0.00    -0.204 OA 
HETATM    4  C   UNL     3      -8.255  15.364  70.963  1.00  0.00     2.893 C  
HETATM    5  H   UNL     2      -9.077   9.994  71.379  1.00  0.00     0.000 HD 
HETATM    6  O   UNL     3      -9.559  15.112  70.347  1.00  0.00     0.170 OA 
HETATM    7  O   UNL     3     -10.072  13.357  73.418  1.00  0.00     9.172 OA 
HETATM    8  C   UNL     3      -8.440  14.682  72.318  1.00  0.00     6.998 C  
HETATM    9  C   UNL     2     -10.908  11.317  68.804  1.00  0.00    -0.208 C  
HETATM   10  O   UNL     2      -7.513  11.705  69.724  1.00  0.00     0.251 OA 
HETATM   11  C   UNL     3     -10.249  14.165  71.029  1.00  0.00     3.009 C  
HETATM   12  C   UNL     2      -9.774  10.985  69.682  1.00  0.00     0.375 C  
HETATM   13  O   UNL     2      -9.810  10.208  70.812  1.00  0.00     0.141 OA 
HETATM   14  O   UNL     2     -12.029  10.845  68.855  1.00  0.00    -0.395 OA 
HETATM   15  C   UNL     2      -8.690  11.649  69.287  1.00  0.00     0.523 C  
HETATM   16  O   UNL     3      -7.771  15.114  73.300  1.00  0.00     6.069 OA 
HETATM   17  H   UNL     3      -9.584  13.170  74.212  1.00  0.00     0.000 HD 
HETATM   18  C   UNL     3      -9.495  13.875  72.258  1.00  0.00    10.470 C  
HETATM   19  O   UNL     3     -11.422  13.867  70.898  1.00  0.00     0.002 OA 
ENDROOT
BRANCH   2  20
HETATM   20  C   UNL     2      -8.333  12.856  66.905  1.00  0.00    -0.039 C  
HETATM   21  O   UNL     2      -8.971  12.333  65.722  1.00  0.00    -0.426 OA 
HETATM   22  H   UNL     2      -8.482  12.480  64.922  1.00  0.00     0.000 HD 
BRANCH  20  23
HETATM   23  C   UNL     2      -7.951  14.310  66.682  1.00  0.00     0.568 C  
HETATM   24  H   UNL     2      -8.904  16.008  66.447  1.00  0.00     0.000 HD 
HETATM   25  O   UNL     2      -9.143  15.099  66.586  1.00  0.00    -0.243 OA 
ENDBRANCH  20  23
ENDBRANCH   2  20
BRANCH   4  26
HETATM   26  C   UNL     3      -7.159  15.000  69.924  1.00  0.00    -0.121 C  
HETATM   27  H   UNL     3      -7.172  14.292  68.102  1.00  0.00     0.000 HD 
HETATM   28  O   UNL     3      -7.843  14.515  68.737  1.00  0.00    -0.137 OA 
BRANCH  26  29
HETATM   29  C   UNL     3      -6.116  16.027  69.488  1.00  0.00    -0.161 C  
HETATM   30  O   UNL     3      -5.295  16.466  70.567  1.00  0.00    -0.181 OA 
HETATM   31  H   UNL     3      -4.646  17.104  70.297  1.00  0.00     0.000 HD 
ENDBRANCH  26  29
ENDBRANCH   4  26
TORSDOF 4
ENDMDL
MODEL      154
REMARK 921   NORMALIZED FREE ENERGY PREDICTED BY IDOCK:   43.01 KCAL/MOL
REMARK 922        TOTAL FREE ENERGY PREDICTED BY IDOCK:   52.05 KCAL/MOL
REMARK 923 INTER-LIGAND FREE ENERGY PREDICTED BY IDOCK:   42.62 KCAL/MOL
REMARK 924 INTRA-LIGAND FREE ENERGY PREDICTED BY IDOCK:    9.44 KCAL/MOL
REMARK 927      BINDING AFFINITY PREDICTED BY RF-SCORE:    0.00 PKD
ROOT
HETATM    1 MG   UNL     1      -5.371   5.355  68.255  1.00  0.00    -0.004 Mg 
HETATM    2  C   UNL     2     -11.081   8.274  66.692  1.00  0.00     1.103 C  
HETATM    3  O   UNL     2     -10.796   9.078  65.538  1.00  0.00     1.686 OA 
HETATM    4  C   UNL     3      -8.809   5.143  67.679  1.00  0.00    -0.105 C  
HETATM    5  H   UNL     2      -8.343  10.435  68.891  1.00  0.00     0.000 HD 
HETATM    6  O   UNL     3      -8.832   5.850  66.397  1.00  0.00    -0.125 OA 
HETATM    7  O   UNL     3      -5.917   7.375  67.792  1.00  0.00    -0.032 OA 
HETATM    8  C   UNL     3      -7.535   5.717  68.300  1.00  0.00    -0.077 C  
HETATM    9  C   UNL     2      -9.846  10.005  65.844  1.00  0.00    -0.264 C  
HETATM   10  O   UNL     2     -10.417   8.486  68.988  1.00  0.00    -0.219 OA 
HETATM   11  C   UNL     3      -7.969   6.895  66.396  1.00  0.00    -0.106 C  
HETATM   12  C   UNL     2      -9.542   9.879  67.278  1.00  0.00    -0.160 C  
HETATM   13  O   UNL     2      -8.539  10.516  67.965  1.00  0.00    -0.118 OA 
HETATM   14  O   UNL     2      -9.352  10.798  65.063  1.00  0.00    -0.200 OA 
HETATM   15  C   UNL     2     -10.323   8.949  67.825  1.00  0.00    -0.242 C  
HETATM   16  O   UNL     3      -6.905   5.005  69.133  1.00  0.00    -0.051 OA 
HETATM   17  H   UNL     3      -5.411   7.323  68.594  1.00  0.00     0.000 HD 
HETATM   18  C   UNL     3      -7.186   6.816  67.638  1.00  0.00    -0.094 C  
HETATM   19  O   UNL     3      -7.611   7.558  65.440  1.00  0.00    -0.084 OA 
ENDROOT
BRANCH   2  20
HETATM   20  C   UNL     2     -12.574   7.924  66.757  1.00  0.00    10.524 C  
HETATM   21  O   UNL     2     -12.959   6.831  65.899  1.00  0.00     5.712 OA 
HETATM   22  H   UNL     2     -13.883   6.615  65.939  1.00  0.00     0.000 HD 
BRANCH  20  23
HETATM   23  C   UNL     2     -13.081   7.674  68.167  1.00  0.00    11.931 C  
HETATM   24  H   UNL     2     -12.565   6.534  69.678  1.00  0.00     0.000 HD 
HETATM   25  O   UNL     2     -12.249   6.691  68.797  1.00  0.00     1.135 OA 
ENDBRANCH  20  23
ENDBRANCH   2  20
BRANCH   4  26
HETATM   26  C   UNL     3     -10.227   5.243  68.303  1.00  0.00    -0.134 C  
HETATM   27  H   UNL     3     -11.714   6.502  68.147  1.00  0.00     0.000 HD 
HETATM   28  O   UNL     3     -10.846   6.442  67.765  1.00  0.00    -0.271 OA 
BRANCH  26  29
HETATM   29  C   UNL     3     -11.225   4.092  68.177  1.00  0.00     4.798 C  
HETATM   30  O   UNL     3     -11.579   3.533  69.439  1.00  0.00     8.012 OA 
HETATM   31  H   UNL     3     -12.199   2.818  69.361  1.00  0.00     0.000 HD 
ENDBRANCH  26  29
ENDBRANCH   4  26
TORSDOF 4
ENDMDL
MODEL      155
REMARK 921   NORMALIZED FREE ENERGY PREDICTED BY IDOCK:   47.58 KCAL/MOL
REMARK 922        TOTAL FREE ENERGY PREDICTED BY IDOCK:   57.70 KCAL/MOL
REMARK 923 INTER-LIGAND FREE ENERGY PREDICTED BY IDOCK:   53.46 KCAL/MOL
REMARK 924 INTRA-LIGAND FREE ENERGY PREDICTED BY IDOCK:    4.24 KCAL/MOL
REMARK 927      BINDING AFFINITY PREDICTED BY RF-SCORE:    0.00 PKD
ROOT
HETATM    1 MG   UNL     1     -10.206  13.010  64.212  1.00  0.00    -0.297 Mg 
HETATM    2  C   UNL     2      -8.629  12.169  70.565  1.00  0.00     6.182 C  
HETATM    3  O   UNL     2      -7.681  11.091  70.585  1.00  0.00     1.016 OA 
HETATM    4  C   UNL     3      -9.246  14.360  67.285  1.00  0.00    -0.209 C  
HETATM    5  H   UNL     2     -11.466   9.662  68.928  1.00  0.00     0.000 HD 
HETATM    6  O   UNL     3      -8.122  13.458  67.548  1.00  0.00    -0.158 OA 
HETATM    7  O   UNL     3     -10.073  11.290  65.483  1.00  0.00    -0.234 OA 
HETATM    8  C   UNL     3     -10.092  13.499  66.347  1.00  0.00    -0.294 C  
HETATM    9  C   UNL     2      -8.252   9.965  70.074  1.00  0.00    -0.168 C  
HETATM   10  O   UNL     2     -10.981  12.217  70.091  1.00  0.00     0.340 OA 
HETATM   11  C   UNL     3      -8.407  12.192  67.156  1.00  0.00    -0.183 C  
HETATM   12  C   UNL     2      -9.662  10.269  69.780  1.00  0.00    -0.144 C  
HETATM   13  O   UNL     2     -10.556   9.466  69.119  1.00  0.00    -0.217 OA 
HETATM   14  O   UNL     2      -7.689   8.899  69.906  1.00  0.00    -0.068 OA 
HETATM   15  C   UNL     2      -9.941  11.516  70.155  1.00  0.00     1.961 C  
HETATM   16  O   UNL     3     -10.839  14.083  65.512  1.00  0.00    -0.292 OA 
HETATM   17  H   UNL     3     -10.900  11.318  65.016  1.00  0.00     0.000 HD 
HETATM   18  C   UNL     3      -9.687  12.235  66.433  1.00  0.00    -0.234 C  
HETATM   19  O   UNL     3      -7.633  11.256  67.058  1.00  0.00    -0.128 OA 
ENDROOT
BRANCH   2  20
HETATM   20  C   UNL     2      -8.472  13.054  71.809  1.00  0.00    15.413 C  
HETATM   21  O   UNL     2      -9.620  13.881  72.089  1.00  0.00     6.597 OA 
HETATM   22  H   UNL     2      -9.523  14.429  72.858  1.00  0.00     0.000 HD 
BRANCH  20  23
HETATM   23  C   UNL     2      -8.075  12.287  73.058  1.00  0.00    20.314 C  
HETATM   24  H   UNL     2      -6.729  12.478  74.473  1.00  0.00     0.000 HD 
HETATM   25  O   UNL     2      -6.978  12.958  73.692  1.00  0.00     4.270 OA 
ENDBRANCH  20  23
ENDBRANCH   2  20
BRANCH   4  26
HETATM   26  C   UNL     3      -9.726  14.931  68.647  1.00  0.00    -0.226 C  
HETATM   27  H   UNL     3      -9.820  14.239  70.473  1.00  0.00     0.000 HD 
HETATM   28  O   UNL     3      -9.526  13.890  69.640  1.00  0.00     0.663 OA 
BRANCH  26  29
HETATM   29  C   UNL     3      -9.154  16.235  69.199  1.00  0.00    -0.230 C  
HETATM   30  O   UNL     3      -8.686  17.106  68.173  1.00  0.00    -0.219 OA 
HETATM   31  H   UNL     3      -8.329  17.917  68.516  1.00  0.00     0.000 HD 
ENDBRANCH  26  29
ENDBRANCH   4  26
TORSDOF 4
ENDMDL
MODEL      156
REMARK 921   NORMALIZED FREE ENERGY PREDICTED BY IDOCK:   54.16 KCAL/MOL
REMARK 922        TOTAL FREE ENERGY PREDICTED BY IDOCK:   65.81 KCAL/MOL
REMARK 923 INTER-LIGAND FREE ENERGY PREDICTED BY IDOCK:   64.43 KCAL/MOL
REMARK 924 INTRA-LIGAND FREE ENERGY PREDICTED BY IDOCK:    1.38 KCAL/MOL
REMARK 927      BINDING AFFINITY PREDICTED BY RF-SCORE:    0.00 PKD
ROOT
HETATM    1 MG   UNL     1     -11.884  14.792  65.162  1.00  0.00    -0.331 Mg 
HETATM    2  C   UNL     2     -11.426  16.474  71.528  1.00  0.00    -0.051 C  
HETATM    3  O   UNL     2     -10.247  15.817  72.014  1.00  0.00     1.656 OA 
HETATM    4  C   UNL     3     -11.951  17.245  67.646  1.00  0.00     1.828 C  
HETATM    5  H   UNL     2     -13.102  12.820  70.609  1.00  0.00     0.000 HD 
HETATM    6  O   UNL     3     -10.700  16.876  68.313  1.00  0.00    -0.351 OA 
HETATM    7  O   UNL     3     -11.547  13.678  66.961  1.00  0.00    -0.323 OA 
HETATM    8  C   UNL     3     -12.331  15.917  66.993  1.00  0.00     1.712 C  
HETATM    9  C   UNL     2     -10.381  14.469  71.878  1.00  0.00     3.222 C  
HETATM   10  O   UNL     2     -13.563  15.620  70.845  1.00  0.00    -0.568 OA 
HETATM   11  C   UNL     3     -10.550  15.530  68.364  1.00  0.00    -0.252 C  
HETATM   12  C   UNL     2     -11.733  14.201  71.362  1.00  0.00     0.183 C  
HETATM   13  O   UNL     2     -12.228  12.993  70.942  1.00  0.00    -0.354 OA 
HETATM   14  O   UNL     2      -9.529  13.641  72.147  1.00  0.00     9.230 OA 
HETATM   15  C   UNL     2     -12.406  15.344  71.249  1.00  0.00    -0.385 C  
HETATM   16  O   UNL     3     -13.027  15.948  65.938  1.00  0.00     2.340 OA 
HETATM   17  H   UNL     3     -12.242  13.297  66.437  1.00  0.00     0.000 HD 
HETATM   18  C   UNL     3     -11.625  14.939  67.553  1.00  0.00    -0.339 C  
HETATM   19  O   UNL     3      -9.550  14.908  68.673  1.00  0.00    -0.208 OA 
ENDROOT
BRANCH   2  20
HETATM   20  C   UNL     2     -11.763  17.698  72.392  1.00  0.00     2.280 C  
HETATM   21  O   UNL     2     -13.066  18.259  72.132  1.00  0.00    10.561 OA 
HETATM   22  H   UNL     2     -13.274  19.016  72.666  1.00  0.00     0.000 HD 
BRANCH  20  23
HETATM   23  C   UNL     2     -11.596  17.456  73.883  1.00  0.00     0.646 C  
HETATM   24  H   UNL     2     -10.233  17.844  75.239  1.00  0.00     0.000 HD 
HETATM   25  O   UNL     2     -10.338  17.994  74.307  1.00  0.00     3.405 OA 
ENDBRANCH  20  23
ENDBRANCH   2  20
BRANCH   4  26
HETATM   26  C   UNL     3     -12.826  18.018  68.669  1.00  0.00     8.298 C  
HETATM   27  H   UNL     3     -13.583  19.819  68.750  1.00  0.00     0.000 HD 
HETATM   28  O   UNL     3     -13.047  19.346  68.124  1.00  0.00     5.243 OA 
BRANCH  26  29
HETATM   29  C   UNL     3     -14.171  17.462  69.133  1.00  0.00    12.064 C  
HETATM   30  O   UNL     3     -14.342  16.088  68.794  1.00  0.00     4.924 OA 
HETATM   31  H   UNL     3     -15.178  15.741  69.082  1.00  0.00     0.000 HD 
ENDBRANCH  26  29
ENDBRANCH   4  26
TORSDOF 4
ENDMDL
MODEL      157
REMARK 921   NORMALIZED FREE ENERGY PREDICTED BY IDOCK:   56.37 KCAL/MOL
REMARK 922        TOTAL FREE ENERGY PREDICTED BY IDOCK:   68.54 KCAL/MOL
REMARK 923 INTER-LIGAND FREE ENERGY PREDICTED BY IDOCK:   60.36 KCAL/MOL
REMARK 924 INTRA-LIGAND FREE ENERGY PREDICTED BY IDOCK:    8.18 KCAL/MOL
REMARK 927      BINDING AFFINITY PREDICTED BY RF-SCORE:    0.00 PKD
ROOT
HETATM    1 MG   UNL     1      -9.961  16.933  74.509  1.00  0.00     4.559 Mg 
HETATM    2  C   UNL     2      -7.663  17.441  68.343  1.00  0.00    -0.258 C  
HETATM    3  O   UNL     2      -7.600  16.096  67.846  1.00  0.00    -0.128 OA 
HETATM    4  C   UNL     3     -10.068  18.450  71.366  1.00  0.00     4.143 C  
HETATM    5  H   UNL     2      -4.988  16.478  71.330  1.00  0.00     0.000 HD 
HETATM    6  O   UNL     3     -10.121  17.225  70.564  1.00  0.00     1.165 OA 
HETATM    7  O   UNL     3      -8.419  15.918  73.422  1.00  0.00    12.544 OA 
HETATM    8  C   UNL     3      -9.397  17.931  72.638  1.00  0.00    12.537 C  
HETATM    9  C   UNL     2      -6.755  15.358  68.618  1.00  0.00    -0.102 C  
HETATM   10  O   UNL     2      -6.376  18.588  70.013  1.00  0.00    -0.153 OA 
HETATM   11  C   UNL     3      -9.323  16.262  71.086  1.00  0.00     4.093 C  
HETATM   12  C   UNL     2      -6.160  16.258  69.619  1.00  0.00    -0.190 C  
HETATM   13  O   UNL     2      -5.373  15.897  70.684  1.00  0.00    -0.165 OA 
HETATM   14  O   UNL     2      -6.533  14.168  68.487  1.00  0.00    -0.084 OA 
HETATM   15  C   UNL     2      -6.588  17.502  69.418  1.00  0.00    -0.207 C  
HETATM   16  O   UNL     3      -9.644  18.525  73.726  1.00  0.00     5.436 OA 
HETATM   17  H   UNL     3      -8.106  16.235  74.261  1.00  0.00     0.000 HD 
HETATM   18  C   UNL     3      -8.838  16.752  72.385  1.00  0.00    14.163 C  
HETATM   19  O   UNL     3      -9.287  15.084  70.778  1.00  0.00     0.946 OA 
ENDROOT
BRANCH   2  20
HETATM   20  C   UNL     2      -7.767  18.445  67.186  1.00  0.00    -0.224 C  
HETATM   21  O   UNL     2      -6.738  19.454  67.190  1.00  0.00    -0.193 OA 
HETATM   22  H   UNL     2      -6.802  20.075  66.475  1.00  0.00     0.000 HD 
BRANCH  20  23
HETATM   23  C   UNL     2      -7.840  17.791  65.816  1.00  0.00     0.085 C  
HETATM   24  H   UNL     2      -8.343  16.033  65.108  1.00  0.00     0.000 HD 
HETATM   25  O   UNL     2      -8.298  16.441  65.964  1.00  0.00    -0.319 OA 
ENDBRANCH  20  23
ENDBRANCH   2  20
BRANCH   4  26
HETATM   26  C   UNL     3      -9.511  19.585  70.464  1.00  0.00     1.469 C  
HETATM   27  H   UNL     3      -8.259  21.062  70.728  1.00  0.00     0.000 HD 
HETATM   28  O   UNL     3      -8.599  20.367  71.280  1.00  0.00     1.234 OA 
BRANCH  26  29
HETATM   29  C   UNL     3      -8.819  19.270  69.140  1.00  0.00    -0.126 C  
HETATM   30  O   UNL     3      -8.146  20.400  68.590  1.00  0.00     0.132 OA 
HETATM   31  H   UNL     3      -7.716  20.204  67.767  1.00  0.00     0.000 HD 
ENDBRANCH  26  29
ENDBRANCH   4  26
TORSDOF 4
ENDMDL
