MODEL        1
REMARK 921   NORMALIZED FREE ENERGY PREDICTED BY IDOCK:   -5.07 KCAL/MOL
REMARK 922        TOTAL FREE ENERGY PREDICTED BY IDOCK:   -9.03 KCAL/MOL
REMARK 923 INTER-LIGAND FREE ENERGY PREDICTED BY IDOCK:   -8.33 KCAL/MOL
REMARK 924 INTRA-LIGAND FREE ENERGY PREDICTED BY IDOCK:   -0.70 KCAL/MOL
REMARK 927      BINDING AFFINITY PREDICTED BY RF-SCORE:    0.00 PKD
ROOT
HETATM    1  C   UNL     1      -9.887  20.528  67.123  1.00  0.00    -0.567 C  
HETATM    2  C   UNL     1      -9.522  19.177  66.534  1.00  0.00    -0.356 C  
ENDROOT
BRANCH   2   3
HETATM    3  O   UNL     1     -10.579  18.794  65.646  1.00  0.00    -0.596 OA 
BRANCH   3   4
HETATM    4  C   UNL     1     -10.676  17.469  65.372  1.00  0.00    -0.004 C  
HETATM    5  O   UNL     1     -11.193  16.973  64.378  1.00  0.00    -1.167 OA 
BRANCH   4   6
HETATM    6  C   UNL     1      -9.875  16.686  66.371  1.00  0.00    -0.308 C  
BRANCH   6   7
HETATM    7  C   UNL     1     -10.774  15.802  67.225  1.00  0.00    -0.313 C  
BRANCH   7   8
HETATM    8  S   UNL     1     -10.414  14.004  67.042  1.00  0.00    -0.276 SA 
BRANCH   8   9
HETATM    9  P   UNL     1     -11.872  13.172  65.748  1.00  0.00    -0.443 P  
HETATM   10  S   UNL     1     -10.516  12.774  64.288  1.00  0.00    -0.386 S  
BRANCH   9  11
HETATM   11  O   UNL     1     -12.126  11.869  66.742  1.00  0.00    -0.593 OA 
HETATM   12  C   UNL     1     -11.540  11.763  68.032  1.00  0.00    -0.316 C  
ENDBRANCH   9  11
BRANCH   9  13
HETATM   13  O   UNL     1     -13.060  12.492  64.690  1.00  0.00    -0.845 OA 
HETATM   14  C   UNL     1     -12.557  11.938  63.491  1.00  0.00    -0.459 C  
ENDBRANCH   9  13
ENDBRANCH   8   9
ENDBRANCH   7   8
BRANCH   7  15
HETATM   15  C   UNL     1     -10.540  16.137  68.693  1.00  0.00    -0.283 C  
HETATM   16  O   UNL     1      -9.534  16.677  69.134  1.00  0.00    -0.252 OA 
BRANCH  15  17
HETATM   17  O   UNL     1     -11.567  15.655  69.450  1.00  0.00    -0.321 OA 
BRANCH  17  18
HETATM   18  C   UNL     1     -11.229  15.365  70.812  1.00  0.00    -0.346 C  
HETATM   19  C   UNL     1     -12.448  15.660  71.667  1.00  0.00    -0.503 C  
ENDBRANCH  17  18
ENDBRANCH  15  17
ENDBRANCH   7  15
ENDBRANCH   6   7
ENDBRANCH   4   6
ENDBRANCH   3   4
ENDBRANCH   2   3
TORSDOF 11
ENDMDL
MODEL        2
REMARK 921   NORMALIZED FREE ENERGY PREDICTED BY IDOCK:   -5.05 KCAL/MOL
REMARK 922        TOTAL FREE ENERGY PREDICTED BY IDOCK:   -8.99 KCAL/MOL
REMARK 923 INTER-LIGAND FREE ENERGY PREDICTED BY IDOCK:   -8.23 KCAL/MOL
REMARK 924 INTRA-LIGAND FREE ENERGY PREDICTED BY IDOCK:   -0.76 KCAL/MOL
REMARK 927      BINDING AFFINITY PREDICTED BY RF-SCORE:    0.00 PKD
ROOT
HETATM    1  C   UNL     1     -11.070  11.523  63.597  1.00  0.00    -0.469 C  
HETATM    2  C   UNL     1     -12.542  11.868  63.457  1.00  0.00    -0.459 C  
ENDROOT
BRANCH   2   3
HETATM    3  O   UNL     1     -12.943  12.541  64.656  1.00  0.00    -0.803 OA 
BRANCH   3   4
HETATM    4  C   UNL     1     -12.538  13.829  64.781  1.00  0.00    -0.290 C  
HETATM    5  O   UNL     1     -12.533  14.673  63.894  1.00  0.00    -0.813 OA 
BRANCH   4   6
HETATM    6  C   UNL     1     -12.276  14.139  66.226  1.00  0.00    -0.474 C  
BRANCH   6   7
HETATM    7  C   UNL     1     -11.062  13.379  66.742  1.00  0.00    -0.292 C  
BRANCH   7   8
HETATM    8  S   UNL     1      -9.646  14.475  67.175  1.00  0.00    -0.239 SA 
BRANCH   8   9
HETATM    9  P   UNL     1     -10.026  16.394  66.358  1.00  0.00    -0.338 P  
HETATM   10  S   UNL     1     -10.406  17.220  68.174  1.00  0.00    -0.374 S  
BRANCH   9  11
HETATM   11  O   UNL     1      -8.447  16.596  65.892  1.00  0.00    -0.451 OA 
HETATM   12  C   UNL     1      -7.394  16.805  66.822  1.00  0.00    -0.240 C  
ENDBRANCH   9  11
BRANCH   9  13
HETATM   13  O   UNL     1     -10.337  17.960  65.691  1.00  0.00    -0.605 OA 
HETATM   14  C   UNL     1     -10.527  18.993  66.638  1.00  0.00    -0.437 C  
ENDBRANCH   9  13
ENDBRANCH   8   9
ENDBRANCH   7   8
BRANCH   7  15
HETATM   15  C   UNL     1     -11.446  12.651  68.023  1.00  0.00    -0.318 C  
HETATM   16  O   UNL     1     -12.051  11.589  68.068  1.00  0.00    -0.617 OA 
BRANCH  15  17
HETATM   17  O   UNL     1     -11.110  13.407  69.107  1.00  0.00    -0.252 OA 
BRANCH  17  18
HETATM   18  C   UNL     1     -12.209  14.066  69.749  1.00  0.00    -0.341 C  
HETATM   19  C   UNL     1     -12.533  13.300  71.020  1.00  0.00    -0.422 C  
ENDBRANCH  17  18
ENDBRANCH  15  17
ENDBRANCH   7  15
ENDBRANCH   6   7
ENDBRANCH   4   6
ENDBRANCH   3   4
ENDBRANCH   2   3
TORSDOF 11
ENDMDL
MODEL        3
REMARK 921   NORMALIZED FREE ENERGY PREDICTED BY IDOCK:   -5.02 KCAL/MOL
REMARK 922        TOTAL FREE ENERGY PREDICTED BY IDOCK:   -8.94 KCAL/MOL
REMARK 923 INTER-LIGAND FREE ENERGY PREDICTED BY IDOCK:   -8.03 KCAL/MOL
REMARK 924 INTRA-LIGAND FREE ENERGY PREDICTED BY IDOCK:   -0.91 KCAL/MOL
REMARK 927      BINDING AFFINITY PREDICTED BY RF-SCORE:    0.00 PKD
ROOT
HETATM    1  C   UNL     1     -11.083  11.642  63.556  1.00  0.00    -0.476 C  
HETATM    2  C   UNL     1     -12.566  11.954  63.466  1.00  0.00    -0.459 C  
ENDROOT
BRANCH   2   3
HETATM    3  O   UNL     1     -12.950  12.579  64.696  1.00  0.00    -0.803 OA 
BRANCH   3   4
HETATM    4  C   UNL     1     -12.596  13.881  64.838  1.00  0.00    -0.347 C  
HETATM    5  O   UNL     1     -12.554  14.719  63.946  1.00  0.00    -0.834 OA 
BRANCH   4   6
HETATM    6  C   UNL     1     -12.449  14.209  66.296  1.00  0.00    -0.395 C  
BRANCH   6   7
HETATM    7  C   UNL     1     -11.202  13.562  66.883  1.00  0.00    -0.311 C  
BRANCH   7   8
HETATM    8  S   UNL     1      -9.928  14.782  67.412  1.00  0.00    -0.223 SA 
BRANCH   8   9
HETATM    9  P   UNL     1     -10.259  16.583  66.342  1.00  0.00    -0.309 P  
HETATM   10  S   UNL     1     -10.613  17.656  68.030  1.00  0.00    -0.331 S  
BRANCH   9  11
HETATM   11  O   UNL     1      -8.676  16.679  65.856  1.00  0.00    -0.483 OA 
HETATM   12  C   UNL     1      -7.593  16.282  66.686  1.00  0.00    -0.232 C  
ENDBRANCH   9  11
BRANCH   9  13
HETATM   13  O   UNL     1     -10.530  18.052  65.471  1.00  0.00    -0.636 OA 
HETATM   14  C   UNL     1     -10.046  19.224  66.096  1.00  0.00    -0.442 C  
ENDBRANCH   9  13
ENDBRANCH   8   9
ENDBRANCH   7   8
BRANCH   7  15
HETATM   15  C   UNL     1     -11.595  12.786  68.133  1.00  0.00    -0.336 C  
HETATM   16  O   UNL     1     -11.432  13.181  69.280  1.00  0.00    -0.273 OA 
BRANCH  15  17
HETATM   17  O   UNL     1     -12.057  11.550  67.789  1.00  0.00    -0.626 OA 
BRANCH  17  18
HETATM   18  C   UNL     1     -11.079  10.679  67.209  1.00  0.00    -0.243 C  
HETATM   19  C   UNL     1     -10.578   9.750  68.299  1.00  0.00    -0.271 C  
ENDBRANCH  17  18
ENDBRANCH  15  17
ENDBRANCH   7  15
ENDBRANCH   6   7
ENDBRANCH   4   6
ENDBRANCH   3   4
ENDBRANCH   2   3
TORSDOF 11
ENDMDL
MODEL        4
REMARK 921   NORMALIZED FREE ENERGY PREDICTED BY IDOCK:   -4.94 KCAL/MOL
REMARK 922        TOTAL FREE ENERGY PREDICTED BY IDOCK:   -8.82 KCAL/MOL
REMARK 923 INTER-LIGAND FREE ENERGY PREDICTED BY IDOCK:   -7.91 KCAL/MOL
REMARK 924 INTRA-LIGAND FREE ENERGY PREDICTED BY IDOCK:   -0.90 KCAL/MOL
REMARK 927      BINDING AFFINITY PREDICTED BY RF-SCORE:    0.00 PKD
ROOT
HETATM    1  C   UNL     1     -12.986  15.478  70.956  1.00  0.00    -0.550 C  
HETATM    2  C   UNL     1     -12.189  14.252  70.548  1.00  0.00    -0.356 C  
ENDROOT
BRANCH   2   3
HETATM    3  O   UNL     1     -12.376  14.065  69.140  1.00  0.00    -0.313 OA 
BRANCH   3   4
HETATM    4  C   UNL     1     -11.388  13.399  68.492  1.00  0.00    -0.289 C  
HETATM    5  O   UNL     1     -10.371  12.941  68.999  1.00  0.00    -0.094 OA 
BRANCH   4   6
HETATM    6  C   UNL     1     -11.808  13.123  67.077  1.00  0.00    -0.435 C  
BRANCH   6   7
HETATM    7  C   UNL     1     -11.812  14.397  66.244  1.00  0.00    -0.379 C  
BRANCH   7   8
HETATM    8  S   UNL     1     -10.124  15.059  65.918  1.00  0.00    -0.344 SA 
BRANCH   8   9
HETATM    9  P   UNL     1     -10.217  17.174  66.023  1.00  0.00    -0.183 P  
HETATM   10  S   UNL     1     -10.619  17.173  68.014  1.00  0.00    -0.364 S  
BRANCH   9  11
HETATM   11  O   UNL     1      -8.597  17.341  65.709  1.00  0.00    -0.532 OA 
HETATM   12  C   UNL     1      -7.599  16.628  66.426  1.00  0.00    -0.262 C  
ENDBRANCH   9  11
BRANCH   9  13
HETATM   13  O   UNL     1     -10.293  18.901  66.110  1.00  0.00    -0.422 OA 
HETATM   14  C   UNL     1     -10.580  19.429  67.390  1.00  0.00    -0.488 C  
ENDBRANCH   9  13
ENDBRANCH   8   9
ENDBRANCH   7   8
BRANCH   7  15
HETATM   15  C   UNL     1     -12.422  14.091  64.883  1.00  0.00    -0.396 C  
HETATM   16  O   UNL     1     -12.730  14.934  64.051  1.00  0.00    -0.792 OA 
BRANCH  15  17
HETATM   17  O   UNL     1     -12.668  12.754  64.772  1.00  0.00    -0.644 OA 
BRANCH  17  18
HETATM   18  C   UNL     1     -12.276  12.169  63.524  1.00  0.00    -0.567 C  
HETATM   19  C   UNL     1     -10.776  11.942  63.567  1.00  0.00    -0.504 C  
ENDBRANCH  17  18
ENDBRANCH  15  17
ENDBRANCH   7  15
ENDBRANCH   6   7
ENDBRANCH   4   6
ENDBRANCH   3   4
ENDBRANCH   2   3
TORSDOF 11
ENDMDL
MODEL        5
REMARK 921   NORMALIZED FREE ENERGY PREDICTED BY IDOCK:   -4.89 KCAL/MOL
REMARK 922        TOTAL FREE ENERGY PREDICTED BY IDOCK:   -8.73 KCAL/MOL
REMARK 923 INTER-LIGAND FREE ENERGY PREDICTED BY IDOCK:   -7.96 KCAL/MOL
REMARK 924 INTRA-LIGAND FREE ENERGY PREDICTED BY IDOCK:   -0.78 KCAL/MOL
REMARK 927      BINDING AFFINITY PREDICTED BY RF-SCORE:    0.00 PKD
ROOT
HETATM    1  C   UNL     1     -12.611  12.075  63.439  1.00  0.00    -0.592 C  
HETATM    2  C   UNL     1     -11.622  13.112  63.941  1.00  0.00    -0.433 C  
ENDROOT
BRANCH   2   3
HETATM    3  O   UNL     1     -12.327  14.352  64.074  1.00  0.00    -0.667 OA 
BRANCH   3   4
HETATM    4  C   UNL     1     -11.564  15.447  64.316  1.00  0.00    -0.191 C  
HETATM    5  O   UNL     1     -11.775  16.580  63.900  1.00  0.00    -1.148 OA 
BRANCH   4   6
HETATM    6  C   UNL     1     -10.518  15.119  65.342  1.00  0.00    -0.416 C  
BRANCH   6   7
HETATM    7  C   UNL     1     -10.614  16.048  66.543  1.00  0.00    -0.284 C  
BRANCH   7   8
HETATM    8  S   UNL     1     -10.398  15.181  68.154  1.00  0.00    -0.242 SA 
BRANCH   8   9
HETATM    9  P   UNL     1     -11.390  13.312  68.032  1.00  0.00    -0.335 P  
HETATM   10  S   UNL     1      -9.655  12.257  68.071  1.00  0.00    -0.209 S  
BRANCH   9  11
HETATM   11  O   UNL     1     -12.059  13.478  69.541  1.00  0.00    -0.316 OA 
HETATM   12  C   UNL     1     -12.094  14.719  70.231  1.00  0.00    -0.322 C  
ENDBRANCH   9  11
BRANCH   9  13
HETATM   13  O   UNL     1     -12.199  11.786  67.932  1.00  0.00    -0.538 OA 
HETATM   14  C   UNL     1     -11.389  10.655  68.185  1.00  0.00    -0.284 C  
ENDBRANCH   9  13
ENDBRANCH   8   9
ENDBRANCH   7   8
BRANCH   7  15
HETATM   15  C   UNL     1      -9.494  17.077  66.458  1.00  0.00    -0.276 C  
HETATM   16  O   UNL     1      -8.522  16.991  65.720  1.00  0.00    -0.508 OA 
BRANCH  15  17
HETATM   17  O   UNL     1      -9.681  18.049  67.396  1.00  0.00    -0.283 OA 
BRANCH  17  18
HETATM   18  C   UNL     1     -10.833  18.876  67.187  1.00  0.00    -0.348 C  
HETATM   19  C   UNL     1     -10.594  19.698  65.933  1.00  0.00    -0.566 C  
ENDBRANCH  17  18
ENDBRANCH  15  17
ENDBRANCH   7  15
ENDBRANCH   6   7
ENDBRANCH   4   6
ENDBRANCH   3   4
ENDBRANCH   2   3
TORSDOF 11
ENDMDL
MODEL        6
REMARK 921   NORMALIZED FREE ENERGY PREDICTED BY IDOCK:   -4.85 KCAL/MOL
REMARK 922        TOTAL FREE ENERGY PREDICTED BY IDOCK:   -8.66 KCAL/MOL
REMARK 923 INTER-LIGAND FREE ENERGY PREDICTED BY IDOCK:   -7.83 KCAL/MOL
REMARK 924 INTRA-LIGAND FREE ENERGY PREDICTED BY IDOCK:   -0.83 KCAL/MOL
REMARK 927      BINDING AFFINITY PREDICTED BY RF-SCORE:    0.00 PKD
ROOT
HETATM    1  C   UNL     1     -11.778  10.338  70.338  1.00  0.00    -0.404 C  
HETATM    2  C   UNL     1     -12.103  11.821  70.316  1.00  0.00    -0.342 C  
ENDROOT
BRANCH   2   3
HETATM    3  O   UNL     1     -11.308  12.421  69.287  1.00  0.00    -0.259 OA 
BRANCH   3   4
HETATM    4  C   UNL     1     -11.908  13.402  68.567  1.00  0.00    -0.366 C  
HETATM    5  O   UNL     1     -12.320  14.469  69.004  1.00  0.00    -0.225 OA 
BRANCH   4   6
HETATM    6  C   UNL     1     -11.820  13.080  67.104  1.00  0.00    -0.431 C  
BRANCH   6   7
HETATM    7  C   UNL     1     -11.772  14.348  66.263  1.00  0.00    -0.385 C  
BRANCH   7   8
HETATM    8  S   UNL     1     -10.060  14.952  65.951  1.00  0.00    -0.348 SA 
BRANCH   8   9
HETATM    9  P   UNL     1      -9.883  16.889  66.793  1.00  0.00    -0.305 P  
HETATM   10  S   UNL     1      -9.097  16.189  68.530  1.00  0.00    -0.217 S  
BRANCH   9  11
HETATM   11  O   UNL     1      -8.712  17.340  65.709  1.00  0.00    -0.531 OA 
HETATM   12  C   UNL     1      -7.418  17.770  66.112  1.00  0.00    -0.287 C  
ENDBRANCH   9  11
BRANCH   9  13
HETATM   13  O   UNL     1      -9.739  18.470  67.481  1.00  0.00    -0.289 OA 
HETATM   14  C   UNL     1     -10.710  19.405  67.055  1.00  0.00    -0.474 C  
ENDBRANCH   9  13
ENDBRANCH   8   9
ENDBRANCH   7   8
BRANCH   7  15
HETATM   15  C   UNL     1     -12.376  14.054  64.896  1.00  0.00    -0.427 C  
HETATM   16  O   UNL     1     -12.510  14.876  64.000  1.00  0.00    -0.807 OA 
BRANCH  15  17
HETATM   17  O   UNL     1     -12.838  12.771  64.857  1.00  0.00    -0.722 OA 
BRANCH  17  18
HETATM   18  C   UNL     1     -12.541  12.058  63.650  1.00  0.00    -0.490 C  
HETATM   19  C   UNL     1     -11.057  11.739  63.651  1.00  0.00    -0.518 C  
ENDBRANCH  17  18
ENDBRANCH  15  17
ENDBRANCH   7  15
ENDBRANCH   6   7
ENDBRANCH   4   6
ENDBRANCH   3   4
ENDBRANCH   2   3
TORSDOF 11
ENDMDL
MODEL        7
REMARK 921   NORMALIZED FREE ENERGY PREDICTED BY IDOCK:   -4.79 KCAL/MOL
REMARK 922        TOTAL FREE ENERGY PREDICTED BY IDOCK:   -8.56 KCAL/MOL
REMARK 923 INTER-LIGAND FREE ENERGY PREDICTED BY IDOCK:   -7.81 KCAL/MOL
REMARK 924 INTRA-LIGAND FREE ENERGY PREDICTED BY IDOCK:   -0.75 KCAL/MOL
REMARK 927      BINDING AFFINITY PREDICTED BY RF-SCORE:    0.00 PKD
ROOT
HETATM    1  C   UNL     1     -13.262  15.246  70.985  1.00  0.00    -0.546 C  
HETATM    2  C   UNL     1     -12.425  14.168  70.321  1.00  0.00    -0.353 C  
ENDROOT
BRANCH   2   3
HETATM    3  O   UNL     1     -11.920  14.708  69.094  1.00  0.00    -0.308 OA 
BRANCH   3   4
HETATM    4  C   UNL     1     -11.141  13.880  68.354  1.00  0.00    -0.255 C  
HETATM    5  O   UNL     1     -10.095  13.357  68.718  1.00  0.00    -0.192 OA 
BRANCH   4   6
HETATM    6  C   UNL     1     -11.847  13.529  67.077  1.00  0.00    -0.447 C  
BRANCH   6   7
HETATM    7  C   UNL     1     -11.803  14.684  66.087  1.00  0.00    -0.277 C  
BRANCH   7   8
HETATM    8  S   UNL     1     -10.091  15.221  65.669  1.00  0.00    -0.383 SA 
BRANCH   8   9
HETATM    9  P   UNL     1      -9.673  16.992  66.756  1.00  0.00    -0.295 P  
HETATM   10  S   UNL     1      -7.667  16.822  66.488  1.00  0.00    -0.309 S  
BRANCH   9  11
HETATM   11  O   UNL     1     -10.381  17.958  65.609  1.00  0.00    -0.605 OA 
HETATM   12  C   UNL     1     -10.609  19.346  65.810  1.00  0.00    -0.400 C  
ENDBRANCH   9  11
BRANCH   9  13
HETATM   13  O   UNL     1      -9.332  18.437  67.643  1.00  0.00    -0.264 OA 
HETATM   14  C   UNL     1      -8.058  18.484  68.256  1.00  0.00    -0.303 C  
ENDBRANCH   9  13
ENDBRANCH   8   9
ENDBRANCH   7   8
BRANCH   7  15
HETATM   15  C   UNL     1     -12.441  14.235  64.779  1.00  0.00    -0.374 C  
HETATM   16  O   UNL     1     -12.780  14.985  63.874  1.00  0.00    -0.775 OA 
BRANCH  15  17
HETATM   17  O   UNL     1     -12.671  12.891  64.810  1.00  0.00    -0.647 OA 
BRANCH  17  18
HETATM   18  C   UNL     1     -12.344  12.193  63.603  1.00  0.00    -0.568 C  
HETATM   19  C   UNL     1     -10.836  12.032  63.553  1.00  0.00    -0.509 C  
ENDBRANCH  17  18
ENDBRANCH  15  17
ENDBRANCH   7  15
ENDBRANCH   6   7
ENDBRANCH   4   6
ENDBRANCH   3   4
ENDBRANCH   2   3
TORSDOF 11
ENDMDL
MODEL        8
REMARK 921   NORMALIZED FREE ENERGY PREDICTED BY IDOCK:   -4.71 KCAL/MOL
REMARK 922        TOTAL FREE ENERGY PREDICTED BY IDOCK:   -8.43 KCAL/MOL
REMARK 923 INTER-LIGAND FREE ENERGY PREDICTED BY IDOCK:   -7.72 KCAL/MOL
REMARK 924 INTRA-LIGAND FREE ENERGY PREDICTED BY IDOCK:   -0.71 KCAL/MOL
REMARK 927      BINDING AFFINITY PREDICTED BY RF-SCORE:    0.00 PKD
ROOT
HETATM    1  C   UNL     1     -13.743  15.673  72.670  1.00  0.00    -0.666 C  
HETATM    2  C   UNL     1     -12.392  15.599  71.980  1.00  0.00    -0.423 C  
ENDROOT
BRANCH   2   3
HETATM    3  O   UNL     1     -12.620  15.731  70.572  1.00  0.00    -0.421 OA 
BRANCH   3   4
HETATM    4  C   UNL     1     -11.988  14.830  69.780  1.00  0.00    -0.321 C  
HETATM    5  O   UNL     1     -11.604  13.717  70.116  1.00  0.00    -0.236 OA 
BRANCH   4   6
HETATM    6  C   UNL     1     -11.996  15.313  68.358  1.00  0.00    -0.189 C  
BRANCH   6   7
HETATM    7  C   UNL     1     -10.581  15.451  67.814  1.00  0.00    -0.274 C  
BRANCH   7   8
HETATM    8  S   UNL     1     -10.037  13.998  66.822  1.00  0.00    -0.269 SA 
BRANCH   8   9
HETATM    9  P   UNL     1     -11.713  13.271  65.746  1.00  0.00    -0.403 P  
HETATM   10  S   UNL     1     -10.575  12.573  64.216  1.00  0.00    -0.397 S  
BRANCH   9  11
HETATM   11  O   UNL     1     -12.033  12.101  66.877  1.00  0.00    -0.603 OA 
HETATM   12  C   UNL     1     -11.013  11.308  67.470  1.00  0.00    -0.265 C  
ENDBRANCH   9  11
BRANCH   9  13
HETATM   13  O   UNL     1     -13.081  12.679  64.868  1.00  0.00    -0.850 OA 
HETATM   14  C   UNL     1     -12.776  11.928  63.709  1.00  0.00    -0.350 C  
ENDBRANCH   9  13
ENDBRANCH   8   9
ENDBRANCH   7   8
BRANCH   7  15
HETATM   15  C   UNL     1     -10.530  16.651  66.878  1.00  0.00    -0.271 C  
HETATM   16  O   UNL     1     -10.235  16.599  65.692  1.00  0.00    -0.496 OA 
BRANCH  15  17
HETATM   17  O   UNL     1     -10.760  17.798  67.578  1.00  0.00    -0.375 OA 
BRANCH  17  18
HETATM   18  C   UNL     1     -10.185  18.980  67.008  1.00  0.00    -0.386 C  
HETATM   19  C   UNL     1      -9.799  19.906  68.147  1.00  0.00    -0.524 C  
ENDBRANCH  17  18
ENDBRANCH  15  17
ENDBRANCH   7  15
ENDBRANCH   6   7
ENDBRANCH   4   6
ENDBRANCH   3   4
ENDBRANCH   2   3
TORSDOF 11
ENDMDL
MODEL        9
REMARK 921   NORMALIZED FREE ENERGY PREDICTED BY IDOCK:   -4.70 KCAL/MOL
REMARK 922        TOTAL FREE ENERGY PREDICTED BY IDOCK:   -8.42 KCAL/MOL
REMARK 923 INTER-LIGAND FREE ENERGY PREDICTED BY IDOCK:   -7.61 KCAL/MOL
REMARK 924 INTRA-LIGAND FREE ENERGY PREDICTED BY IDOCK:   -0.82 KCAL/MOL
REMARK 927      BINDING AFFINITY PREDICTED BY RF-SCORE:    0.00 PKD
ROOT
HETATM    1  C   UNL     1     -10.789  11.683  63.349  1.00  0.00    -0.453 C  
HETATM    2  C   UNL     1     -12.269  11.982  63.510  1.00  0.00    -0.547 C  
ENDROOT
BRANCH   2   3
HETATM    3  O   UNL     1     -12.445  13.394  63.344  1.00  0.00    -0.753 OA 
BRANCH   3   4
HETATM    4  C   UNL     1     -12.454  14.131  64.482  1.00  0.00    -0.322 C  
HETATM    5  O   UNL     1     -13.239  14.010  65.415  1.00  0.00    -0.761 OA 
BRANCH   4   6
HETATM    6  C   UNL     1     -11.229  14.999  64.533  1.00  0.00    -0.276 C  
BRANCH   6   7
HETATM    7  C   UNL     1     -10.731  15.166  65.961  1.00  0.00    -0.329 C  
BRANCH   7   8
HETATM    8  S   UNL     1      -9.825  13.691  66.594  1.00  0.00    -0.290 SA 
BRANCH   8   9
HETATM    9  P   UNL     1     -10.806  13.022  68.350  1.00  0.00    -0.275 P  
HETATM   10  S   UNL     1     -11.759  14.793  68.632  1.00  0.00    -0.313 S  
BRANCH   9  11
HETATM   11  O   UNL     1     -11.735  11.933  67.513  1.00  0.00    -0.483 OA 
HETATM   12  C   UNL     1     -11.241  10.669  67.090  1.00  0.00    -0.100 C  
ENDBRANCH   9  11
BRANCH   9  13
HETATM   13  O   UNL     1     -11.605  12.477  69.784  1.00  0.00    -0.277 OA 
HETATM   14  C   UNL     1     -12.291  13.477  70.511  1.00  0.00    -0.342 C  
ENDBRANCH   9  13
ENDBRANCH   8   9
ENDBRANCH   7   8
BRANCH   7  15
HETATM   15  C   UNL     1      -9.743  16.324  66.004  1.00  0.00    -0.339 C  
HETATM   16  O   UNL     1      -8.589  16.243  66.402  1.00  0.00    -0.267 OA 
BRANCH  15  17
HETATM   17  O   UNL     1     -10.364  17.480  65.632  1.00  0.00    -0.601 OA 
BRANCH  17  18
HETATM   18  C   UNL     1      -9.976  18.641  66.376  1.00  0.00    -0.388 C  
HETATM   19  C   UNL     1     -10.635  19.848  65.733  1.00  0.00    -0.490 C  
ENDBRANCH  17  18
ENDBRANCH  15  17
ENDBRANCH   7  15
ENDBRANCH   6   7
ENDBRANCH   4   6
ENDBRANCH   3   4
ENDBRANCH   2   3
TORSDOF 11
ENDMDL
MODEL       10
REMARK 921   NORMALIZED FREE ENERGY PREDICTED BY IDOCK:   -4.69 KCAL/MOL
REMARK 922        TOTAL FREE ENERGY PREDICTED BY IDOCK:   -8.41 KCAL/MOL
REMARK 923 INTER-LIGAND FREE ENERGY PREDICTED BY IDOCK:   -7.57 KCAL/MOL
REMARK 924 INTRA-LIGAND FREE ENERGY PREDICTED BY IDOCK:   -0.83 KCAL/MOL
REMARK 927      BINDING AFFINITY PREDICTED BY RF-SCORE:    0.00 PKD
ROOT
HETATM    1  C   UNL     1     -11.591  10.687  69.288  1.00  0.00    -0.346 C  
HETATM    2  C   UNL     1     -11.676  11.855  68.321  1.00  0.00    -0.321 C  
ENDROOT
BRANCH   2   3
HETATM    3  O   UNL     1     -11.901  13.040  69.095  1.00  0.00    -0.297 OA 
BRANCH   3   4
HETATM    4  C   UNL     1     -11.918  14.207  68.404  1.00  0.00    -0.331 C  
HETATM    5  O   UNL     1     -11.943  15.332  68.888  1.00  0.00    -0.322 OA 
BRANCH   4   6
HETATM    6  C   UNL     1     -11.700  13.934  66.944  1.00  0.00    -0.425 C  
BRANCH   6   7
HETATM    7  C   UNL     1     -11.431  15.222  66.177  1.00  0.00    -0.083 C  
BRANCH   7   8
HETATM    8  S   UNL     1      -9.637  15.589  65.977  1.00  0.00    -0.353 SA 
BRANCH   8   9
HETATM    9  P   UNL     1      -9.247  17.470  66.873  1.00  0.00    -0.282 P  
HETATM   10  S   UNL     1      -7.287  17.448  66.340  1.00  0.00    -0.328 S  
BRANCH   9  11
HETATM   11  O   UNL     1     -10.190  18.279  65.774  1.00  0.00    -0.576 OA 
HETATM   12  C   UNL     1     -10.528  19.651  65.917  1.00  0.00    -0.493 C  
ENDBRANCH   9  11
BRANCH   9  13
HETATM   13  O   UNL     1      -8.928  19.005  67.605  1.00  0.00    -0.284 OA 
HETATM   14  C   UNL     1      -7.980  18.989  68.654  1.00  0.00    -0.352 C  
ENDBRANCH   9  13
ENDBRANCH   8   9
ENDBRANCH   7   8
BRANCH   7  15
HETATM   15  C   UNL     1     -11.998  15.083  64.771  1.00  0.00    -0.311 C  
HETATM   16  O   UNL     1     -12.039  15.982  63.943  1.00  0.00    -0.880 OA 
BRANCH  15  17
HETATM   17  O   UNL     1     -12.544  13.844  64.609  1.00  0.00    -0.616 OA 
BRANCH  17  18
HETATM   18  C   UNL     1     -12.224  13.199  63.370  1.00  0.00    -0.444 C  
HETATM   19  C   UNL     1     -11.100  12.215  63.634  1.00  0.00    -0.528 C  
ENDBRANCH  17  18
ENDBRANCH  15  17
ENDBRANCH   7  15
ENDBRANCH   6   7
ENDBRANCH   4   6
ENDBRANCH   3   4
ENDBRANCH   2   3
TORSDOF 11
ENDMDL
MODEL       11
REMARK 921   NORMALIZED FREE ENERGY PREDICTED BY IDOCK:   -4.69 KCAL/MOL
REMARK 922        TOTAL FREE ENERGY PREDICTED BY IDOCK:   -8.40 KCAL/MOL
REMARK 923 INTER-LIGAND FREE ENERGY PREDICTED BY IDOCK:   -7.63 KCAL/MOL
REMARK 924 INTRA-LIGAND FREE ENERGY PREDICTED BY IDOCK:   -0.77 KCAL/MOL
REMARK 927      BINDING AFFINITY PREDICTED BY RF-SCORE:    0.00 PKD
ROOT
HETATM    1  C   UNL     1     -10.483  18.515  66.401  1.00  0.00    -0.443 C  
HETATM    2  C   UNL     1     -10.382  17.045  66.768  1.00  0.00    -0.302 C  
ENDROOT
BRANCH   2   3
HETATM    3  O   UNL     1     -10.131  16.316  65.561  1.00  0.00    -0.477 OA 
BRANCH   3   4
HETATM    4  C   UNL     1     -11.219  16.022  64.806  1.00  0.00    -0.339 C  
HETATM    5  O   UNL     1     -11.551  16.584  63.770  1.00  0.00    -1.109 OA 
BRANCH   4   6
HETATM    6  C   UNL     1     -11.864  14.766  65.315  1.00  0.00    -0.276 C  
BRANCH   6   7
HETATM    7  C   UNL     1     -11.060  13.535  64.921  1.00  0.00    -0.346 C  
BRANCH   7   8
HETATM    8  S   UNL     1     -10.999  12.251  66.241  1.00  0.00    -0.305 SA 
BRANCH   8   9
HETATM    9  P   UNL     1     -11.585  13.157  68.066  1.00  0.00    -0.358 P  
HETATM   10  S   UNL     1     -11.772  11.376  69.024  1.00  0.00    -0.364 S  
BRANCH   9  11
HETATM   11  O   UNL     1     -10.093  13.843  68.298  1.00  0.00    -0.228 OA 
HETATM   12  C   UNL     1      -8.885  13.193  67.930  1.00  0.00    -0.196 C  
ENDBRANCH   9  11
BRANCH   9  13
HETATM   13  O   UNL     1     -12.065  13.895  69.555  1.00  0.00    -0.321 OA 
HETATM   14  C   UNL     1     -11.779  15.276  69.665  1.00  0.00    -0.334 C  
ENDBRANCH   9  13
ENDBRANCH   8   9
ENDBRANCH   7   8
BRANCH   7  15
HETATM   15  C   UNL     1     -11.725  12.879  63.718  1.00  0.00    -0.492 C  
HETATM   16  O   UNL     1     -12.606  13.392  63.042  1.00  0.00    -0.669 OA 
BRANCH  15  17
HETATM   17  O   UNL     1     -11.268  11.602  63.571  1.00  0.00    -0.410 OA 
BRANCH  17  18
HETATM   18  C   UNL     1      -9.971  11.490  62.972  1.00  0.00    -0.322 C  
HETATM   19  C   UNL     1      -9.406  10.129  63.337  1.00  0.00    -0.334 C  
ENDBRANCH  17  18
ENDBRANCH  15  17
ENDBRANCH   7  15
ENDBRANCH   6   7
ENDBRANCH   4   6
ENDBRANCH   3   4
ENDBRANCH   2   3
TORSDOF 11
ENDMDL
MODEL       12
REMARK 921   NORMALIZED FREE ENERGY PREDICTED BY IDOCK:   -4.69 KCAL/MOL
REMARK 922        TOTAL FREE ENERGY PREDICTED BY IDOCK:   -8.40 KCAL/MOL
REMARK 923 INTER-LIGAND FREE ENERGY PREDICTED BY IDOCK:   -7.58 KCAL/MOL
REMARK 924 INTRA-LIGAND FREE ENERGY PREDICTED BY IDOCK:   -0.82 KCAL/MOL
REMARK 927      BINDING AFFINITY PREDICTED BY RF-SCORE:    0.00 PKD
ROOT
HETATM    1  C   UNL     1     -12.513  11.933  63.675  1.00  0.00    -0.583 C  
HETATM    2  C   UNL     1     -12.020  13.308  63.258  1.00  0.00    -0.310 C  
ENDROOT
BRANCH   2   3
HETATM    3  O   UNL     1     -12.469  14.244  64.245  1.00  0.00    -0.657 OA 
BRANCH   3   4
HETATM    4  C   UNL     1     -11.621  15.263  64.529  1.00  0.00    -0.312 C  
HETATM    5  O   UNL     1     -11.622  16.371  64.006  1.00  0.00    -1.071 OA 
BRANCH   4   6
HETATM    6  C   UNL     1     -10.790  14.911  65.729  1.00  0.00    -0.343 C  
BRANCH   6   7
HETATM    7  C   UNL     1     -11.494  15.303  67.020  1.00  0.00    -0.167 C  
BRANCH   7   8
HETATM    8  S   UNL     1     -11.844  13.870  68.124  1.00  0.00    -0.361 SA 
BRANCH   8   9
HETATM    9  P   UNL     1     -11.094  12.122  67.188  1.00  0.00    -0.331 P  
HETATM   10  S   UNL     1      -9.252  12.328  68.020  1.00  0.00    -0.198 S  
BRANCH   9  11
HETATM   11  O   UNL     1     -12.078  11.127  68.077  1.00  0.00    -0.635 OA 
HETATM   12  C   UNL     1     -12.030  11.069  69.497  1.00  0.00    -0.342 C  
ENDBRANCH   9  11
BRANCH   9  13
HETATM   13  O   UNL     1     -10.480  10.696  66.425  1.00  0.00    -0.242 OA 
HETATM   14  C   UNL     1      -9.408  10.905  65.527  1.00  0.00    -0.206 C  
ENDBRANCH   9  13
ENDBRANCH   8   9
ENDBRANCH   7   8
BRANCH   7  15
HETATM   15  C   UNL     1     -10.587  16.239  67.809  1.00  0.00    -0.314 C  
HETATM   16  O   UNL     1     -10.164  16.015  68.935  1.00  0.00    -0.210 OA 
BRANCH  15  17
HETATM   17  O   UNL     1     -10.403  17.401  67.119  1.00  0.00    -0.317 OA 
BRANCH  17  18
HETATM   18  C   UNL     1     -10.494  18.593  67.909  1.00  0.00    -0.385 C  
HETATM   19  C   UNL     1     -10.433  19.781  66.966  1.00  0.00    -0.595 C  
ENDBRANCH  17  18
ENDBRANCH  15  17
ENDBRANCH   7  15
ENDBRANCH   6   7
ENDBRANCH   4   6
ENDBRANCH   3   4
ENDBRANCH   2   3
TORSDOF 11
ENDMDL
MODEL       13
REMARK 921   NORMALIZED FREE ENERGY PREDICTED BY IDOCK:   -4.69 KCAL/MOL
REMARK 922        TOTAL FREE ENERGY PREDICTED BY IDOCK:   -8.40 KCAL/MOL
REMARK 923 INTER-LIGAND FREE ENERGY PREDICTED BY IDOCK:   -7.83 KCAL/MOL
REMARK 924 INTRA-LIGAND FREE ENERGY PREDICTED BY IDOCK:   -0.57 KCAL/MOL
REMARK 927      BINDING AFFINITY PREDICTED BY RF-SCORE:    0.00 PKD
ROOT
HETATM    1  C   UNL     1      -9.196  10.103  62.901  1.00  0.00    -0.316 C  
HETATM    2  C   UNL     1      -9.697  11.439  63.420  1.00  0.00    -0.365 C  
ENDROOT
BRANCH   2   3
HETATM    3  O   UNL     1     -11.116  11.334  63.582  1.00  0.00    -0.376 OA 
BRANCH   3   4
HETATM    4  C   UNL     1     -11.769  12.487  63.872  1.00  0.00    -0.452 C  
HETATM    5  O   UNL     1     -12.979  12.668  63.808  1.00  0.00    -0.707 OA 
BRANCH   4   6
HETATM    6  C   UNL     1     -10.812  13.472  64.479  1.00  0.00    -0.422 C  
BRANCH   6   7
HETATM    7  C   UNL     1     -11.548  14.519  65.303  1.00  0.00    -0.359 C  
BRANCH   7   8
HETATM    8  S   UNL     1     -11.108  14.479  67.092  1.00  0.00    -0.332 SA 
BRANCH   8   9
HETATM    9  P   UNL     1     -11.566  12.549  67.838  1.00  0.00    -0.340 P  
HETATM   10  S   UNL     1      -9.632  11.934  67.763  1.00  0.00    -0.196 S  
BRANCH   9  11
HETATM   11  O   UNL     1     -11.982  13.138  69.332  1.00  0.00    -0.307 OA 
HETATM   12  C   UNL     1     -12.146  14.525  69.591  1.00  0.00    -0.323 C  
ENDBRANCH   9  11
BRANCH   9  13
HETATM   13  O   UNL     1     -11.940  10.973  68.447  1.00  0.00    -0.565 OA 
HETATM   14  C   UNL     1     -10.959   9.984  68.205  1.00  0.00    -0.235 C  
ENDBRANCH   9  13
ENDBRANCH   8   9
ENDBRANCH   7   8
BRANCH   7  15
HETATM   15  C   UNL     1     -11.159  15.903  64.799  1.00  0.00    -0.384 C  
HETATM   16  O   UNL     1     -11.640  16.446  63.813  1.00  0.00    -1.055 OA 
BRANCH  15  17
HETATM   17  O   UNL     1     -10.129  16.398  65.542  1.00  0.00    -0.508 OA 
BRANCH  17  18
HETATM   18  C   UNL     1     -10.283  17.761  65.956  1.00  0.00    -0.293 C  
HETATM   19  C   UNL     1      -8.977  18.205  66.590  1.00  0.00    -0.292 C  
ENDBRANCH  17  18
ENDBRANCH  15  17
ENDBRANCH   7  15
ENDBRANCH   6   7
ENDBRANCH   4   6
ENDBRANCH   3   4
ENDBRANCH   2   3
TORSDOF 11
ENDMDL
MODEL       14
REMARK 921   NORMALIZED FREE ENERGY PREDICTED BY IDOCK:   -4.66 KCAL/MOL
REMARK 922        TOTAL FREE ENERGY PREDICTED BY IDOCK:   -8.36 KCAL/MOL
REMARK 923 INTER-LIGAND FREE ENERGY PREDICTED BY IDOCK:   -7.53 KCAL/MOL
REMARK 924 INTRA-LIGAND FREE ENERGY PREDICTED BY IDOCK:   -0.82 KCAL/MOL
REMARK 927      BINDING AFFINITY PREDICTED BY RF-SCORE:    0.00 PKD
ROOT
HETATM    1  C   UNL     1     -12.714  11.780  63.693  1.00  0.00    -0.407 C  
HETATM    2  C   UNL     1     -11.796  12.955  63.408  1.00  0.00    -0.507 C  
ENDROOT
BRANCH   2   3
HETATM    3  O   UNL     1     -12.576  14.151  63.532  1.00  0.00    -0.834 OA 
BRANCH   3   4
HETATM    4  C   UNL     1     -12.040  15.134  64.298  1.00  0.00    -0.261 C  
HETATM    5  O   UNL     1     -11.724  16.255  63.917  1.00  0.00    -0.986 OA 
BRANCH   4   6
HETATM    6  C   UNL     1     -12.068  14.723  65.741  1.00  0.00    -0.108 C  
BRANCH   6   7
HETATM    7  C   UNL     1     -10.671  14.730  66.344  1.00  0.00    -0.313 C  
BRANCH   7   8
HETATM    8  S   UNL     1     -10.475  15.943  67.717  1.00  0.00    -0.294 SA 
BRANCH   8   9
HETATM    9  P   UNL     1     -10.177  17.860  66.862  1.00  0.00    -0.353 P  
HETATM   10  S   UNL     1      -9.363  18.618  68.562  1.00  0.00    -0.347 S  
BRANCH   9  11
HETATM   11  O   UNL     1      -9.025  17.299  65.809  1.00  0.00    -0.521 OA 
HETATM   12  C   UNL     1      -7.678  17.067  66.197  1.00  0.00    -0.257 C  
ENDBRANCH   9  11
BRANCH   9  13
HETATM   13  O   UNL     1      -9.934  19.424  66.166  1.00  0.00    -0.392 OA 
HETATM   14  C   UNL     1      -9.720  20.472  67.092  1.00  0.00    -0.441 C  
ENDBRANCH   9  13
ENDBRANCH   8   9
ENDBRANCH   7   8
BRANCH   7  15
HETATM   15  C   UNL     1     -10.388  13.358  66.942  1.00  0.00    -0.257 C  
HETATM   16  O   UNL     1      -9.278  12.850  67.028  1.00  0.00    -0.212 OA 
BRANCH  15  17
HETATM   17  O   UNL     1     -11.559  12.742  67.271  1.00  0.00    -0.319 OA 
BRANCH  17  18
HETATM   18  C   UNL     1     -11.737  12.486  68.669  1.00  0.00    -0.325 C  
HETATM   19  C   UNL     1     -11.773  10.982  68.866  1.00  0.00    -0.400 C  
ENDBRANCH  17  18
ENDBRANCH  15  17
ENDBRANCH   7  15
ENDBRANCH   6   7
ENDBRANCH   4   6
ENDBRANCH   3   4
ENDBRANCH   2   3
TORSDOF 11
ENDMDL
MODEL       15
REMARK 921   NORMALIZED FREE ENERGY PREDICTED BY IDOCK:   -4.65 KCAL/MOL
REMARK 922        TOTAL FREE ENERGY PREDICTED BY IDOCK:   -8.34 KCAL/MOL
REMARK 923 INTER-LIGAND FREE ENERGY PREDICTED BY IDOCK:   -7.59 KCAL/MOL
REMARK 924 INTRA-LIGAND FREE ENERGY PREDICTED BY IDOCK:   -0.75 KCAL/MOL
REMARK 927      BINDING AFFINITY PREDICTED BY RF-SCORE:    0.00 PKD
ROOT
HETATM    1  C   UNL     1     -12.105  12.972  63.527  1.00  0.00    -0.617 C  
HETATM    2  C   UNL     1     -11.157  13.843  64.332  1.00  0.00    -0.319 C  
ENDROOT
BRANCH   2   3
HETATM    3  O   UNL     1     -10.695  13.066  65.443  1.00  0.00    -0.281 OA 
BRANCH   3   4
HETATM    4  C   UNL     1     -11.585  12.878  66.449  1.00  0.00    -0.371 C  
HETATM    5  O   UNL     1     -12.002  11.799  66.853  1.00  0.00    -0.605 OA 
BRANCH   4   6
HETATM    6  C   UNL     1     -11.846  14.183  67.143  1.00  0.00    -0.454 C  
BRANCH   6   7
HETATM    7  C   UNL     1     -11.016  14.308  68.413  1.00  0.00    -0.253 C  
BRANCH   7   8
HETATM    8  S   UNL     1      -9.585  15.455  68.237  1.00  0.00    -0.208 SA 
BRANCH   8   9
HETATM    9  P   UNL     1     -10.079  16.902  66.769  1.00  0.00    -0.303 P  
HETATM   10  S   UNL     1      -9.954  18.447  68.082  1.00  0.00    -0.384 S  
BRANCH   9  11
HETATM   11  O   UNL     1      -8.661  16.663  65.941  1.00  0.00    -0.483 OA 
HETATM   12  C   UNL     1      -7.432  17.256  66.339  1.00  0.00    -0.301 C  
ENDBRANCH   9  11
BRANCH   9  13
HETATM   13  O   UNL     1     -10.483  18.083  65.571  1.00  0.00    -0.636 OA 
HETATM   14  C   UNL     1     -10.544  19.418  66.035  1.00  0.00    -0.480 C  
ENDBRANCH   9  13
ENDBRANCH   8   9
ENDBRANCH   7   8
BRANCH   7  15
HETATM   15  C   UNL     1     -11.892  14.884  69.518  1.00  0.00    -0.325 C  
HETATM   16  O   UNL     1     -12.043  16.078  69.738  1.00  0.00    -0.275 OA 
BRANCH  15  17
HETATM   17  O   UNL     1     -12.396  13.876  70.285  1.00  0.00    -0.327 OA 
BRANCH  17  18
HETATM   18  C   UNL     1     -12.551  14.194  71.674  1.00  0.00    -0.337 C  
HETATM   19  C   UNL     1     -13.838  13.551  72.158  1.00  0.00    -0.628 C  
ENDBRANCH  17  18
ENDBRANCH  15  17
ENDBRANCH   7  15
ENDBRANCH   6   7
ENDBRANCH   4   6
ENDBRANCH   3   4
ENDBRANCH   2   3
TORSDOF 11
ENDMDL
MODEL       16
REMARK 921   NORMALIZED FREE ENERGY PREDICTED BY IDOCK:   -4.64 KCAL/MOL
REMARK 922        TOTAL FREE ENERGY PREDICTED BY IDOCK:   -8.33 KCAL/MOL
REMARK 923 INTER-LIGAND FREE ENERGY PREDICTED BY IDOCK:   -7.70 KCAL/MOL
REMARK 924 INTRA-LIGAND FREE ENERGY PREDICTED BY IDOCK:   -0.63 KCAL/MOL
REMARK 927      BINDING AFFINITY PREDICTED BY RF-SCORE:    0.00 PKD
ROOT
HETATM    1  C   UNL     1     -13.680  13.715  72.487  1.00  0.00    -0.663 C  
HETATM    2  C   UNL     1     -14.140  15.057  71.945  1.00  0.00    -0.532 C  
ENDROOT
BRANCH   2   3
HETATM    3  O   UNL     1     -13.712  15.141  70.581  1.00  0.00    -0.237 OA 
BRANCH   3   4
HETATM    4  C   UNL     1     -12.389  15.366  70.385  1.00  0.00    -0.402 C  
HETATM    5  O   UNL     1     -11.706  16.205  70.960  1.00  0.00    -0.410 OA 
BRANCH   4   6
HETATM    6  C   UNL     1     -11.820  14.298  69.497  1.00  0.00    -0.378 C  
BRANCH   6   7
HETATM    7  C   UNL     1     -11.629  14.807  68.075  1.00  0.00    -0.343 C  
BRANCH   7   8
HETATM    8  S   UNL     1      -9.963  15.534  67.779  1.00  0.00    -0.223 SA 
BRANCH   8   9
HETATM    9  P   UNL     1     -10.225  17.427  66.861  1.00  0.00    -0.298 P  
HETATM   10  S   UNL     1      -9.845  18.442  68.579  1.00  0.00    -0.387 S  
BRANCH   9  11
HETATM   11  O   UNL     1      -8.870  17.249  65.922  1.00  0.00    -0.528 OA 
HETATM   12  C   UNL     1      -7.568  17.105  66.474  1.00  0.00    -0.285 C  
ENDBRANCH   9  11
BRANCH   9  13
HETATM   13  O   UNL     1     -10.440  18.972  66.113  1.00  0.00    -0.439 OA 
HETATM   14  C   UNL     1     -10.284  20.086  66.971  1.00  0.00    -0.451 C  
ENDBRANCH   9  13
ENDBRANCH   8   9
ENDBRANCH   7   8
BRANCH   7  15
HETATM   15  C   UNL     1     -11.761  13.635  67.112  1.00  0.00    -0.383 C  
HETATM   16  O   UNL     1     -12.009  12.483  67.444  1.00  0.00    -0.456 OA 
BRANCH  15  17
HETATM   17  O   UNL     1     -11.462  14.037  65.844  1.00  0.00    -0.317 OA 
BRANCH  17  18
HETATM   18  C   UNL     1     -12.407  13.638  64.844  1.00  0.00    -0.406 C  
HETATM   19  C   UNL     1     -11.665  12.818  63.803  1.00  0.00    -0.562 C  
ENDBRANCH  17  18
ENDBRANCH  15  17
ENDBRANCH   7  15
ENDBRANCH   6   7
ENDBRANCH   4   6
ENDBRANCH   3   4
ENDBRANCH   2   3
TORSDOF 11
ENDMDL
MODEL       17
REMARK 921   NORMALIZED FREE ENERGY PREDICTED BY IDOCK:   -4.64 KCAL/MOL
REMARK 922        TOTAL FREE ENERGY PREDICTED BY IDOCK:   -8.32 KCAL/MOL
REMARK 923 INTER-LIGAND FREE ENERGY PREDICTED BY IDOCK:   -7.52 KCAL/MOL
REMARK 924 INTRA-LIGAND FREE ENERGY PREDICTED BY IDOCK:   -0.80 KCAL/MOL
REMARK 927      BINDING AFFINITY PREDICTED BY RF-SCORE:    0.00 PKD
ROOT
HETATM    1  C   UNL     1     -12.664  13.671  71.270  1.00  0.00    -0.443 C  
HETATM    2  C   UNL     1     -12.452  14.964  70.502  1.00  0.00    -0.363 C  
ENDROOT
BRANCH   2   3
HETATM    3  O   UNL     1     -11.563  14.680  69.416  1.00  0.00    -0.271 OA 
BRANCH   3   4
HETATM    4  C   UNL     1     -11.200  15.740  68.651  1.00  0.00    -0.351 C  
HETATM    5  O   UNL     1     -11.063  16.895  69.036  1.00  0.00    -0.242 OA 
BRANCH   4   6
HETATM    6  C   UNL     1     -10.790  15.263  67.288  1.00  0.00    -0.318 C  
BRANCH   6   7
HETATM    7  C   UNL     1     -10.513  16.434  66.355  1.00  0.00    -0.286 C  
BRANCH   7   8
HETATM    8  S   UNL     1      -8.724  16.850  66.219  1.00  0.00    -0.261 SA 
BRANCH   8   9
HETATM    9  P   UNL     1      -8.471  18.867  66.820  1.00  0.00    -0.317 P  
HETATM   10  S   UNL     1     -10.410  19.343  66.444  1.00  0.00    -0.515 S  
BRANCH   9  11
HETATM   11  O   UNL     1      -8.222  18.447  68.405  1.00  0.00    -0.297 OA 
HETATM   12  C   UNL     1      -7.493  17.289  68.786  1.00  0.00    -0.260 C  
ENDBRANCH   9  11
BRANCH   9  13
HETATM   13  O   UNL     1      -8.266  20.514  67.310  1.00  0.00    -0.339 OA 
HETATM   14  C   UNL     1      -6.926  20.959  67.386  1.00  0.00    -0.368 C  
ENDBRANCH   9  13
ENDBRANCH   8   9
ENDBRANCH   7   8
BRANCH   7  15
HETATM   15  C   UNL     1     -10.973  16.062  64.951  1.00  0.00    -0.384 C  
HETATM   16  O   UNL     1     -11.422  16.851  64.132  1.00  0.00    -1.174 OA 
BRANCH  15  17
HETATM   17  O   UNL     1     -10.908  14.710  64.782  1.00  0.00    -0.399 OA 
BRANCH  17  18
HETATM   18  C   UNL     1     -12.032  14.130  64.110  1.00  0.00    -0.393 C  
HETATM   19  C   UNL     1     -12.454  12.896  64.887  1.00  0.00    -0.540 C  
ENDBRANCH  17  18
ENDBRANCH  15  17
ENDBRANCH   7  15
ENDBRANCH   6   7
ENDBRANCH   4   6
ENDBRANCH   3   4
ENDBRANCH   2   3
TORSDOF 11
ENDMDL
MODEL       18
REMARK 921   NORMALIZED FREE ENERGY PREDICTED BY IDOCK:   -4.63 KCAL/MOL
REMARK 922        TOTAL FREE ENERGY PREDICTED BY IDOCK:   -8.30 KCAL/MOL
REMARK 923 INTER-LIGAND FREE ENERGY PREDICTED BY IDOCK:   -7.39 KCAL/MOL
REMARK 924 INTRA-LIGAND FREE ENERGY PREDICTED BY IDOCK:   -0.91 KCAL/MOL
REMARK 927      BINDING AFFINITY PREDICTED BY RF-SCORE:    0.00 PKD
ROOT
HETATM    1  C   UNL     1     -10.152  10.641  64.554  1.00  0.00    -0.421 C  
HETATM    2  C   UNL     1     -10.788  11.642  63.606  1.00  0.00    -0.432 C  
ENDROOT
BRANCH   2   3
HETATM    3  O   UNL     1     -10.818  12.909  64.273  1.00  0.00    -0.350 OA 
BRANCH   3   4
HETATM    4  C   UNL     1     -12.013  13.550  64.281  1.00  0.00    -0.432 C  
HETATM    5  O   UNL     1     -12.687  13.834  63.298  1.00  0.00    -0.783 OA 
BRANCH   4   6
HETATM    6  C   UNL     1     -12.500  13.694  65.694  1.00  0.00    -0.540 C  
BRANCH   6   7
HETATM    7  C   UNL     1     -11.343  13.665  66.682  1.00  0.00    -0.326 C  
BRANCH   7   8
HETATM    8  S   UNL     1     -11.111  15.257  67.579  1.00  0.00    -0.313 SA 
BRANCH   8   9
HETATM    9  P   UNL     1      -9.601  16.360  66.581  1.00  0.00    -0.293 P  
HETATM   10  S   UNL     1     -10.328  18.149  67.213  1.00  0.00    -0.391 S  
BRANCH   9  11
HETATM   11  O   UNL     1      -8.407  15.779  67.574  1.00  0.00    -0.154 OA 
HETATM   12  C   UNL     1      -8.644  15.420  68.929  1.00  0.00    -0.207 C  
ENDBRANCH   9  11
BRANCH   9  13
HETATM   13  O   UNL     1      -8.370  17.262  65.765  1.00  0.00    -0.535 OA 
HETATM   14  C   UNL     1      -7.922  18.421  66.441  1.00  0.00    -0.262 C  
ENDBRANCH   9  13
ENDBRANCH   8   9
ENDBRANCH   7   8
BRANCH   7  15
HETATM   15  C   UNL     1     -11.631  12.613  67.745  1.00  0.00    -0.348 C  
HETATM   16  O   UNL     1     -12.138  11.521  67.527  1.00  0.00    -0.614 OA 
BRANCH  15  17
HETATM   17  O   UNL     1     -11.339  13.108  68.982  1.00  0.00    -0.254 OA 
BRANCH  17  18
HETATM   18  C   UNL     1     -11.992  12.442  70.069  1.00  0.00    -0.299 C  
HETATM   19  C   UNL     1     -12.566  13.505  70.989  1.00  0.00    -0.438 C  
ENDBRANCH  17  18
ENDBRANCH  15  17
ENDBRANCH   7  15
ENDBRANCH   6   7
ENDBRANCH   4   6
ENDBRANCH   3   4
ENDBRANCH   2   3
TORSDOF 11
ENDMDL
MODEL       19
REMARK 921   NORMALIZED FREE ENERGY PREDICTED BY IDOCK:   -4.63 KCAL/MOL
REMARK 922        TOTAL FREE ENERGY PREDICTED BY IDOCK:   -8.30 KCAL/MOL
REMARK 923 INTER-LIGAND FREE ENERGY PREDICTED BY IDOCK:   -7.56 KCAL/MOL
REMARK 924 INTRA-LIGAND FREE ENERGY PREDICTED BY IDOCK:   -0.74 KCAL/MOL
REMARK 927      BINDING AFFINITY PREDICTED BY RF-SCORE:    0.00 PKD
ROOT
HETATM    1  C   UNL     1      -9.986  20.051  67.105  1.00  0.00    -0.580 C  
HETATM    2  C   UNL     1     -10.651  19.223  66.019  1.00  0.00    -0.461 C  
ENDROOT
BRANCH   2   3
HETATM    3  O   UNL     1      -9.920  17.996  65.904  1.00  0.00    -0.541 OA 
BRANCH   3   4
HETATM    4  C   UNL     1     -10.624  16.922  65.469  1.00  0.00    -0.202 C  
HETATM    5  O   UNL     1     -11.256  16.848  64.423  1.00  0.00    -1.159 OA 
BRANCH   4   6
HETATM    6  C   UNL     1     -10.358  15.747  66.365  1.00  0.00    -0.306 C  
BRANCH   6   7
HETATM    7  C   UNL     1     -11.551  15.460  67.267  1.00  0.00    -0.090 C  
BRANCH   7   8
HETATM    8  S   UNL     1     -11.915  13.663  67.445  1.00  0.00    -0.347 SA 
BRANCH   8   9
HETATM    9  P   UNL     1     -11.043  12.650  65.799  1.00  0.00    -0.325 P  
HETATM   10  S   UNL     1     -10.970  10.875  66.783  1.00  0.00    -0.118 S  
BRANCH   9  11
HETATM   11  O   UNL     1     -12.413  12.803  64.877  1.00  0.00    -0.472 OA 
HETATM   12  C   UNL     1     -12.375  13.148  63.499  1.00  0.00    -0.398 C  
ENDBRANCH   9  11
BRANCH   9  13
HETATM   13  O   UNL     1     -10.332  11.823  64.457  1.00  0.00    -0.263 OA 
HETATM   14  C   UNL     1     -10.145  10.432  64.634  1.00  0.00    -0.308 C  
ENDBRANCH   9  13
ENDBRANCH   8   9
ENDBRANCH   7   8
BRANCH   7  15
HETATM   15  C   UNL     1     -11.241  15.974  68.667  1.00  0.00    -0.366 C  
HETATM   16  O   UNL     1     -10.511  16.924  68.916  1.00  0.00    -0.307 OA 
BRANCH  15  17
HETATM   17  O   UNL     1     -11.812  15.159  69.599  1.00  0.00    -0.297 OA 
BRANCH  17  18
HETATM   18  C   UNL     1     -12.055  15.773  70.871  1.00  0.00    -0.416 C  
HETATM   19  C   UNL     1     -13.434  15.343  71.339  1.00  0.00    -0.607 C  
ENDBRANCH  17  18
ENDBRANCH  15  17
ENDBRANCH   7  15
ENDBRANCH   6   7
ENDBRANCH   4   6
ENDBRANCH   3   4
ENDBRANCH   2   3
TORSDOF 11
ENDMDL
MODEL       20
REMARK 921   NORMALIZED FREE ENERGY PREDICTED BY IDOCK:   -4.61 KCAL/MOL
REMARK 922        TOTAL FREE ENERGY PREDICTED BY IDOCK:   -8.27 KCAL/MOL
REMARK 923 INTER-LIGAND FREE ENERGY PREDICTED BY IDOCK:   -7.39 KCAL/MOL
REMARK 924 INTRA-LIGAND FREE ENERGY PREDICTED BY IDOCK:   -0.87 KCAL/MOL
REMARK 927      BINDING AFFINITY PREDICTED BY RF-SCORE:    0.00 PKD
ROOT
HETATM    1  C   UNL     1     -10.466  11.291  63.533  1.00  0.00    -0.457 C  
HETATM    2  C   UNL     1     -11.613  12.287  63.538  1.00  0.00    -0.486 C  
ENDROOT
BRANCH   2   3
HETATM    3  O   UNL     1     -11.170  13.451  64.245  1.00  0.00    -0.373 OA 
BRANCH   3   4
HETATM    4  C   UNL     1     -12.133  14.345  64.581  1.00  0.00    -0.471 C  
HETATM    5  O   UNL     1     -12.606  15.206  63.849  1.00  0.00    -0.794 OA 
BRANCH   4   6
HETATM    6  C   UNL     1     -12.690  14.006  65.933  1.00  0.00    -0.436 C  
BRANCH   6   7
HETATM    7  C   UNL     1     -11.577  13.800  66.952  1.00  0.00    -0.370 C  
BRANCH   7   8
HETATM    8  S   UNL     1     -11.656  14.980  68.364  1.00  0.00    -0.321 SA 
BRANCH   8   9
HETATM    9  P   UNL     1      -9.981  16.273  68.234  1.00  0.00    -0.253 P  
HETATM   10  S   UNL     1      -9.139  15.219  66.716  1.00  0.00    -0.276 S  
BRANCH   9  11
HETATM   11  O   UNL     1     -10.901  17.540  67.687  1.00  0.00    -0.343 OA 
HETATM   12  C   UNL     1     -10.452  18.888  67.727  1.00  0.00    -0.416 C  
ENDBRANCH   9  11
BRANCH   9  13
HETATM   13  O   UNL     1      -8.614  17.328  68.128  1.00  0.00    -0.227 OA 
HETATM   14  C   UNL     1      -7.459  16.892  68.818  1.00  0.00    -0.237 C  
ENDBRANCH   9  13
ENDBRANCH   8   9
ENDBRANCH   7   8
BRANCH   7  15
HETATM   15  C   UNL     1     -11.712  12.406  67.551  1.00  0.00    -0.357 C  
HETATM   16  O   UNL     1     -11.836  11.377  66.902  1.00  0.00    -0.489 OA 
BRANCH  15  17
HETATM   17  O   UNL     1     -11.777  12.488  68.910  1.00  0.00    -0.287 OA 
BRANCH  17  18
HETATM   18  C   UNL     1     -11.763  11.228  69.593  1.00  0.00    -0.350 C  
HETATM   19  C   UNL     1     -12.575  11.379  70.866  1.00  0.00    -0.453 C  
ENDBRANCH  17  18
ENDBRANCH  15  17
ENDBRANCH   7  15
ENDBRANCH   6   7
ENDBRANCH   4   6
ENDBRANCH   3   4
ENDBRANCH   2   3
TORSDOF 11
ENDMDL
MODEL       21
REMARK 921   NORMALIZED FREE ENERGY PREDICTED BY IDOCK:   -4.52 KCAL/MOL
REMARK 922        TOTAL FREE ENERGY PREDICTED BY IDOCK:   -8.13 KCAL/MOL
REMARK 923 INTER-LIGAND FREE ENERGY PREDICTED BY IDOCK:   -7.30 KCAL/MOL
REMARK 924 INTRA-LIGAND FREE ENERGY PREDICTED BY IDOCK:   -0.83 KCAL/MOL
REMARK 927      BINDING AFFINITY PREDICTED BY RF-SCORE:    0.00 PKD
ROOT
HETATM    1  C   UNL     1     -12.889  13.500  71.321  1.00  0.00    -0.420 C  
HETATM    2  C   UNL     1     -12.278  12.559  70.298  1.00  0.00    -0.267 C  
ENDROOT
BRANCH   2   3
HETATM    3  O   UNL     1     -12.096  13.299  69.086  1.00  0.00    -0.306 OA 
BRANCH   3   4
HETATM    4  C   UNL     1     -11.586  12.607  68.036  1.00  0.00    -0.343 C  
HETATM    5  O   UNL     1     -11.918  11.482  67.684  1.00  0.00    -0.630 OA 
BRANCH   4   6
HETATM    6  C   UNL     1     -10.685  13.499  67.232  1.00  0.00    -0.272 C  
BRANCH   6   7
HETATM    7  C   UNL     1     -11.486  14.522  66.440  1.00  0.00    -0.360 C  
BRANCH   7   8
HETATM    8  S   UNL     1     -10.455  15.895  65.772  1.00  0.00    -0.380 SA 
BRANCH   8   9
HETATM    9  P   UNL     1      -9.630  16.955  67.412  1.00  0.00    -0.251 P  
HETATM   10  S   UNL     1      -9.693  18.738  66.440  1.00  0.00    -0.343 S  
BRANCH   9  11
HETATM   11  O   UNL     1     -10.973  16.704  68.353  1.00  0.00    -0.346 OA 
HETATM   12  C   UNL     1     -10.895  16.451  69.749  1.00  0.00    -0.343 C  
ENDBRANCH   9  11
BRANCH   9  13
HETATM   13  O   UNL     1      -8.957  17.821  68.750  1.00  0.00    -0.277 OA 
HETATM   14  C   UNL     1      -8.587  19.159  68.480  1.00  0.00    -0.363 C  
ENDBRANCH   9  13
ENDBRANCH   8   9
ENDBRANCH   7   8
BRANCH   7  15
HETATM   15  C   UNL     1     -12.109  13.831  65.234  1.00  0.00    -0.407 C  
HETATM   16  O   UNL     1     -13.306  13.619  65.093  1.00  0.00    -0.677 OA 
BRANCH  15  17
HETATM   17  O   UNL     1     -11.131  13.393  64.391  1.00  0.00    -0.363 OA 
BRANCH  17  18
HETATM   18  C   UNL     1     -11.508  12.300  63.545  1.00  0.00    -0.476 C  
HETATM   19  C   UNL     1     -10.332  11.342  63.471  1.00  0.00    -0.476 C  
ENDBRANCH  17  18
ENDBRANCH  15  17
ENDBRANCH   7  15
ENDBRANCH   6   7
ENDBRANCH   4   6
ENDBRANCH   3   4
ENDBRANCH   2   3
TORSDOF 11
ENDMDL
MODEL       22
REMARK 921   NORMALIZED FREE ENERGY PREDICTED BY IDOCK:   -4.51 KCAL/MOL
REMARK 922        TOTAL FREE ENERGY PREDICTED BY IDOCK:   -8.11 KCAL/MOL
REMARK 923 INTER-LIGAND FREE ENERGY PREDICTED BY IDOCK:   -7.18 KCAL/MOL
REMARK 924 INTRA-LIGAND FREE ENERGY PREDICTED BY IDOCK:   -0.93 KCAL/MOL
REMARK 927      BINDING AFFINITY PREDICTED BY RF-SCORE:    0.00 PKD
ROOT
HETATM    1  C   UNL     1     -10.375  11.356  63.564  1.00  0.00    -0.476 C  
HETATM    2  C   UNL     1     -11.784  11.866  63.814  1.00  0.00    -0.457 C  
ENDROOT
BRANCH   2   3
HETATM    3  O   UNL     1     -11.800  13.262  63.496  1.00  0.00    -0.479 OA 
BRANCH   3   4
HETATM    4  C   UNL     1     -12.207  14.094  64.486  1.00  0.00    -0.445 C  
HETATM    5  O   UNL     1     -13.254  14.010  65.116  1.00  0.00    -0.768 OA 
BRANCH   4   6
HETATM    6  C   UNL     1     -11.092  15.033  64.848  1.00  0.00    -0.425 C  
BRANCH   6   7
HETATM    7  C   UNL     1     -10.908  15.116  66.357  1.00  0.00    -0.326 C  
BRANCH   7   8
HETATM    8  S   UNL     1      -9.922  13.722  67.048  1.00  0.00    -0.256 SA 
BRANCH   8   9
HETATM    9  P   UNL     1     -11.263  12.358  67.962  1.00  0.00    -0.316 P  
HETATM   10  S   UNL     1      -9.940  10.819  67.873  1.00  0.00    -0.179 S  
BRANCH   9  11
HETATM   11  O   UNL     1     -11.207  13.153  69.416  1.00  0.00    -0.226 OA 
HETATM   12  C   UNL     1     -12.065  14.242  69.729  1.00  0.00    -0.347 C  
ENDBRANCH   9  11
BRANCH   9  13
HETATM   13  O   UNL     1     -12.357  11.244  68.707  1.00  0.00    -0.518 OA 
HETATM   14  C   UNL     1     -11.871  10.607  69.872  1.00  0.00    -0.315 C  
ENDBRANCH   9  13
ENDBRANCH   8   9
ENDBRANCH   7   8
BRANCH   7  15
HETATM   15  C   UNL     1     -10.141  16.388  66.688  1.00  0.00    -0.284 C  
HETATM   16  O   UNL     1     -10.439  17.172  67.580  1.00  0.00    -0.337 OA 
BRANCH  15  17
HETATM   17  O   UNL     1      -9.138  16.577  65.783  1.00  0.00    -0.487 OA 
BRANCH  17  18
HETATM   18  C   UNL     1      -8.003  17.296  66.280  1.00  0.00    -0.295 C  
HETATM   19  C   UNL     1      -7.052  16.291  66.903  1.00  0.00    -0.246 C  
ENDBRANCH  17  18
ENDBRANCH  15  17
ENDBRANCH   7  15
ENDBRANCH   6   7
ENDBRANCH   4   6
ENDBRANCH   3   4
ENDBRANCH   2   3
TORSDOF 11
ENDMDL
MODEL       23
REMARK 921   NORMALIZED FREE ENERGY PREDICTED BY IDOCK:   -4.49 KCAL/MOL
REMARK 922        TOTAL FREE ENERGY PREDICTED BY IDOCK:   -8.07 KCAL/MOL
REMARK 923 INTER-LIGAND FREE ENERGY PREDICTED BY IDOCK:   -7.11 KCAL/MOL
REMARK 924 INTRA-LIGAND FREE ENERGY PREDICTED BY IDOCK:   -0.97 KCAL/MOL
REMARK 927      BINDING AFFINITY PREDICTED BY RF-SCORE:    0.00 PKD
ROOT
HETATM    1  C   UNL     1     -10.535   8.756  67.162  1.00  0.00    -0.354 C  
HETATM    2  C   UNL     1     -10.373  10.262  67.271  1.00  0.00    -0.232 C  
ENDROOT
BRANCH   2   3
HETATM    3  O   UNL     1     -11.654  10.811  67.603  1.00  0.00    -0.523 OA 
BRANCH   3   4
HETATM    4  C   UNL     1     -11.655  12.092  68.049  1.00  0.00    -0.342 C  
HETATM    5  O   UNL     1     -12.134  12.488  69.104  1.00  0.00    -0.247 OA 
BRANCH   4   6
HETATM    6  C   UNL     1     -10.802  12.941  67.152  1.00  0.00    -0.278 C  
BRANCH   6   7
HETATM    7  C   UNL     1     -11.653  13.887  66.317  1.00  0.00    -0.365 C  
BRANCH   7   8
HETATM    8  S   UNL     1     -10.729  15.366  65.723  1.00  0.00    -0.362 SA 
BRANCH   8   9
HETATM    9  P   UNL     1     -10.113  16.481  67.418  1.00  0.00    -0.290 P  
HETATM   10  S   UNL     1     -10.169  18.248  66.419  1.00  0.00    -0.402 S  
BRANCH   9  11
HETATM   11  O   UNL     1     -11.525  16.173  68.232  1.00  0.00    -0.348 OA 
HETATM   12  C   UNL     1     -11.555  15.819  69.608  1.00  0.00    -0.358 C  
ENDBRANCH   9  11
BRANCH   9  13
HETATM   13  O   UNL     1      -9.611  17.391  68.800  1.00  0.00    -0.276 OA 
HETATM   14  C   UNL     1      -9.695  18.796  68.662  1.00  0.00    -0.390 C  
ENDBRANCH   9  13
ENDBRANCH   8   9
ENDBRANCH   7   8
BRANCH   7  15
HETATM   15  C   UNL     1     -12.127  13.150  65.071  1.00  0.00    -0.415 C  
HETATM   16  O   UNL     1     -13.273  12.769  64.879  1.00  0.00    -0.808 OA 
BRANCH  15  17
HETATM   17  O   UNL     1     -11.068  12.889  64.252  1.00  0.00    -0.337 OA 
BRANCH  17  18
HETATM   18  C   UNL     1     -11.152  11.655  63.530  1.00  0.00    -0.393 C  
HETATM   19  C   UNL     1      -9.845  10.909  63.729  1.00  0.00    -0.391 C  
ENDBRANCH  17  18
ENDBRANCH  15  17
ENDBRANCH   7  15
ENDBRANCH   6   7
ENDBRANCH   4   6
ENDBRANCH   3   4
ENDBRANCH   2   3
TORSDOF 11
ENDMDL
MODEL       24
REMARK 921   NORMALIZED FREE ENERGY PREDICTED BY IDOCK:   -4.47 KCAL/MOL
REMARK 922        TOTAL FREE ENERGY PREDICTED BY IDOCK:   -8.04 KCAL/MOL
REMARK 923 INTER-LIGAND FREE ENERGY PREDICTED BY IDOCK:   -7.34 KCAL/MOL
REMARK 924 INTRA-LIGAND FREE ENERGY PREDICTED BY IDOCK:   -0.70 KCAL/MOL
REMARK 927      BINDING AFFINITY PREDICTED BY RF-SCORE:    0.00 PKD
ROOT
HETATM    1  C   UNL     1     -14.116  13.737  72.211  1.00  0.00    -0.627 C  
HETATM    2  C   UNL     1     -14.397  15.212  71.983  1.00  0.00    -0.586 C  
ENDROOT
BRANCH   2   3
HETATM    3  O   UNL     1     -13.384  15.713  71.104  1.00  0.00    -0.514 OA 
BRANCH   3   4
HETATM    4  C   UNL     1     -12.159  15.905  71.655  1.00  0.00    -0.484 C  
HETATM    5  O   UNL     1     -11.928  16.440  72.732  1.00  0.00    -0.531 OA 
BRANCH   4   6
HETATM    6  C   UNL     1     -11.121  15.185  70.844  1.00  0.00    -0.289 C  
BRANCH   6   7
HETATM    7  C   UNL     1     -11.158  15.623  69.386  1.00  0.00    -0.303 C  
BRANCH   7   8
HETATM    8  S   UNL     1      -9.521  16.176  68.750  1.00  0.00    -0.241 SA 
BRANCH   8   9
HETATM    9  P   UNL     1      -9.859  17.556  67.176  1.00  0.00    -0.323 P  
HETATM   10  S   UNL     1      -8.993  19.093  68.182  1.00  0.00    -0.334 S  
BRANCH   9  11
HETATM   11  O   UNL     1      -8.794  16.785  66.164  1.00  0.00    -0.361 OA 
HETATM   12  C   UNL     1      -8.062  15.632  66.556  1.00  0.00    -0.133 C  
ENDBRANCH   9  11
BRANCH   9  13
HETATM   13  O   UNL     1     -10.136  18.682  65.892  1.00  0.00    -0.522 OA 
HETATM   14  C   UNL     1     -10.655  19.936  66.290  1.00  0.00    -0.425 C  
ENDBRANCH   9  13
ENDBRANCH   8   9
ENDBRANCH   7   8
BRANCH   7  15
HETATM   15  C   UNL     1     -11.572  14.435  68.527  1.00  0.00    -0.314 C  
HETATM   16  O   UNL     1     -11.805  14.490  67.327  1.00  0.00    -0.394 OA 
BRANCH  15  17
HETATM   17  O   UNL     1     -11.744  13.332  69.309  1.00  0.00    -0.288 OA 
BRANCH  17  18
HETATM   18  C   UNL     1     -11.565  12.080  68.635  1.00  0.00    -0.319 C  
HETATM   19  C   UNL     1     -12.229  11.002  69.472  1.00  0.00    -0.352 C  
ENDBRANCH  17  18
ENDBRANCH  15  17
ENDBRANCH   7  15
ENDBRANCH   6   7
ENDBRANCH   4   6
ENDBRANCH   3   4
ENDBRANCH   2   3
TORSDOF 11
ENDMDL
MODEL       25
REMARK 921   NORMALIZED FREE ENERGY PREDICTED BY IDOCK:   -4.47 KCAL/MOL
REMARK 922        TOTAL FREE ENERGY PREDICTED BY IDOCK:   -8.03 KCAL/MOL
REMARK 923 INTER-LIGAND FREE ENERGY PREDICTED BY IDOCK:   -7.35 KCAL/MOL
REMARK 924 INTRA-LIGAND FREE ENERGY PREDICTED BY IDOCK:   -0.69 KCAL/MOL
REMARK 927      BINDING AFFINITY PREDICTED BY RF-SCORE:    0.00 PKD
ROOT
HETATM    1  C   UNL     1     -13.882  13.706  72.266  1.00  0.00    -0.689 C  
HETATM    2  C   UNL     1     -14.116  15.126  71.782  1.00  0.00    -0.548 C  
ENDROOT
BRANCH   2   3
HETATM    3  O   UNL     1     -13.131  15.410  70.782  1.00  0.00    -0.453 OA 
BRANCH   3   4
HETATM    4  C   UNL     1     -11.973  15.958  71.226  1.00  0.00    -0.442 C  
HETATM    5  O   UNL     1     -11.791  16.473  72.323  1.00  0.00    -0.519 OA 
BRANCH   4   6
HETATM    6  C   UNL     1     -10.869  15.669  70.251  1.00  0.00    -0.366 C  
BRANCH   6   7
HETATM    7  C   UNL     1     -11.424  15.214  68.908  1.00  0.00    -0.320 C  
BRANCH   7   8
HETATM    8  S   UNL     1     -10.774  16.184  67.484  1.00  0.00    -0.276 SA 
BRANCH   8   9
HETATM    9  P   UNL     1      -9.842  17.928  68.248  1.00  0.00    -0.387 P  
HETATM   10  S   UNL     1      -8.088  17.548  67.296  1.00  0.00    -0.208 S  
BRANCH   9  11
HETATM   11  O   UNL     1     -10.827  18.935  67.373  1.00  0.00    -0.458 OA 
HETATM   12  C   UNL     1     -10.522  19.344  66.047  1.00  0.00    -0.505 C  
ENDBRANCH   9  11
BRANCH   9  13
HETATM   13  O   UNL     1      -9.080  19.351  68.871  1.00  0.00    -0.370 OA 
HETATM   14  C   UNL     1      -7.710  19.494  68.550  1.00  0.00    -0.354 C  
ENDBRANCH   9  13
ENDBRANCH   8   9
ENDBRANCH   7   8
BRANCH   7  15
HETATM   15  C   UNL     1     -11.006  13.770  68.668  1.00  0.00    -0.266 C  
HETATM   16  O   UNL     1      -9.903  13.419  68.272  1.00  0.00    -0.228 OA 
BRANCH  15  17
HETATM   17  O   UNL     1     -12.070  12.938  68.859  1.00  0.00    -0.270 OA 
BRANCH  17  18
HETATM   18  C   UNL     1     -11.863  11.904  69.828  1.00  0.00    -0.340 C  
HETATM   19  C   UNL     1     -11.511  10.630  69.082  1.00  0.00    -0.349 C  
ENDBRANCH  17  18
ENDBRANCH  15  17
ENDBRANCH   7  15
ENDBRANCH   6   7
ENDBRANCH   4   6
ENDBRANCH   3   4
ENDBRANCH   2   3
TORSDOF 11
ENDMDL
MODEL       26
REMARK 921   NORMALIZED FREE ENERGY PREDICTED BY IDOCK:   -4.46 KCAL/MOL
REMARK 922        TOTAL FREE ENERGY PREDICTED BY IDOCK:   -8.03 KCAL/MOL
REMARK 923 INTER-LIGAND FREE ENERGY PREDICTED BY IDOCK:   -7.34 KCAL/MOL
REMARK 924 INTRA-LIGAND FREE ENERGY PREDICTED BY IDOCK:   -0.69 KCAL/MOL
REMARK 927      BINDING AFFINITY PREDICTED BY RF-SCORE:    0.00 PKD
ROOT
HETATM    1  C   UNL     1     -10.094  19.805  67.452  1.00  0.00    -0.555 C  
HETATM    2  C   UNL     1     -10.328  18.774  66.362  1.00  0.00    -0.439 C  
ENDROOT
BRANCH   2   3
HETATM    3  O   UNL     1     -10.588  17.520  67.003  1.00  0.00    -0.321 OA 
BRANCH   3   4
HETATM    4  C   UNL     1      -9.929  16.446  66.500  1.00  0.00    -0.282 C  
HETATM    5  O   UNL     1      -8.974  15.878  67.017  1.00  0.00    -0.197 OA 
BRANCH   4   6
HETATM    6  C   UNL     1     -10.662  15.918  65.301  1.00  0.00    -0.442 C  
BRANCH   6   7
HETATM    7  C   UNL     1     -11.197  14.516  65.557  1.00  0.00    -0.335 C  
BRANCH   7   8
HETATM    8  S   UNL     1     -12.105  14.362  67.152  1.00  0.00    -0.220 SA 
BRANCH   8   9
HETATM    9  P   UNL     1     -11.602  12.491  68.015  1.00  0.00    -0.343 P  
HETATM   10  S   UNL     1      -9.774  12.445  67.132  1.00  0.00    -0.211 S  
BRANCH   9  11
HETATM   11  O   UNL     1     -11.546  13.123  69.547  1.00  0.00    -0.285 OA 
HETATM   12  C   UNL     1     -11.696  14.511  69.811  1.00  0.00    -0.303 C  
ENDBRANCH   9  11
BRANCH   9  13
HETATM   13  O   UNL     1     -11.192  10.965  68.718  1.00  0.00    -0.227 OA 
HETATM   14  C   UNL     1     -11.586  10.794  70.065  1.00  0.00    -0.334 C  
ENDBRANCH   9  13
ENDBRANCH   8   9
ENDBRANCH   7   8
BRANCH   7  15
HETATM   15  C   UNL     1     -12.197  14.166  64.462  1.00  0.00    -0.445 C  
HETATM   16  O   UNL     1     -12.590  14.942  63.601  1.00  0.00    -0.724 OA 
BRANCH  15  17
HETATM   17  O   UNL     1     -12.663  12.897  64.644  1.00  0.00    -0.654 OA 
BRANCH  17  18
HETATM   18  C   UNL     1     -12.419  12.001  63.554  1.00  0.00    -0.540 C  
HETATM   19  C   UNL     1     -10.972  11.551  63.635  1.00  0.00    -0.482 C  
ENDBRANCH  17  18
ENDBRANCH  15  17
ENDBRANCH   7  15
ENDBRANCH   6   7
ENDBRANCH   4   6
ENDBRANCH   3   4
ENDBRANCH   2   3
TORSDOF 11
ENDMDL
MODEL       27
REMARK 921   NORMALIZED FREE ENERGY PREDICTED BY IDOCK:   -4.43 KCAL/MOL
REMARK 922        TOTAL FREE ENERGY PREDICTED BY IDOCK:   -7.98 KCAL/MOL
REMARK 923 INTER-LIGAND FREE ENERGY PREDICTED BY IDOCK:   -7.03 KCAL/MOL
REMARK 924 INTRA-LIGAND FREE ENERGY PREDICTED BY IDOCK:   -0.95 KCAL/MOL
REMARK 927      BINDING AFFINITY PREDICTED BY RF-SCORE:    0.00 PKD
ROOT
HETATM    1  C   UNL     1     -10.485  11.116  63.853  1.00  0.00    -0.445 C  
HETATM    2  C   UNL     1     -11.568  12.142  63.568  1.00  0.00    -0.474 C  
ENDROOT
BRANCH   2   3
HETATM    3  O   UNL     1     -11.077  13.418  63.998  1.00  0.00    -0.365 OA 
BRANCH   3   4
HETATM    4  C   UNL     1     -12.003  14.275  64.494  1.00  0.00    -0.462 C  
HETATM    5  O   UNL     1     -12.675  15.067  63.844  1.00  0.00    -0.775 OA 
BRANCH   4   6
HETATM    6  C   UNL     1     -12.239  13.982  65.947  1.00  0.00    -0.481 C  
BRANCH   6   7
HETATM    7  C   UNL     1     -11.031  14.367  66.790  1.00  0.00    -0.314 C  
BRANCH   7   8
HETATM    8  S   UNL     1     -11.390  15.696  68.014  1.00  0.00    -0.285 SA 
BRANCH   8   9
HETATM    9  P   UNL     1      -9.844  17.141  67.887  1.00  0.00    -0.310 P  
HETATM   10  S   UNL     1      -9.055  16.318  66.206  1.00  0.00    -0.347 S  
BRANCH   9  11
HETATM   11  O   UNL     1     -10.907  18.367  67.549  1.00  0.00    -0.408 OA 
HETATM   12  C   UNL     1     -10.548  19.502  66.772  1.00  0.00    -0.488 C  
ENDBRANCH   9  11
BRANCH   9  13
HETATM   13  O   UNL     1      -8.581  18.319  67.784  1.00  0.00    -0.250 OA 
HETATM   14  C   UNL     1      -7.421  18.029  68.540  1.00  0.00    -0.279 C  
ENDBRANCH   9  13
ENDBRANCH   8   9
ENDBRANCH   7   8
BRANCH   7  15
HETATM   15  C   UNL     1     -10.588  13.153  67.596  1.00  0.00    -0.228 C  
HETATM   16  O   UNL     1      -9.580  13.104  68.288  1.00  0.00    -0.222 OA 
BRANCH  15  17
HETATM   17  O   UNL     1     -11.421  12.101  67.351  1.00  0.00    -0.305 OA 
BRANCH  17  18
HETATM   18  C   UNL     1     -11.392  11.064  68.340  1.00  0.00    -0.295 C  
HETATM   19  C   UNL     1     -10.814   9.819  67.692  1.00  0.00    -0.301 C  
ENDBRANCH  17  18
ENDBRANCH  15  17
ENDBRANCH   7  15
ENDBRANCH   6   7
ENDBRANCH   4   6
ENDBRANCH   3   4
ENDBRANCH   2   3
TORSDOF 11
ENDMDL
MODEL       28
REMARK 921   NORMALIZED FREE ENERGY PREDICTED BY IDOCK:   -4.43 KCAL/MOL
REMARK 922        TOTAL FREE ENERGY PREDICTED BY IDOCK:   -7.97 KCAL/MOL
REMARK 923 INTER-LIGAND FREE ENERGY PREDICTED BY IDOCK:   -7.27 KCAL/MOL
REMARK 924 INTRA-LIGAND FREE ENERGY PREDICTED BY IDOCK:   -0.71 KCAL/MOL
REMARK 927      BINDING AFFINITY PREDICTED BY RF-SCORE:    0.00 PKD
ROOT
HETATM    1  C   UNL     1     -13.362  15.355  70.974  1.00  0.00    -0.545 C  
HETATM    2  C   UNL     1     -12.086  14.917  70.278  1.00  0.00    -0.325 C  
ENDROOT
BRANCH   2   3
HETATM    3  O   UNL     1     -11.186  16.031  70.284  1.00  0.00    -0.339 OA 
BRANCH   3   4
HETATM    4  C   UNL     1     -10.307  16.093  69.253  1.00  0.00    -0.265 C  
HETATM    5  O   UNL     1      -9.087  16.038  69.340  1.00  0.00    -0.251 OA 
BRANCH   4   6
HETATM    6  C   UNL     1     -11.051  16.039  67.950  1.00  0.00    -0.307 C  
BRANCH   6   7
HETATM    7  C   UNL     1     -10.131  16.348  66.777  1.00  0.00    -0.285 C  
BRANCH   7   8
HETATM    8  S   UNL     1      -9.951  14.941  65.602  1.00  0.00    -0.347 SA 
BRANCH   8   9
HETATM    9  P   UNL     1     -11.062  13.303  66.362  1.00  0.00    -0.309 P  
HETATM   10  S   UNL     1     -12.790  13.921  65.492  1.00  0.00    -0.298 S  
BRANCH   9  11
HETATM   11  O   UNL     1     -10.241  12.208  65.425  1.00  0.00    -0.258 OA 
HETATM   12  C   UNL     1     -10.529  12.010  64.047  1.00  0.00    -0.372 C  
ENDBRANCH   9  11
BRANCH   9  13
HETATM   13  O   UNL     1     -11.969  11.967  66.984  1.00  0.00    -0.615 OA 
HETATM   14  C   UNL     1     -11.285  11.154  67.918  1.00  0.00    -0.302 C  
ENDBRANCH   9  13
ENDBRANCH   8   9
ENDBRANCH   7   8
BRANCH   7  15
HETATM   15  C   UNL     1     -10.727  17.499  65.977  1.00  0.00    -0.116 C  
HETATM   16  O   UNL     1     -11.032  17.442  64.794  1.00  0.00    -0.964 OA 
BRANCH  15  17
HETATM   17  O   UNL     1     -10.771  18.626  66.744  1.00  0.00    -0.385 OA 
BRANCH  17  18
HETATM   18  C   UNL     1     -10.028  19.737  66.228  1.00  0.00    -0.478 C  
HETATM   19  C   UNL     1      -9.189  20.302  67.360  1.00  0.00    -0.507 C  
ENDBRANCH  17  18
ENDBRANCH  15  17
ENDBRANCH   7  15
ENDBRANCH   6   7
ENDBRANCH   4   6
ENDBRANCH   3   4
ENDBRANCH   2   3
TORSDOF 11
ENDMDL
MODEL       29
REMARK 921   NORMALIZED FREE ENERGY PREDICTED BY IDOCK:   -4.42 KCAL/MOL
REMARK 922        TOTAL FREE ENERGY PREDICTED BY IDOCK:   -7.96 KCAL/MOL
REMARK 923 INTER-LIGAND FREE ENERGY PREDICTED BY IDOCK:   -7.30 KCAL/MOL
REMARK 924 INTRA-LIGAND FREE ENERGY PREDICTED BY IDOCK:   -0.66 KCAL/MOL
REMARK 927      BINDING AFFINITY PREDICTED BY RF-SCORE:    0.00 PKD
ROOT
HETATM    1  C   UNL     1      -6.637  20.132  66.297  1.00  0.00    -0.242 C  
HETATM    2  C   UNL     1      -6.619  18.975  65.313  1.00  0.00    -0.235 C  
ENDROOT
BRANCH   2   3
HETATM    3  O   UNL     1      -7.698  18.098  65.659  1.00  0.00    -0.532 OA 
BRANCH   3   4
HETATM    4  C   UNL     1      -7.394  17.089  66.513  1.00  0.00    -0.285 C  
HETATM    5  O   UNL     1      -6.279  16.623  66.713  1.00  0.00    -0.221 OA 
BRANCH   4   6
HETATM    6  C   UNL     1      -8.599  16.746  67.339  1.00  0.00    -0.206 C  
BRANCH   6   7
HETATM    7  C   UNL     1      -9.713  16.169  66.477  1.00  0.00    -0.263 C  
BRANCH   7   8
HETATM    8  S   UNL     1     -10.744  14.921  67.356  1.00  0.00    -0.299 SA 
BRANCH   8   9
HETATM    9  P   UNL     1     -11.896  13.884  65.910  1.00  0.00    -0.426 P  
HETATM   10  S   UNL     1     -10.323  13.665  64.645  1.00  0.00    -0.283 S  
BRANCH   9  11
HETATM   11  O   UNL     1     -12.097  12.567  66.898  1.00  0.00    -0.537 OA 
HETATM   12  C   UNL     1     -11.014  11.743  67.307  1.00  0.00    -0.267 C  
ENDBRANCH   9  11
BRANCH   9  13
HETATM   13  O   UNL     1     -12.836  13.038  64.729  1.00  0.00    -0.708 OA 
HETATM   14  C   UNL     1     -12.230  12.903  63.458  1.00  0.00    -0.512 C  
ENDBRANCH   9  13
ENDBRANCH   8   9
ENDBRANCH   7   8
BRANCH   7  15
HETATM   15  C   UNL     1     -10.656  17.296  66.075  1.00  0.00    -0.217 C  
HETATM   16  O   UNL     1     -11.049  17.504  64.935  1.00  0.00    -0.860 OA 
BRANCH  15  17
HETATM   17  O   UNL     1     -10.912  18.095  67.150  1.00  0.00    -0.263 OA 
BRANCH  17  18
HETATM   18  C   UNL     1     -10.717  19.496  66.923  1.00  0.00    -0.464 C  
HETATM   19  C   UNL     1     -10.170  20.103  68.202  1.00  0.00    -0.479 C  
ENDBRANCH  17  18
ENDBRANCH  15  17
ENDBRANCH   7  15
ENDBRANCH   6   7
ENDBRANCH   4   6
ENDBRANCH   3   4
ENDBRANCH   2   3
TORSDOF 11
ENDMDL
MODEL       30
REMARK 921   NORMALIZED FREE ENERGY PREDICTED BY IDOCK:   -4.42 KCAL/MOL
REMARK 922        TOTAL FREE ENERGY PREDICTED BY IDOCK:   -7.95 KCAL/MOL
REMARK 923 INTER-LIGAND FREE ENERGY PREDICTED BY IDOCK:   -7.30 KCAL/MOL
REMARK 924 INTRA-LIGAND FREE ENERGY PREDICTED BY IDOCK:   -0.65 KCAL/MOL
REMARK 927      BINDING AFFINITY PREDICTED BY RF-SCORE:    0.00 PKD
ROOT
HETATM    1  C   UNL     1     -13.022  11.040  71.466  1.00  0.00    -0.553 C  
HETATM    2  C   UNL     1     -12.234  11.842  70.444  1.00  0.00    -0.314 C  
ENDROOT
BRANCH   2   3
HETATM    3  O   UNL     1     -12.543  13.226  70.652  1.00  0.00    -0.300 OA 
BRANCH   3   4
HETATM    4  C   UNL     1     -12.053  14.090  69.728  1.00  0.00    -0.348 C  
HETATM    5  O   UNL     1     -12.170  15.309  69.746  1.00  0.00    -0.321 OA 
BRANCH   4   6
HETATM    6  C   UNL     1     -11.165  13.353  68.767  1.00  0.00    -0.315 C  
BRANCH   6   7
HETATM    7  C   UNL     1     -11.451  13.761  67.329  1.00  0.00    -0.341 C  
BRANCH   7   8
HETATM    8  S   UNL     1      -9.953  14.331  66.421  1.00  0.00    -0.302 SA 
BRANCH   8   9
HETATM    9  P   UNL     1     -10.087  16.434  66.189  1.00  0.00    -0.362 P  
HETATM   10  S   UNL     1      -8.077  16.694  66.333  1.00  0.00    -0.325 S  
BRANCH   9  11
HETATM   11  O   UNL     1     -10.593  16.308  64.614  1.00  0.00    -0.621 OA 
HETATM   12  C   UNL     1     -11.887  15.839  64.260  1.00  0.00    -0.118 C  
ENDBRANCH   9  11
BRANCH   9  13
HETATM   13  O   UNL     1     -10.195  18.150  65.999  1.00  0.00    -0.490 OA 
HETATM   14  C   UNL     1     -10.421  18.877  67.191  1.00  0.00    -0.438 C  
ENDBRANCH   9  13
ENDBRANCH   8   9
ENDBRANCH   7   8
BRANCH   7  15
HETATM   15  C   UNL     1     -11.975  12.549  66.570  1.00  0.00    -0.296 C  
HETATM   16  O   UNL     1     -11.787  11.385  66.899  1.00  0.00    -0.489 OA 
BRANCH  15  17
HETATM   17  O   UNL     1     -12.591  12.948  65.421  1.00  0.00    -0.543 OA 
BRANCH  17  18
HETATM   18  C   UNL     1     -12.474  12.034  64.324  1.00  0.00    -0.286 C  
HETATM   19  C   UNL     1     -11.197  12.366  63.575  1.00  0.00    -0.540 C  
ENDBRANCH  17  18
ENDBRANCH  15  17
ENDBRANCH   7  15
ENDBRANCH   6   7
ENDBRANCH   4   6
ENDBRANCH   3   4
ENDBRANCH   2   3
TORSDOF 11
ENDMDL
MODEL       31
REMARK 921   NORMALIZED FREE ENERGY PREDICTED BY IDOCK:   -4.41 KCAL/MOL
REMARK 922        TOTAL FREE ENERGY PREDICTED BY IDOCK:   -7.94 KCAL/MOL
REMARK 923 INTER-LIGAND FREE ENERGY PREDICTED BY IDOCK:   -7.08 KCAL/MOL
REMARK 924 INTRA-LIGAND FREE ENERGY PREDICTED BY IDOCK:   -0.86 KCAL/MOL
REMARK 927      BINDING AFFINITY PREDICTED BY RF-SCORE:    0.00 PKD
ROOT
HETATM    1  C   UNL     1     -12.803  11.883  63.566  1.00  0.00    -0.435 C  
HETATM    2  C   UNL     1     -11.887  13.072  63.337  1.00  0.00    -0.476 C  
ENDROOT
BRANCH   2   3
HETATM    3  O   UNL     1     -12.551  14.233  63.851  1.00  0.00    -0.787 OA 
BRANCH   3   4
HETATM    4  C   UNL     1     -11.747  15.233  64.290  1.00  0.00    -0.215 C  
HETATM    5  O   UNL     1     -11.773  16.398  63.913  1.00  0.00    -1.085 OA 
BRANCH   4   6
HETATM    6  C   UNL     1     -10.939  14.755  65.461  1.00  0.00    -0.350 C  
BRANCH   6   7
HETATM    7  C   UNL     1     -11.837  14.326  66.612  1.00  0.00    -0.421 C  
BRANCH   7   8
HETATM    8  S   UNL     1     -11.543  12.592  67.159  1.00  0.00    -0.366 SA 
BRANCH   8   9
HETATM    9  P   UNL     1      -9.460  12.212  67.050  1.00  0.00    -0.212 P  
HETATM   10  S   UNL     1      -9.510  10.859  68.564  1.00  0.00    -0.190 S  
BRANCH   9  11
HETATM   11  O   UNL     1      -9.587  11.495  65.560  1.00  0.00    -0.222 OA 
HETATM   12  C   UNL     1      -9.974  10.138  65.393  1.00  0.00    -0.307 C  
ENDBRANCH   9  11
BRANCH   9  13
HETATM   13  O   UNL     1      -7.760  11.903  66.962  1.00  0.00    -0.157 OA 
HETATM   14  C   UNL     1      -7.222  11.174  68.048  1.00  0.00    -0.079 C  
ENDBRANCH   9  13
ENDBRANCH   8   9
ENDBRANCH   7   8
BRANCH   7  15
HETATM   15  C   UNL     1     -11.544  15.209  67.818  1.00  0.00    -0.289 C  
HETATM   16  O   UNL     1     -10.942  16.273  67.775  1.00  0.00    -0.330 OA 
BRANCH  15  17
HETATM   17  O   UNL     1     -11.960  14.591  68.961  1.00  0.00    -0.315 OA 
BRANCH  17  18
HETATM   18  C   UNL     1     -11.729  15.330  70.166  1.00  0.00    -0.312 C  
HETATM   19  C   UNL     1     -13.039  15.396  70.930  1.00  0.00    -0.528 C  
ENDBRANCH  17  18
ENDBRANCH  15  17
ENDBRANCH   7  15
ENDBRANCH   6   7
ENDBRANCH   4   6
ENDBRANCH   3   4
ENDBRANCH   2   3
TORSDOF 11
ENDMDL
MODEL       32
REMARK 921   NORMALIZED FREE ENERGY PREDICTED BY IDOCK:   -4.38 KCAL/MOL
REMARK 922        TOTAL FREE ENERGY PREDICTED BY IDOCK:   -7.90 KCAL/MOL
REMARK 923 INTER-LIGAND FREE ENERGY PREDICTED BY IDOCK:   -7.01 KCAL/MOL
REMARK 924 INTRA-LIGAND FREE ENERGY PREDICTED BY IDOCK:   -0.88 KCAL/MOL
REMARK 927      BINDING AFFINITY PREDICTED BY RF-SCORE:    0.00 PKD
ROOT
HETATM    1  C   UNL     1     -12.552  11.760  63.353  1.00  0.00    -0.458 C  
HETATM    2  C   UNL     1     -12.158  13.181  63.719  1.00  0.00    -0.495 C  
ENDROOT
BRANCH   2   3
HETATM    3  O   UNL     1     -12.809  13.504  64.953  1.00  0.00    -0.684 OA 
BRANCH   3   4
HETATM    4  C   UNL     1     -12.012  13.994  65.936  1.00  0.00    -0.408 C  
HETATM    5  O   UNL     1     -12.224  13.923  67.140  1.00  0.00    -0.406 OA 
BRANCH   4   6
HETATM    6  C   UNL     1     -10.716  14.470  65.346  1.00  0.00    -0.372 C  
BRANCH   6   7
HETATM    7  C   UNL     1     -10.247  15.756  66.011  1.00  0.00    -0.333 C  
BRANCH   7   8
HETATM    8  S   UNL     1      -8.413  15.900  66.108  1.00  0.00     0.027 SA 
BRANCH   8   9
HETATM    9  P   UNL     1      -7.833  15.555  68.118  1.00  0.00    -0.139 P  
HETATM   10  S   UNL     1      -7.369  17.506  68.440  1.00  0.00    -0.239 S  
BRANCH   9  11
HETATM   11  O   UNL     1      -9.382  15.191  68.587  1.00  0.00    -0.184 OA 
HETATM   12  C   UNL     1      -9.946  15.663  69.803  1.00  0.00    -0.277 C  
ENDBRANCH   9  11
BRANCH   9  13
HETATM   13  O   UNL     1      -7.359  15.275  69.758  1.00  0.00    -0.199 OA 
HETATM   14  C   UNL     1      -6.022  15.616  70.067  1.00  0.00    -0.155 C  
ENDBRANCH   9  13
ENDBRANCH   8   9
ENDBRANCH   7   8
BRANCH   7  15
HETATM   15  C   UNL     1     -10.725  16.940  65.180  1.00  0.00    -0.103 C  
HETATM   16  O   UNL     1     -11.483  16.861  64.223  1.00  0.00    -1.142 OA 
BRANCH  15  17
HETATM   17  O   UNL     1     -10.104  18.081  65.595  1.00  0.00    -0.551 OA 
BRANCH  17  18
HETATM   18  C   UNL     1     -10.724  18.737  66.708  1.00  0.00    -0.312 C  
HETATM   19  C   UNL     1      -9.962  20.021  66.975  1.00  0.00    -0.582 C  
ENDBRANCH  17  18
ENDBRANCH  15  17
ENDBRANCH   7  15
ENDBRANCH   6   7
ENDBRANCH   4   6
ENDBRANCH   3   4
ENDBRANCH   2   3
TORSDOF 11
ENDMDL
MODEL       33
REMARK 921   NORMALIZED FREE ENERGY PREDICTED BY IDOCK:   -4.34 KCAL/MOL
REMARK 922        TOTAL FREE ENERGY PREDICTED BY IDOCK:   -7.82 KCAL/MOL
REMARK 923 INTER-LIGAND FREE ENERGY PREDICTED BY IDOCK:   -7.10 KCAL/MOL
REMARK 924 INTRA-LIGAND FREE ENERGY PREDICTED BY IDOCK:   -0.73 KCAL/MOL
REMARK 927      BINDING AFFINITY PREDICTED BY RF-SCORE:    0.00 PKD
ROOT
HETATM    1  C   UNL     1     -14.014  13.631  72.450  1.00  0.00    -0.651 C  
HETATM    2  C   UNL     1     -14.080  14.899  71.618  1.00  0.00    -0.510 C  
ENDROOT
BRANCH   2   3
HETATM    3  O   UNL     1     -13.217  14.720  70.489  1.00  0.00    -0.310 OA 
BRANCH   3   4
HETATM    4  C   UNL     1     -12.115  15.509  70.450  1.00  0.00    -0.392 C  
HETATM    5  O   UNL     1     -11.567  16.032  71.413  1.00  0.00    -0.417 OA 
BRANCH   4   6
HETATM    6  C   UNL     1     -11.532  15.496  69.067  1.00  0.00    -0.361 C  
BRANCH   6   7
HETATM    7  C   UNL     1     -10.011  15.438  69.110  1.00  0.00    -0.241 C  
BRANCH   7   8
HETATM    8  S   UNL     1      -9.303  14.083  68.083  1.00  0.00    -0.204 SA 
BRANCH   8   9
HETATM    9  P   UNL     1     -10.886  13.192  66.990  1.00  0.00    -0.272 P  
HETATM   10  S   UNL     1     -10.649  14.440  65.406  1.00  0.00    -0.392 S  
BRANCH   9  11
HETATM   11  O   UNL     1     -10.059  11.767  66.799  1.00  0.00    -0.205 OA 
HETATM   12  C   UNL     1      -9.470  11.382  65.564  1.00  0.00    -0.227 C  
ENDBRANCH   9  11
BRANCH   9  13
HETATM   13  O   UNL     1     -12.178  12.465  66.098  1.00  0.00    -0.635 OA 
HETATM   14  C   UNL     1     -12.641  13.211  64.989  1.00  0.00    -0.438 C  
ENDBRANCH   9  13
ENDBRANCH   8   9
ENDBRANCH   7   8
BRANCH   7  15
HETATM   15  C   UNL     1      -9.455  16.738  68.545  1.00  0.00    -0.245 C  
HETATM   16  O   UNL     1      -8.265  17.012  68.465  1.00  0.00    -0.239 OA 
BRANCH  15  17
HETATM   17  O   UNL     1     -10.476  17.588  68.238  1.00  0.00    -0.361 OA 
BRANCH  17  18
HETATM   18  C   UNL     1     -10.121  18.976  68.215  1.00  0.00    -0.396 C  
HETATM   19  C   UNL     1     -10.609  19.560  66.902  1.00  0.00    -0.602 C  
ENDBRANCH  17  18
ENDBRANCH  15  17
ENDBRANCH   7  15
ENDBRANCH   6   7
ENDBRANCH   4   6
ENDBRANCH   3   4
ENDBRANCH   2   3
TORSDOF 11
ENDMDL
MODEL       34
REMARK 921   NORMALIZED FREE ENERGY PREDICTED BY IDOCK:   -4.32 KCAL/MOL
REMARK 922        TOTAL FREE ENERGY PREDICTED BY IDOCK:   -7.79 KCAL/MOL
REMARK 923 INTER-LIGAND FREE ENERGY PREDICTED BY IDOCK:   -7.04 KCAL/MOL
REMARK 924 INTRA-LIGAND FREE ENERGY PREDICTED BY IDOCK:   -0.75 KCAL/MOL
REMARK 927      BINDING AFFINITY PREDICTED BY RF-SCORE:    0.00 PKD
ROOT
HETATM    1  C   UNL     1      -9.813  11.449  63.101  1.00  0.00    -0.413 C  
HETATM    2  C   UNL     1     -11.178  12.012  63.459  1.00  0.00    -0.445 C  
ENDROOT
BRANCH   2   3
HETATM    3  O   UNL     1     -10.966  13.246  64.155  1.00  0.00    -0.385 OA 
BRANCH   3   4
HETATM    4  C   UNL     1     -12.082  13.952  64.467  1.00  0.00    -0.443 C  
HETATM    5  O   UNL     1     -12.659  14.749  63.737  1.00  0.00    -0.806 OA 
BRANCH   4   6
HETATM    6  C   UNL     1     -12.635  13.471  65.777  1.00  0.00    -0.490 C  
BRANCH   6   7
HETATM    7  C   UNL     1     -11.541  13.352  66.828  1.00  0.00    -0.365 C  
BRANCH   7   8
HETATM    8  S   UNL     1     -11.864  14.360  68.335  1.00  0.00    -0.294 SA 
BRANCH   8   9
HETATM    9  P   UNL     1     -10.756  16.160  68.172  1.00  0.00    -0.332 P  
HETATM   10  S   UNL     1      -9.231  15.461  69.316  1.00  0.00    -0.253 S  
BRANCH   9  11
HETATM   11  O   UNL     1     -10.481  15.938  66.551  1.00  0.00    -0.295 OA 
HETATM   12  C   UNL     1      -9.175  15.906  65.992  1.00  0.00    -0.337 C  
ENDBRANCH   9  11
BRANCH   9  13
HETATM   13  O   UNL     1      -9.852  17.629  68.040  1.00  0.00    -0.284 OA 
HETATM   14  C   UNL     1     -10.603  18.771  67.677  1.00  0.00    -0.419 C  
ENDBRANCH   9  13
ENDBRANCH   8   9
ENDBRANCH   7   8
BRANCH   7  15
HETATM   15  C   UNL     1     -11.462  11.903  67.291  1.00  0.00    -0.317 C  
HETATM   16  O   UNL     1     -12.245  11.376  68.070  1.00  0.00    -0.607 OA 
BRANCH  15  17
HETATM   17  O   UNL     1     -10.336  11.316  66.795  1.00  0.00    -0.221 OA 
BRANCH  17  18
HETATM   18  C   UNL     1     -10.473   9.928  66.466  1.00  0.00    -0.143 C  
HETATM   19  C   UNL     1      -9.607   9.134  67.427  1.00  0.00    -0.193 C  
ENDBRANCH  17  18
ENDBRANCH  15  17
ENDBRANCH   7  15
ENDBRANCH   6   7
ENDBRANCH   4   6
ENDBRANCH   3   4
ENDBRANCH   2   3
TORSDOF 11
ENDMDL
MODEL       35
REMARK 921   NORMALIZED FREE ENERGY PREDICTED BY IDOCK:   -4.32 KCAL/MOL
REMARK 922        TOTAL FREE ENERGY PREDICTED BY IDOCK:   -7.79 KCAL/MOL
REMARK 923 INTER-LIGAND FREE ENERGY PREDICTED BY IDOCK:   -6.86 KCAL/MOL
REMARK 924 INTRA-LIGAND FREE ENERGY PREDICTED BY IDOCK:   -0.92 KCAL/MOL
REMARK 927      BINDING AFFINITY PREDICTED BY RF-SCORE:    0.00 PKD
ROOT
HETATM    1  C   UNL     1     -10.524  19.199  67.091  1.00  0.00    -0.539 C  
HETATM    2  C   UNL     1     -10.842  18.633  65.719  1.00  0.00    -0.044 C  
ENDROOT
BRANCH   2   3
HETATM    3  O   UNL     1     -10.253  17.329  65.643  1.00  0.00    -0.579 OA 
BRANCH   3   4
HETATM    4  C   UNL     1     -10.937  16.408  64.919  1.00  0.00    -0.263 C  
HETATM    5  O   UNL     1     -11.585  16.625  63.903  1.00  0.00    -1.204 OA 
BRANCH   4   6
HETATM    6  C   UNL     1     -10.625  15.031  65.429  1.00  0.00    -0.398 C  
BRANCH   6   7
HETATM    7  C   UNL     1     -11.697  14.545  66.394  1.00  0.00    -0.363 C  
BRANCH   7   8
HETATM    8  S   UNL     1     -12.033  12.738  66.260  1.00  0.00    -0.337 SA 
BRANCH   8   9
HETATM    9  P   UNL     1     -10.356  11.825  65.340  1.00  0.00    -0.290 P  
HETATM   10  S   UNL     1     -10.273  10.329  66.711  1.00  0.00    -0.226 S  
BRANCH   9  11
HETATM   11  O   UNL     1     -11.226  11.397  63.994  1.00  0.00    -0.368 OA 
HETATM   12  C   UNL     1     -12.388  12.101  63.577  1.00  0.00    -0.574 C  
ENDBRANCH   9  11
BRANCH   9  13
HETATM   13  O   UNL     1      -8.987  11.079  64.590  1.00  0.00    -0.167 OA 
HETATM   14  C   UNL     1      -9.044   9.669  64.493  1.00  0.00    -0.236 C  
ENDBRANCH   9  13
ENDBRANCH   8   9
ENDBRANCH   7   8
BRANCH   7  15
HETATM   15  C   UNL     1     -11.220  14.786  67.820  1.00  0.00    -0.313 C  
HETATM   16  O   UNL     1     -11.911  15.246  68.719  1.00  0.00    -0.321 OA 
BRANCH  15  17
HETATM   17  O   UNL     1      -9.888  14.513  67.918  1.00  0.00    -0.217 OA 
BRANCH  17  18
HETATM   18  C   UNL     1      -9.227  15.119  69.036  1.00  0.00    -0.221 C  
HETATM   19  C   UNL     1      -8.449  16.317  68.523  1.00  0.00    -0.206 C  
ENDBRANCH  17  18
ENDBRANCH  15  17
ENDBRANCH   7  15
ENDBRANCH   6   7
ENDBRANCH   4   6
ENDBRANCH   3   4
ENDBRANCH   2   3
TORSDOF 11
ENDMDL
MODEL       36
REMARK 921   NORMALIZED FREE ENERGY PREDICTED BY IDOCK:   -4.31 KCAL/MOL
REMARK 922        TOTAL FREE ENERGY PREDICTED BY IDOCK:   -7.78 KCAL/MOL
REMARK 923 INTER-LIGAND FREE ENERGY PREDICTED BY IDOCK:   -7.08 KCAL/MOL
REMARK 924 INTRA-LIGAND FREE ENERGY PREDICTED BY IDOCK:   -0.70 KCAL/MOL
REMARK 927      BINDING AFFINITY PREDICTED BY RF-SCORE:    0.00 PKD
ROOT
HETATM    1  C   UNL     1      -9.778  10.559  63.537  1.00  0.00    -0.374 C  
HETATM    2  C   UNL     1     -10.527  11.863  63.323  1.00  0.00    -0.379 C  
ENDROOT
BRANCH   2   3
HETATM    3  O   UNL     1     -11.532  11.955  64.340  1.00  0.00    -0.340 OA 
BRANCH   3   4
HETATM    4  C   UNL     1     -11.978  13.203  64.624  1.00  0.00    -0.388 C  
HETATM    5  O   UNL     1     -13.108  13.499  64.995  1.00  0.00    -0.736 OA 
BRANCH   4   6
HETATM    6  C   UNL     1     -10.827  14.167  64.613  1.00  0.00    -0.401 C  
BRANCH   6   7
HETATM    7  C   UNL     1     -10.838  15.053  65.851  1.00  0.00    -0.337 C  
BRANCH   7   8
HETATM    8  S   UNL     1      -9.436  14.718  66.999  1.00  0.00    -0.241 SA 
BRANCH   8   9
HETATM    9  P   UNL     1      -9.944  13.035  68.184  1.00  0.00    -0.222 P  
HETATM   10  S   UNL     1     -11.921  13.499  68.200  1.00  0.00    -0.283 S  
BRANCH   9  11
HETATM   11  O   UNL     1      -9.558  11.967  66.975  1.00  0.00    -0.189 OA 
HETATM   12  C   UNL     1      -8.217  11.699  66.588  1.00  0.00    -0.140 C  
ENDBRANCH   9  11
BRANCH   9  13
HETATM   13  O   UNL     1     -10.359  11.663  69.151  1.00  0.00    -0.142 OA 
HETATM   14  C   UNL     1     -11.671  11.167  68.966  1.00  0.00    -0.339 C  
ENDBRANCH   9  13
ENDBRANCH   8   9
ENDBRANCH   7   8
BRANCH   7  15
HETATM   15  C   UNL     1     -10.697  16.505  65.416  1.00  0.00    -0.259 C  
HETATM   16  O   UNL     1     -11.162  16.974  64.386  1.00  0.00    -1.167 OA 
BRANCH  15  17
HETATM   17  O   UNL     1      -9.892  17.177  66.289  1.00  0.00    -0.281 OA 
BRANCH  17  18
HETATM   18  C   UNL     1     -10.566  18.125  67.126  1.00  0.00    -0.344 C  
HETATM   19  C   UNL     1     -10.118  19.514  66.710  1.00  0.00    -0.519 C  
ENDBRANCH  17  18
ENDBRANCH  15  17
ENDBRANCH   7  15
ENDBRANCH   6   7
ENDBRANCH   4   6
ENDBRANCH   3   4
ENDBRANCH   2   3
TORSDOF 11
ENDMDL
MODEL       37
REMARK 921   NORMALIZED FREE ENERGY PREDICTED BY IDOCK:   -4.31 KCAL/MOL
REMARK 922        TOTAL FREE ENERGY PREDICTED BY IDOCK:   -7.77 KCAL/MOL
REMARK 923 INTER-LIGAND FREE ENERGY PREDICTED BY IDOCK:   -6.96 KCAL/MOL
REMARK 924 INTRA-LIGAND FREE ENERGY PREDICTED BY IDOCK:   -0.81 KCAL/MOL
REMARK 927      BINDING AFFINITY PREDICTED BY RF-SCORE:    0.00 PKD
ROOT
HETATM    1  C   UNL     1     -11.371  12.474  63.473  1.00  0.00    -0.556 C  
HETATM    2  C   UNL     1     -10.958  13.493  64.521  1.00  0.00    -0.394 C  
ENDROOT
BRANCH   2   3
HETATM    3  O   UNL     1     -10.644  12.775  65.720  1.00  0.00    -0.265 OA 
BRANCH   3   4
HETATM    4  C   UNL     1     -11.659  12.627  66.608  1.00  0.00    -0.381 C  
HETATM    5  O   UNL     1     -12.032  11.573  67.109  1.00  0.00    -0.581 OA 
BRANCH   4   6
HETATM    6  C   UNL     1     -12.143  13.977  67.052  1.00  0.00    -0.455 C  
BRANCH   6   7
HETATM    7  C   UNL     1     -11.248  14.554  68.139  1.00  0.00    -0.284 C  
BRANCH   7   8
HETATM    8  S   UNL     1     -10.954  16.363  67.956  1.00  0.00    -0.289 SA 
BRANCH   8   9
HETATM    9  P   UNL     1      -8.936  16.756  68.474  1.00  0.00    -0.252 P  
HETATM   10  S   UNL     1      -8.206  15.513  67.042  1.00  0.00    -0.257 S  
BRANCH   9  11
HETATM   11  O   UNL     1      -9.025  18.329  67.956  1.00  0.00    -0.277 OA 
HETATM   12  C   UNL     1      -9.750  19.328  68.661  1.00  0.00    -0.429 C  
ENDBRANCH   9  11
BRANCH   9  13
HETATM   13  O   UNL     1      -7.289  17.075  68.896  1.00  0.00    -0.229 OA 
HETATM   14  C   UNL     1      -6.515  17.693  67.886  1.00  0.00    -0.179 C  
ENDBRANCH   9  13
ENDBRANCH   8   9
ENDBRANCH   7   8
BRANCH   7  15
HETATM   15  C   UNL     1     -11.931  14.366  69.488  1.00  0.00    -0.330 C  
HETATM   16  O   UNL     1     -12.194  13.283  69.992  1.00  0.00    -0.317 OA 
BRANCH  15  17
HETATM   17  O   UNL     1     -12.297  15.577  69.997  1.00  0.00    -0.369 OA 
BRANCH  17  18
HETATM   18  C   UNL     1     -13.043  15.518  71.219  1.00  0.00    -0.511 C  
HETATM   19  C   UNL     1     -12.112  15.909  72.352  1.00  0.00    -0.605 C  
ENDBRANCH  17  18
ENDBRANCH  15  17
ENDBRANCH   7  15
ENDBRANCH   6   7
ENDBRANCH   4   6
ENDBRANCH   3   4
ENDBRANCH   2   3
TORSDOF 11
ENDMDL
MODEL       38
REMARK 921   NORMALIZED FREE ENERGY PREDICTED BY IDOCK:   -4.30 KCAL/MOL
REMARK 922        TOTAL FREE ENERGY PREDICTED BY IDOCK:   -7.77 KCAL/MOL
REMARK 923 INTER-LIGAND FREE ENERGY PREDICTED BY IDOCK:   -7.10 KCAL/MOL
REMARK 924 INTRA-LIGAND FREE ENERGY PREDICTED BY IDOCK:   -0.67 KCAL/MOL
REMARK 927      BINDING AFFINITY PREDICTED BY RF-SCORE:    0.00 PKD
ROOT
HETATM    1  C   UNL     1     -13.819  15.233  72.207  1.00  0.00    -0.632 C  
HETATM    2  C   UNL     1     -12.967  15.577  70.998  1.00  0.00    -0.489 C  
ENDROOT
BRANCH   2   3
HETATM    3  O   UNL     1     -12.535  14.345  70.409  1.00  0.00    -0.327 OA 
BRANCH   3   4
HETATM    4  C   UNL     1     -11.890  14.447  69.221  1.00  0.00    -0.325 C  
HETATM    5  O   UNL     1     -11.905  15.416  68.472  1.00  0.00    -0.345 OA 
BRANCH   4   6
HETATM    6  C   UNL     1     -10.980  13.268  69.036  1.00  0.00    -0.249 C  
BRANCH   6   7
HETATM    7  C   UNL     1     -11.717  12.097  68.402  1.00  0.00    -0.332 C  
BRANCH   7   8
HETATM    8  S   UNL     1     -11.197  11.761  66.667  1.00  0.00    -0.301 SA 
BRANCH   8   9
HETATM    9  P   UNL     1     -12.025  13.270  65.430  1.00  0.00    -0.452 P  
HETATM   10  S   UNL     1     -10.353  14.420  65.516  1.00  0.00    -0.385 S  
BRANCH   9  11
HETATM   11  O   UNL     1     -12.041  12.281  64.098  1.00  0.00    -0.396 OA 
HETATM   12  C   UNL     1     -10.868  11.974  63.357  1.00  0.00    -0.405 C  
ENDBRANCH   9  11
BRANCH   9  13
HETATM   13  O   UNL     1     -12.700  14.502  64.420  1.00  0.00    -0.655 OA 
HETATM   14  C   UNL     1     -11.977  15.717  64.384  1.00  0.00    -0.136 C  
ENDBRANCH   9  13
ENDBRANCH   8   9
ENDBRANCH   7   8
BRANCH   7  15
HETATM   15  C   UNL     1     -11.405  10.833  69.194  1.00  0.00    -0.282 C  
HETATM   16  O   UNL     1     -11.026   9.778  68.704  1.00  0.00    -0.213 OA 
BRANCH  15  17
HETATM   17  O   UNL     1     -11.709  11.021  70.510  1.00  0.00    -0.322 OA 
BRANCH  17  18
HETATM   18  C   UNL     1     -11.540   9.865  71.340  1.00  0.00    -0.352 C  
HETATM   19  C   UNL     1     -12.880   9.552  71.980  1.00  0.00    -0.499 C  
ENDBRANCH  17  18
ENDBRANCH  15  17
ENDBRANCH   7  15
ENDBRANCH   6   7
ENDBRANCH   4   6
ENDBRANCH   3   4
ENDBRANCH   2   3
TORSDOF 11
ENDMDL
MODEL       39
REMARK 921   NORMALIZED FREE ENERGY PREDICTED BY IDOCK:   -4.30 KCAL/MOL
REMARK 922        TOTAL FREE ENERGY PREDICTED BY IDOCK:   -7.76 KCAL/MOL
REMARK 923 INTER-LIGAND FREE ENERGY PREDICTED BY IDOCK:   -6.89 KCAL/MOL
REMARK 924 INTRA-LIGAND FREE ENERGY PREDICTED BY IDOCK:   -0.87 KCAL/MOL
REMARK 927      BINDING AFFINITY PREDICTED BY RF-SCORE:    0.00 PKD
ROOT
HETATM    1  C   UNL     1      -7.312  17.668  68.825  1.00  0.00    -0.261 C  
HETATM    2  C   UNL     1      -8.594  16.857  68.763  1.00  0.00    -0.246 C  
ENDROOT
BRANCH   2   3
HETATM    3  O   UNL     1      -8.514  16.013  67.608  1.00  0.00    -0.155 OA 
BRANCH   3   4
HETATM    4  C   UNL     1      -9.059  16.509  66.470  1.00  0.00    -0.276 C  
HETATM    5  O   UNL     1      -8.443  16.891  65.482  1.00  0.00    -0.256 OA 
BRANCH   4   6
HETATM    6  C   UNL     1     -10.550  16.341  66.506  1.00  0.00    -0.256 C  
BRANCH   6   7
HETATM    7  C   UNL     1     -10.971  15.018  65.883  1.00  0.00    -0.343 C  
BRANCH   7   8
HETATM    8  S   UNL     1     -12.148  14.061  66.930  1.00  0.00    -0.385 SA 
BRANCH   8   9
HETATM    9  P   UNL     1     -11.368  12.106  67.176  1.00  0.00    -0.335 P  
HETATM   10  S   UNL     1      -9.482  12.670  66.676  1.00  0.00    -0.243 S  
BRANCH   9  11
HETATM   11  O   UNL     1     -11.617  12.126  68.816  1.00  0.00    -0.277 OA 
HETATM   12  C   UNL     1     -11.691  10.940  69.595  1.00  0.00    -0.331 C  
ENDBRANCH   9  11
BRANCH   9  13
HETATM   13  O   UNL     1     -10.731  10.510  67.376  1.00  0.00    -0.244 OA 
HETATM   14  C   UNL     1     -10.134   9.948  66.224  1.00  0.00    -0.241 C  
ENDBRANCH   9  13
ENDBRANCH   8   9
ENDBRANCH   7   8
BRANCH   7  15
HETATM   15  C   UNL     1     -11.697  15.301  64.574  1.00  0.00    -0.305 C  
HETATM   16  O   UNL     1     -11.616  16.346  63.943  1.00  0.00    -1.100 OA 
BRANCH  15  17
HETATM   17  O   UNL     1     -12.526  14.262  64.267  1.00  0.00    -0.657 OA 
BRANCH  17  18
HETATM   18  C   UNL     1     -11.977  13.299  63.359  1.00  0.00    -0.427 C  
HETATM   19  C   UNL     1     -12.632  11.961  63.648  1.00  0.00    -0.555 C  
ENDBRANCH  17  18
ENDBRANCH  15  17
ENDBRANCH   7  15
ENDBRANCH   6   7
ENDBRANCH   4   6
ENDBRANCH   3   4
ENDBRANCH   2   3
TORSDOF 11
ENDMDL
MODEL       40
REMARK 921   NORMALIZED FREE ENERGY PREDICTED BY IDOCK:   -4.29 KCAL/MOL
REMARK 922        TOTAL FREE ENERGY PREDICTED BY IDOCK:   -7.75 KCAL/MOL
REMARK 923 INTER-LIGAND FREE ENERGY PREDICTED BY IDOCK:   -7.14 KCAL/MOL
REMARK 924 INTRA-LIGAND FREE ENERGY PREDICTED BY IDOCK:   -0.61 KCAL/MOL
REMARK 927      BINDING AFFINITY PREDICTED BY RF-SCORE:    0.00 PKD
ROOT
HETATM    1  C   UNL     1     -10.716  10.147  69.087  1.00  0.00    -0.254 C  
HETATM    2  C   UNL     1     -11.241  10.590  67.733  1.00  0.00    -0.273 C  
ENDROOT
BRANCH   2   3
HETATM    3  O   UNL     1     -12.042  11.760  67.942  1.00  0.00    -0.592 OA 
BRANCH   3   4
HETATM    4  C   UNL     1     -12.028  12.677  66.943  1.00  0.00    -0.275 C  
HETATM    5  O   UNL     1     -12.291  12.466  65.766  1.00  0.00    -0.644 OA 
BRANCH   4   6
HETATM    6  C   UNL     1     -11.834  14.049  67.520  1.00  0.00    -0.442 C  
BRANCH   6   7
HETATM    7  C   UNL     1     -10.397  14.256  67.980  1.00  0.00    -0.229 C  
BRANCH   7   8
HETATM    8  S   UNL     1      -9.320  15.012  66.691  1.00  0.00    -0.283 SA 
BRANCH   8   9
HETATM    9  P   UNL     1      -9.670  17.103  66.686  1.00  0.00    -0.301 P  
HETATM   10  S   UNL     1      -7.696  17.550  66.517  1.00  0.00    -0.300 S  
BRANCH   9  11
HETATM   11  O   UNL     1     -10.433  17.052  65.214  1.00  0.00    -0.649 OA 
HETATM   12  C   UNL     1     -11.040  15.873  64.704  1.00  0.00    -0.354 C  
ENDBRANCH   9  11
BRANCH   9  13
HETATM   13  O   UNL     1      -9.955  18.809  66.682  1.00  0.00    -0.322 OA 
HETATM   14  C   UNL     1      -9.983  19.420  67.957  1.00  0.00    -0.387 C  
ENDBRANCH   9  13
ENDBRANCH   8   9
ENDBRANCH   7   8
BRANCH   7  15
HETATM   15  C   UNL     1     -10.394  15.221  69.159  1.00  0.00    -0.248 C  
HETATM   16  O   UNL     1      -9.394  15.572  69.771  1.00  0.00    -0.274 OA 
BRANCH  15  17
HETATM   17  O   UNL     1     -11.674  15.551  69.495  1.00  0.00    -0.320 OA 
BRANCH  17  18
HETATM   18  C   UNL     1     -11.906  15.719  70.898  1.00  0.00    -0.414 C  
HETATM   19  C   UNL     1     -13.373  15.431  71.165  1.00  0.00    -0.580 C  
ENDBRANCH  17  18
ENDBRANCH  15  17
ENDBRANCH   7  15
ENDBRANCH   6   7
ENDBRANCH   4   6
ENDBRANCH   3   4
ENDBRANCH   2   3
TORSDOF 11
ENDMDL
MODEL       41
REMARK 921   NORMALIZED FREE ENERGY PREDICTED BY IDOCK:   -4.28 KCAL/MOL
REMARK 922        TOTAL FREE ENERGY PREDICTED BY IDOCK:   -7.73 KCAL/MOL
REMARK 923 INTER-LIGAND FREE ENERGY PREDICTED BY IDOCK:   -7.04 KCAL/MOL
REMARK 924 INTRA-LIGAND FREE ENERGY PREDICTED BY IDOCK:   -0.69 KCAL/MOL
REMARK 927      BINDING AFFINITY PREDICTED BY RF-SCORE:    0.00 PKD
ROOT
HETATM    1  C   UNL     1     -10.322  11.491  63.532  1.00  0.00    -0.484 C  
HETATM    2  C   UNL     1     -11.718  12.086  63.564  1.00  0.00    -0.472 C  
ENDROOT
BRANCH   2   3
HETATM    3  O   UNL     1     -11.971  12.522  64.905  1.00  0.00    -0.372 OA 
BRANCH   3   4
HETATM    4  C   UNL     1     -12.354  13.815  65.048  1.00  0.00    -0.428 C  
HETATM    5  O   UNL     1     -13.501  14.215  65.207  1.00  0.00    -0.606 OA 
BRANCH   4   6
HETATM    6  C   UNL     1     -11.142  14.690  65.185  1.00  0.00    -0.382 C  
BRANCH   6   7
HETATM    7  C   UNL     1     -11.164  15.462  66.497  1.00  0.00    -0.162 C  
BRANCH   7   8
HETATM    8  S   UNL     1     -10.827  14.407  67.969  1.00  0.00    -0.249 SA 
BRANCH   8   9
HETATM    9  P   UNL     1     -11.728  15.325  69.655  1.00  0.00    -0.375 P  
HETATM   10  S   UNL     1     -12.154  13.547  70.540  1.00  0.00    -0.290 S  
BRANCH   9  11
HETATM   11  O   UNL     1     -10.288  15.960  70.179  1.00  0.00    -0.283 OA 
HETATM   12  C   UNL     1      -9.030  15.514  69.690  1.00  0.00    -0.158 C  
ENDBRANCH   9  11
BRANCH   9  13
HETATM   13  O   UNL     1     -12.464  16.072  71.030  1.00  0.00    -0.394 OA 
HETATM   14  C   UNL     1     -11.755  15.932  72.246  1.00  0.00    -0.481 C  
ENDBRANCH   9  13
ENDBRANCH   8   9
ENDBRANCH   7   8
BRANCH   7  15
HETATM   15  C   UNL     1     -10.064  16.515  66.465  1.00  0.00    -0.299 C  
HETATM   16  O   UNL     1      -8.954  16.351  65.978  1.00  0.00    -0.365 OA 
BRANCH  15  17
HETATM   17  O   UNL     1     -10.463  17.626  67.149  1.00  0.00    -0.339 OA 
BRANCH  17  18
HETATM   18  C   UNL     1     -10.386  18.851  66.410  1.00  0.00    -0.443 C  
HETATM   19  C   UNL     1      -9.410  19.766  67.126  1.00  0.00    -0.458 C  
ENDBRANCH  17  18
ENDBRANCH  15  17
ENDBRANCH   7  15
ENDBRANCH   6   7
ENDBRANCH   4   6
ENDBRANCH   3   4
ENDBRANCH   2   3
TORSDOF 11
ENDMDL
MODEL       42
REMARK 921   NORMALIZED FREE ENERGY PREDICTED BY IDOCK:   -4.27 KCAL/MOL
REMARK 922        TOTAL FREE ENERGY PREDICTED BY IDOCK:   -7.71 KCAL/MOL
REMARK 923 INTER-LIGAND FREE ENERGY PREDICTED BY IDOCK:   -6.96 KCAL/MOL
REMARK 924 INTRA-LIGAND FREE ENERGY PREDICTED BY IDOCK:   -0.75 KCAL/MOL
REMARK 927      BINDING AFFINITY PREDICTED BY RF-SCORE:    0.00 PKD
ROOT
HETATM    1  C   UNL     1     -12.371  12.318  63.651  1.00  0.00    -0.664 C  
HETATM    2  C   UNL     1     -11.881  13.083  64.867  1.00  0.00    -0.361 C  
ENDROOT
BRANCH   2   3
HETATM    3  O   UNL     1     -12.241  12.325  66.028  1.00  0.00    -0.646 OA 
BRANCH   3   4
HETATM    4  C   UNL     1     -11.224  11.996  66.863  1.00  0.00    -0.320 C  
HETATM    5  O   UNL     1     -10.044  12.290  66.715  1.00  0.00    -0.206 OA 
BRANCH   4   6
HETATM    6  C   UNL     1     -11.777  11.379  68.115  1.00  0.00    -0.355 C  
BRANCH   6   7
HETATM    7  C   UNL     1     -11.417  12.206  69.342  1.00  0.00    -0.290 C  
BRANCH   7   8
HETATM    8  S   UNL     1     -12.037  13.939  69.260  1.00  0.00    -0.291 SA 
BRANCH   8   9
HETATM    9  P   UNL     1     -10.361  15.237  69.275  1.00  0.00    -0.280 P  
HETATM   10  S   UNL     1     -10.604  15.761  67.327  1.00  0.00    -0.312 S  
BRANCH   9  11
HETATM   11  O   UNL     1     -11.096  16.305  70.310  1.00  0.00    -0.357 OA 
HETATM   12  C   UNL     1     -11.738  15.892  71.508  1.00  0.00    -0.475 C  
ENDBRANCH   9  11
BRANCH   9  13
HETATM   13  O   UNL     1      -8.993  16.297  69.285  1.00  0.00    -0.244 OA 
HETATM   14  C   UNL     1      -8.946  17.234  68.228  1.00  0.00    -0.262 C  
ENDBRANCH   9  13
ENDBRANCH   8   9
ENDBRANCH   7   8
BRANCH   7  15
HETATM   15  C   UNL     1     -12.068  11.576  70.566  1.00  0.00    -0.378 C  
HETATM   16  O   UNL     1     -12.842  12.153  71.319  1.00  0.00    -0.358 OA 
BRANCH  15  17
HETATM   17  O   UNL     1     -11.583  10.316  70.756  1.00  0.00    -0.310 OA 
BRANCH  17  18
HETATM   18  C   UNL     1     -12.369   9.490  71.624  1.00  0.00    -0.398 C  
HETATM   19  C   UNL     1     -11.456   8.428  72.207  1.00  0.00    -0.454 C  
ENDBRANCH  17  18
ENDBRANCH  15  17
ENDBRANCH   7  15
ENDBRANCH   6   7
ENDBRANCH   4   6
ENDBRANCH   3   4
ENDBRANCH   2   3
TORSDOF 11
ENDMDL
MODEL       43
REMARK 921   NORMALIZED FREE ENERGY PREDICTED BY IDOCK:   -4.27 KCAL/MOL
REMARK 922        TOTAL FREE ENERGY PREDICTED BY IDOCK:   -7.71 KCAL/MOL
REMARK 923 INTER-LIGAND FREE ENERGY PREDICTED BY IDOCK:   -6.98 KCAL/MOL
REMARK 924 INTRA-LIGAND FREE ENERGY PREDICTED BY IDOCK:   -0.73 KCAL/MOL
REMARK 927      BINDING AFFINITY PREDICTED BY RF-SCORE:    0.00 PKD
ROOT
HETATM    1  C   UNL     1      -6.609  17.785  68.822  1.00  0.00    -0.227 C  
HETATM    2  C   UNL     1      -7.917  18.237  68.195  1.00  0.00    -0.284 C  
ENDROOT
BRANCH   2   3
HETATM    3  O   UNL     1      -8.794  17.105  68.165  1.00  0.00    -0.223 OA 
BRANCH   3   4
HETATM    4  C   UNL     1     -10.109  17.366  68.374  1.00  0.00    -0.347 C  
HETATM    5  O   UNL     1     -10.889  17.845  67.560  1.00  0.00    -0.364 OA 
BRANCH   4   6
HETATM    6  C   UNL     1     -10.533  16.797  69.697  1.00  0.00    -0.209 C  
BRANCH   6   7
HETATM    7  C   UNL     1     -11.633  15.759  69.524  1.00  0.00    -0.363 C  
BRANCH   7   8
HETATM    8  S   UNL     1     -11.020  14.153  68.860  1.00  0.00    -0.264 SA 
BRANCH   8   9
HETATM    9  P   UNL     1     -11.863  13.875  66.934  1.00  0.00    -0.435 P  
HETATM   10  S   UNL     1     -10.092  14.182  65.988  1.00  0.00    -0.326 S  
BRANCH   9  11
HETATM   11  O   UNL     1     -12.159  12.266  67.209  1.00  0.00    -0.548 OA 
HETATM   12  C   UNL     1     -11.367  11.480  68.089  1.00  0.00    -0.298 C  
ENDBRANCH   9  11
BRANCH   9  13
HETATM   13  O   UNL     1     -12.550  13.648  65.363  1.00  0.00    -0.469 OA 
HETATM   14  C   UNL     1     -12.183  14.615  64.398  1.00  0.00    -0.452 C  
ENDBRANCH   9  13
ENDBRANCH   8   9
ENDBRANCH   7   8
BRANCH   7  15
HETATM   15  C   UNL     1     -12.239  15.454  70.887  1.00  0.00    -0.373 C  
HETATM   16  O   UNL     1     -11.763  15.807  71.958  1.00  0.00    -0.402 OA 
BRANCH  15  17
HETATM   17  O   UNL     1     -13.327  14.645  70.743  1.00  0.00    -0.351 OA 
BRANCH  17  18
HETATM   18  C   UNL     1     -13.869  14.136  71.968  1.00  0.00    -0.485 C  
HETATM   19  C   UNL     1     -13.459  12.680  72.089  1.00  0.00    -0.561 C  
ENDBRANCH  17  18
ENDBRANCH  15  17
ENDBRANCH   7  15
ENDBRANCH   6   7
ENDBRANCH   4   6
ENDBRANCH   3   4
ENDBRANCH   2   3
TORSDOF 11
ENDMDL
MODEL       44
REMARK 921   NORMALIZED FREE ENERGY PREDICTED BY IDOCK:   -4.25 KCAL/MOL
REMARK 922        TOTAL FREE ENERGY PREDICTED BY IDOCK:   -7.68 KCAL/MOL
REMARK 923 INTER-LIGAND FREE ENERGY PREDICTED BY IDOCK:   -7.04 KCAL/MOL
REMARK 924 INTRA-LIGAND FREE ENERGY PREDICTED BY IDOCK:   -0.64 KCAL/MOL
REMARK 927      BINDING AFFINITY PREDICTED BY RF-SCORE:    0.00 PKD
ROOT
HETATM    1  C   UNL     1     -12.360  12.677  65.037  1.00  0.00    -0.561 C  
HETATM    2  C   UNL     1     -11.450  12.187  66.150  1.00  0.00    -0.371 C  
ENDROOT
BRANCH   2   3
HETATM    3  O   UNL     1     -12.049  12.565  67.395  1.00  0.00    -0.466 OA 
BRANCH   3   4
HETATM    4  C   UNL     1     -11.193  12.792  68.422  1.00  0.00    -0.278 C  
HETATM    5  O   UNL     1      -9.995  12.538  68.434  1.00  0.00    -0.224 OA 
BRANCH   4   6
HETATM    6  C   UNL     1     -11.885  13.589  69.490  1.00  0.00    -0.392 C  
BRANCH   6   7
HETATM    7  C   UNL     1     -11.238  14.956  69.664  1.00  0.00    -0.275 C  
BRANCH   7   8
HETATM    8  S   UNL     1     -11.348  16.011  68.158  1.00  0.00    -0.232 SA 
BRANCH   8   9
HETATM    9  P   UNL     1      -9.598  17.204  68.062  1.00  0.00    -0.287 P  
HETATM   10  S   UNL     1      -8.573  15.818  66.988  1.00  0.00    -0.241 S  
BRANCH   9  11
HETATM   11  O   UNL     1     -10.327  18.337  67.094  1.00  0.00    -0.351 OA 
HETATM   12  C   UNL     1     -10.581  19.666  67.528  1.00  0.00    -0.446 C  
ENDBRANCH   9  11
BRANCH   9  13
HETATM   13  O   UNL     1      -8.170  18.176  67.984  1.00  0.00    -0.247 OA 
HETATM   14  C   UNL     1      -7.028  17.625  68.611  1.00  0.00    -0.237 C  
ENDBRANCH   9  13
ENDBRANCH   8   9
ENDBRANCH   7   8
BRANCH   7  15
HETATM   15  C   UNL     1     -11.970  15.708  70.767  1.00  0.00    -0.398 C  
HETATM   16  O   UNL     1     -11.425  16.378  71.635  1.00  0.00    -0.381 OA 
BRANCH  15  17
HETATM   17  O   UNL     1     -13.306  15.442  70.707  1.00  0.00    -0.436 OA 
BRANCH  17  18
HETATM   18  C   UNL     1     -13.941  15.247  71.976  1.00  0.00    -0.543 C  
HETATM   19  C   UNL     1     -14.014  13.754  72.236  1.00  0.00    -0.672 C  
ENDBRANCH  17  18
ENDBRANCH  15  17
ENDBRANCH   7  15
ENDBRANCH   6   7
ENDBRANCH   4   6
ENDBRANCH   3   4
ENDBRANCH   2   3
TORSDOF 11
ENDMDL
MODEL       45
REMARK 921   NORMALIZED FREE ENERGY PREDICTED BY IDOCK:   -4.22 KCAL/MOL
REMARK 922        TOTAL FREE ENERGY PREDICTED BY IDOCK:   -7.63 KCAL/MOL
REMARK 923 INTER-LIGAND FREE ENERGY PREDICTED BY IDOCK:   -6.81 KCAL/MOL
REMARK 924 INTRA-LIGAND FREE ENERGY PREDICTED BY IDOCK:   -0.82 KCAL/MOL
REMARK 927      BINDING AFFINITY PREDICTED BY RF-SCORE:    0.00 PKD
ROOT
HETATM    1  C   UNL     1     -14.383  14.360  71.925  1.00  0.00    -0.627 C  
HETATM    2  C   UNL     1     -13.305  14.951  71.033  1.00  0.00    -0.393 C  
ENDROOT
BRANCH   2   3
HETATM    3  O   UNL     1     -12.129  14.146  71.187  1.00  0.00    -0.343 OA 
BRANCH   3   4
HETATM    4  C   UNL     1     -12.038  13.064  70.374  1.00  0.00    -0.314 C  
HETATM    5  O   UNL     1     -12.162  11.894  70.713  1.00  0.00    -0.376 OA 
BRANCH   4   6
HETATM    6  C   UNL     1     -11.957  13.512  68.944  1.00  0.00    -0.378 C  
BRANCH   6   7
HETATM    7  C   UNL     1     -10.562  14.013  68.601  1.00  0.00    -0.257 C  
BRANCH   7   8
HETATM    8  S   UNL     1      -9.932  13.374  66.992  1.00  0.00    -0.252 SA 
BRANCH   8   9
HETATM    9  P   UNL     1     -11.601  12.837  65.800  1.00  0.00    -0.417 P  
HETATM   10  S   UNL     1     -11.600  14.603  64.797  1.00  0.00    -0.416 S  
BRANCH   9  11
HETATM   11  O   UNL     1     -10.752  11.658  65.000  1.00  0.00    -0.280 OA 
HETATM   12  C   UNL     1      -9.713  10.909  65.616  1.00  0.00    -0.232 C  
ENDBRANCH   9  11
BRANCH   9  13
HETATM   13  O   UNL     1     -12.964  12.400  64.828  1.00  0.00    -0.786 OA 
HETATM   14  C   UNL     1     -12.654  11.922  63.533  1.00  0.00    -0.459 C  
ENDBRANCH   9  13
ENDBRANCH   8   9
ENDBRANCH   7   8
BRANCH   7  15
HETATM   15  C   UNL     1     -10.604  15.530  68.471  1.00  0.00    -0.246 C  
HETATM   16  O   UNL     1     -11.600  16.179  68.181  1.00  0.00    -0.285 OA 
BRANCH  15  17
HETATM   17  O   UNL     1      -9.350  16.046  68.622  1.00  0.00    -0.197 OA 
BRANCH  17  18
HETATM   18  C   UNL     1      -9.043  17.150  67.762  1.00  0.00    -0.233 C  
HETATM   19  C   UNL     1      -8.140  18.099  68.528  1.00  0.00    -0.314 C  
ENDBRANCH  17  18
ENDBRANCH  15  17
ENDBRANCH   7  15
ENDBRANCH   6   7
ENDBRANCH   4   6
ENDBRANCH   3   4
ENDBRANCH   2   3
TORSDOF 11
ENDMDL
MODEL       46
REMARK 921   NORMALIZED FREE ENERGY PREDICTED BY IDOCK:   -4.20 KCAL/MOL
REMARK 922        TOTAL FREE ENERGY PREDICTED BY IDOCK:   -7.60 KCAL/MOL
REMARK 923 INTER-LIGAND FREE ENERGY PREDICTED BY IDOCK:   -7.16 KCAL/MOL
REMARK 924 INTRA-LIGAND FREE ENERGY PREDICTED BY IDOCK:   -0.44 KCAL/MOL
REMARK 927      BINDING AFFINITY PREDICTED BY RF-SCORE:    0.00 PKD
ROOT
HETATM    1  C   UNL     1     -13.439  15.928  73.022  1.00  0.00    -0.653 C  
HETATM    2  C   UNL     1     -14.282  15.127  72.046  1.00  0.00    -0.577 C  
ENDROOT
BRANCH   2   3
HETATM    3  O   UNL     1     -13.388  14.493  71.124  1.00  0.00    -0.356 OA 
BRANCH   3   4
HETATM    4  C   UNL     1     -13.083  13.197  71.384  1.00  0.00    -0.266 C  
HETATM    5  O   UNL     1     -13.704  12.444  72.125  1.00  0.00    -0.405 OA 
BRANCH   4   6
HETATM    6  C   UNL     1     -11.977  12.745  70.476  1.00  0.00    -0.277 C  
BRANCH   6   7
HETATM    7  C   UNL     1     -12.234  11.338  69.953  1.00  0.00    -0.288 C  
BRANCH   7   8
HETATM    8  S   UNL     1     -11.655  11.087  68.223  1.00  0.00    -0.231 SA 
BRANCH   8   9
HETATM    9  P   UNL     1     -11.629  12.974  67.258  1.00  0.00    -0.371 P  
HETATM   10  S   UNL     1      -9.605  12.988  67.085  1.00  0.00    -0.237 S  
BRANCH   9  11
HETATM   11  O   UNL     1     -12.372  12.379  65.900  1.00  0.00    -0.638 OA 
HETATM   12  C   UNL     1     -11.827  12.534  64.596  1.00  0.00    -0.378 C  
ENDBRANCH   9  11
BRANCH   9  13
HETATM   13  O   UNL     1     -11.607  14.514  66.471  1.00  0.00    -0.360 OA 
HETATM   14  C   UNL     1     -10.602  15.405  66.913  1.00  0.00    -0.309 C  
ENDBRANCH   9  13
ENDBRANCH   8   9
ENDBRANCH   7   8
BRANCH   7  15
HETATM   15  C   UNL     1     -11.458  10.347  70.812  1.00  0.00    -0.332 C  
HETATM   16  O   UNL     1     -10.322   9.960  70.576  1.00  0.00    -0.286 OA 
BRANCH  15  17
HETATM   17  O   UNL     1     -12.253   9.880  71.817  1.00  0.00    -0.389 OA 
BRANCH  17  18
HETATM   18  C   UNL     1     -12.532   8.476  71.764  1.00  0.00    -0.342 C  
HETATM   19  C   UNL     1     -14.033   8.306  71.610  1.00  0.00    -0.461 C  
ENDBRANCH  17  18
ENDBRANCH  15  17
ENDBRANCH   7  15
ENDBRANCH   6   7
ENDBRANCH   4   6
ENDBRANCH   3   4
ENDBRANCH   2   3
TORSDOF 11
ENDMDL
MODEL       47
REMARK 921   NORMALIZED FREE ENERGY PREDICTED BY IDOCK:   -4.20 KCAL/MOL
REMARK 922        TOTAL FREE ENERGY PREDICTED BY IDOCK:   -7.60 KCAL/MOL
REMARK 923 INTER-LIGAND FREE ENERGY PREDICTED BY IDOCK:   -6.76 KCAL/MOL
REMARK 924 INTRA-LIGAND FREE ENERGY PREDICTED BY IDOCK:   -0.84 KCAL/MOL
REMARK 927      BINDING AFFINITY PREDICTED BY RF-SCORE:    0.00 PKD
ROOT
HETATM    1  C   UNL     1     -10.938  11.897  63.542  1.00  0.00    -0.505 C  
HETATM    2  C   UNL     1     -12.244  12.658  63.400  1.00  0.00    -0.517 C  
ENDROOT
BRANCH   2   3
HETATM    3  O   UNL     1     -12.387  13.488  64.559  1.00  0.00    -0.489 OA 
BRANCH   3   4
HETATM    4  C   UNL     1     -12.081  14.799  64.394  1.00  0.00    -0.440 C  
HETATM    5  O   UNL     1     -12.741  15.622  63.770  1.00  0.00    -0.611 OA 
BRANCH   4   6
HETATM    6  C   UNL     1     -10.906  15.157  65.257  1.00  0.00    -0.414 C  
BRANCH   6   7
HETATM    7  C   UNL     1     -10.986  14.466  66.611  1.00  0.00    -0.318 C  
BRANCH   7   8
HETATM    8  S   UNL     1      -9.609  13.276  66.904  1.00  0.00    -0.255 SA 
BRANCH   8   9
HETATM    9  P   UNL     1     -10.459  11.391  67.372  1.00  0.00    -0.228 P  
HETATM   10  S   UNL     1      -8.689  10.415  67.170  1.00  0.00    -0.129 S  
BRANCH   9  11
HETATM   11  O   UNL     1     -10.761  11.828  68.943  1.00  0.00    -0.216 OA 
HETATM   12  C   UNL     1     -11.932  11.424  69.640  1.00  0.00    -0.348 C  
ENDBRANCH   9  11
BRANCH   9  13
HETATM   13  O   UNL     1     -11.151   9.853  67.753  1.00  0.00    -0.269 OA 
HETATM   14  C   UNL     1     -10.445   8.732  67.257  1.00  0.00    -0.283 C  
ENDBRANCH   9  13
ENDBRANCH   8   9
ENDBRANCH   7   8
BRANCH   7  15
HETATM   15  C   UNL     1     -10.881  15.519  67.706  1.00  0.00    -0.309 C  
HETATM   16  O   UNL     1      -9.986  16.348  67.794  1.00  0.00    -0.240 OA 
BRANCH  15  17
HETATM   17  O   UNL     1     -11.870  15.334  68.626  1.00  0.00    -0.346 OA 
BRANCH  17  18
HETATM   18  C   UNL     1     -11.557  15.785  69.950  1.00  0.00    -0.351 C  
HETATM   19  C   UNL     1     -12.661  15.311  70.876  1.00  0.00    -0.496 C  
ENDBRANCH  17  18
ENDBRANCH  15  17
ENDBRANCH   7  15
ENDBRANCH   6   7
ENDBRANCH   4   6
ENDBRANCH   3   4
ENDBRANCH   2   3
TORSDOF 11
ENDMDL
MODEL       48
REMARK 921   NORMALIZED FREE ENERGY PREDICTED BY IDOCK:   -4.19 KCAL/MOL
REMARK 922        TOTAL FREE ENERGY PREDICTED BY IDOCK:   -7.58 KCAL/MOL
REMARK 923 INTER-LIGAND FREE ENERGY PREDICTED BY IDOCK:   -6.82 KCAL/MOL
REMARK 924 INTRA-LIGAND FREE ENERGY PREDICTED BY IDOCK:   -0.75 KCAL/MOL
REMARK 927      BINDING AFFINITY PREDICTED BY RF-SCORE:    0.00 PKD
ROOT
HETATM    1  C   UNL     1     -12.938   8.940  72.172  1.00  0.00    -0.473 C  
HETATM    2  C   UNL     1     -13.349  10.050  71.220  1.00  0.00    -0.330 C  
ENDROOT
BRANCH   2   3
HETATM    3  O   UNL     1     -12.234  10.939  71.087  1.00  0.00    -0.352 OA 
BRANCH   3   4
HETATM    4  C   UNL     1     -11.490  10.797  69.962  1.00  0.00    -0.331 C  
HETATM    5  O   UNL     1     -10.658   9.922  69.752  1.00  0.00    -0.227 OA 
BRANCH   4   6
HETATM    6  C   UNL     1     -11.972  11.755  68.912  1.00  0.00    -0.332 C  
BRANCH   6   7
HETATM    7  C   UNL     1     -11.173  13.051  68.940  1.00  0.00    -0.278 C  
BRANCH   7   8
HETATM    8  S   UNL     1     -10.616  13.599  67.272  1.00  0.00    -0.268 SA 
BRANCH   8   9
HETATM    9  P   UNL     1     -12.032  12.918  65.849  1.00  0.00    -0.409 P  
HETATM   10  S   UNL     1     -11.886  14.604  64.725  1.00  0.00    -0.431 S  
BRANCH   9  11
HETATM   11  O   UNL     1     -11.030  11.713  65.309  1.00  0.00    -0.298 OA 
HETATM   12  C   UNL     1      -9.716  11.523  65.816  1.00  0.00    -0.235 C  
ENDBRANCH   9  11
BRANCH   9  13
HETATM   13  O   UNL     1     -13.189  12.363  64.688  1.00  0.00    -0.822 OA 
HETATM   14  C   UNL     1     -12.643  11.862  63.484  1.00  0.00    -0.459 C  
ENDBRANCH   9  13
ENDBRANCH   8   9
ENDBRANCH   7   8
BRANCH   7  15
HETATM   15  C   UNL     1     -12.060  14.164  69.481  1.00  0.00    -0.340 C  
HETATM   16  O   UNL     1     -12.982  14.000  70.269  1.00  0.00    -0.210 OA 
BRANCH  15  17
HETATM   17  O   UNL     1     -11.744  15.346  68.881  1.00  0.00    -0.338 OA 
BRANCH  17  18
HETATM   18  C   UNL     1     -11.144  16.321  69.744  1.00  0.00    -0.337 C  
HETATM   19  C   UNL     1     -10.320  17.261  68.883  1.00  0.00    -0.352 C  
ENDBRANCH  17  18
ENDBRANCH  15  17
ENDBRANCH   7  15
ENDBRANCH   6   7
ENDBRANCH   4   6
ENDBRANCH   3   4
ENDBRANCH   2   3
TORSDOF 11
ENDMDL
MODEL       49
REMARK 921   NORMALIZED FREE ENERGY PREDICTED BY IDOCK:   -4.17 KCAL/MOL
REMARK 922        TOTAL FREE ENERGY PREDICTED BY IDOCK:   -7.54 KCAL/MOL
REMARK 923 INTER-LIGAND FREE ENERGY PREDICTED BY IDOCK:   -6.89 KCAL/MOL
REMARK 924 INTRA-LIGAND FREE ENERGY PREDICTED BY IDOCK:   -0.66 KCAL/MOL
REMARK 927      BINDING AFFINITY PREDICTED BY RF-SCORE:    0.00 PKD
ROOT
HETATM    1  C   UNL     1     -14.134  13.846  72.094  1.00  0.00    -0.630 C  
HETATM    2  C   UNL     1     -14.102  15.351  71.894  1.00  0.00    -0.537 C  
ENDROOT
BRANCH   2   3
HETATM    3  O   UNL     1     -13.331  15.612  70.715  1.00  0.00    -0.535 OA 
BRANCH   3   4
HETATM    4  C   UNL     1     -12.011  15.858  70.910  1.00  0.00    -0.394 C  
HETATM    5  O   UNL     1     -11.517  16.431  71.874  1.00  0.00    -0.363 OA 
BRANCH   4   6
HETATM    6  C   UNL     1     -11.204  15.147  69.862  1.00  0.00    -0.305 C  
BRANCH   6   7
HETATM    7  C   UNL     1     -10.689  16.118  68.810  1.00  0.00    -0.294 C  
BRANCH   7   8
HETATM    8  S   UNL     1      -8.860  16.328  68.845  1.00  0.00    -0.250 SA 
BRANCH   8   9
HETATM    9  P   UNL     1      -8.391  18.168  67.900  1.00  0.00    -0.260 P  
HETATM   10  S   UNL     1      -9.916  19.155  68.808  1.00  0.00    -0.392 S  
BRANCH   9  11
HETATM   11  O   UNL     1      -6.962  18.320  68.727  1.00  0.00    -0.254 OA 
HETATM   12  C   UNL     1      -6.349  17.233  69.407  1.00  0.00    -0.244 C  
ENDBRANCH   9  11
BRANCH   9  13
HETATM   13  O   UNL     1      -8.010  19.669  67.129  1.00  0.00    -0.260 OA 
HETATM   14  C   UNL     1      -7.125  19.576  66.031  1.00  0.00    -0.279 C  
ENDBRANCH   9  13
ENDBRANCH   8   9
ENDBRANCH   7   8
BRANCH   7  15
HETATM   15  C   UNL     1     -11.030  15.572  67.429  1.00  0.00    -0.306 C  
HETATM   16  O   UNL     1     -10.690  16.086  66.372  1.00  0.00    -0.301 OA 
BRANCH  15  17
HETATM   17  O   UNL     1     -11.853  14.491  67.546  1.00  0.00    -0.378 OA 
BRANCH  17  18
HETATM   18  C   UNL     1     -12.352  13.974  66.306  1.00  0.00    -0.448 C  
HETATM   19  C   UNL     1     -11.858  12.547  66.163  1.00  0.00    -0.459 C  
ENDBRANCH  17  18
ENDBRANCH  15  17
ENDBRANCH   7  15
ENDBRANCH   6   7
ENDBRANCH   4   6
ENDBRANCH   3   4
ENDBRANCH   2   3
TORSDOF 11
ENDMDL
MODEL       50
REMARK 921   NORMALIZED FREE ENERGY PREDICTED BY IDOCK:   -4.16 KCAL/MOL
REMARK 922        TOTAL FREE ENERGY PREDICTED BY IDOCK:   -7.53 KCAL/MOL
REMARK 923 INTER-LIGAND FREE ENERGY PREDICTED BY IDOCK:   -6.83 KCAL/MOL
REMARK 924 INTRA-LIGAND FREE ENERGY PREDICTED BY IDOCK:   -0.70 KCAL/MOL
REMARK 927      BINDING AFFINITY PREDICTED BY RF-SCORE:    0.00 PKD
ROOT
HETATM    1  C   UNL     1     -12.152  12.294  63.337  1.00  0.00    -0.615 C  
HETATM    2  C   UNL     1     -12.350  13.233  64.514  1.00  0.00    -0.368 C  
ENDROOT
BRANCH   2   3
HETATM    3  O   UNL     1     -12.473  12.428  65.692  1.00  0.00    -0.640 OA 
BRANCH   3   4
HETATM    4  C   UNL     1     -11.340  12.257  66.417  1.00  0.00    -0.354 C  
HETATM    5  O   UNL     1     -10.197  12.474  66.034  1.00  0.00    -0.242 OA 
BRANCH   4   6
HETATM    6  C   UNL     1     -11.693  11.947  67.843  1.00  0.00    -0.368 C  
BRANCH   6   7
HETATM    7  C   UNL     1     -11.336  13.105  68.764  1.00  0.00    -0.291 C  
BRANCH   7   8
HETATM    8  S   UNL     1     -11.884  14.743  68.122  1.00  0.00    -0.237 SA 
BRANCH   8   9
HETATM    9  P   UNL     1     -10.320  16.135  68.451  1.00  0.00    -0.286 P  
HETATM   10  S   UNL     1      -8.893  14.691  68.518  1.00  0.00    -0.184 S  
BRANCH   9  11
HETATM   11  O   UNL     1     -10.479  16.793  66.937  1.00  0.00    -0.306 OA 
HETATM   12  C   UNL     1     -10.319  16.030  65.748  1.00  0.00    -0.378 C  
ENDBRANCH   9  11
BRANCH   9  13
HETATM   13  O   UNL     1      -9.043  17.271  68.720  1.00  0.00    -0.270 OA 
HETATM   14  C   UNL     1      -9.262  18.563  68.191  1.00  0.00    -0.309 C  
ENDBRANCH   9  13
ENDBRANCH   8   9
ENDBRANCH   7   8
BRANCH   7  15
HETATM   15  C   UNL     1     -12.045  12.910  70.097  1.00  0.00    -0.302 C  
HETATM   16  O   UNL     1     -12.132  11.844  70.692  1.00  0.00    -0.373 OA 
BRANCH  15  17
HETATM   17  O   UNL     1     -12.654  14.069  70.476  1.00  0.00    -0.335 OA 
BRANCH  17  18
HETATM   18  C   UNL     1     -13.556  13.946  71.583  1.00  0.00    -0.336 C  
HETATM   19  C   UNL     1     -13.929  15.345  72.038  1.00  0.00    -0.640 C  
ENDBRANCH  17  18
ENDBRANCH  15  17
ENDBRANCH   7  15
ENDBRANCH   6   7
ENDBRANCH   4   6
ENDBRANCH   3   4
ENDBRANCH   2   3
TORSDOF 11
ENDMDL
MODEL       51
REMARK 921   NORMALIZED FREE ENERGY PREDICTED BY IDOCK:   -4.14 KCAL/MOL
REMARK 922        TOTAL FREE ENERGY PREDICTED BY IDOCK:   -7.50 KCAL/MOL
REMARK 923 INTER-LIGAND FREE ENERGY PREDICTED BY IDOCK:   -6.84 KCAL/MOL
REMARK 924 INTRA-LIGAND FREE ENERGY PREDICTED BY IDOCK:   -0.66 KCAL/MOL
REMARK 927      BINDING AFFINITY PREDICTED BY RF-SCORE:    0.00 PKD
ROOT
HETATM    1  C   UNL     1     -10.103  20.152  66.759  1.00  0.00    -0.591 C  
HETATM    2  C   UNL     1     -10.705  19.203  65.737  1.00  0.00    -0.307 C  
ENDROOT
BRANCH   2   3
HETATM    3  O   UNL     1     -10.036  17.944  65.871  1.00  0.00    -0.533 OA 
BRANCH   3   4
HETATM    4  C   UNL     1     -10.648  16.880  65.294  1.00  0.00    -0.120 C  
HETATM    5  O   UNL     1     -11.268  16.888  64.238  1.00  0.00    -1.204 OA 
BRANCH   4   6
HETATM    6  C   UNL     1     -10.290  15.626  66.039  1.00  0.00    -0.351 C  
BRANCH   6   7
HETATM    7  C   UNL     1     -10.742  15.699  67.491  1.00  0.00    -0.303 C  
BRANCH   7   8
HETATM    8  S   UNL     1     -11.890  14.339  67.966  1.00  0.00    -0.322 SA 
BRANCH   8   9
HETATM    9  P   UNL     1     -11.059  12.510  67.290  1.00  0.00    -0.310 P  
HETATM   10  S   UNL     1     -11.430  11.559  69.045  1.00  0.00    -0.322 S  
BRANCH   9  11
HETATM   11  O   UNL     1     -12.269  12.278  66.180  1.00  0.00    -0.647 OA 
HETATM   12  C   UNL     1     -12.252  12.877  64.891  1.00  0.00    -0.453 C  
ENDBRANCH   9  11
BRANCH   9  13
HETATM   13  O   UNL     1     -10.380  11.018  66.739  1.00  0.00    -0.220 OA 
HETATM   14  C   UNL     1     -10.678   9.888  67.535  1.00  0.00    -0.272 C  
ENDBRANCH   9  13
ENDBRANCH   8   9
ENDBRANCH   7   8
BRANCH   7  15
HETATM   15  C   UNL     1      -9.521  15.562  68.391  1.00  0.00    -0.196 C  
HETATM   16  O   UNL     1      -9.563  15.377  69.600  1.00  0.00    -0.262 OA 
BRANCH  15  17
HETATM   17  O   UNL     1      -8.384  15.778  67.671  1.00  0.00    -0.150 OA 
BRANCH  17  18
HETATM   18  C   UNL     1      -7.165  15.472  68.360  1.00  0.00    -0.114 C  
HETATM   19  C   UNL     1      -6.459  16.781  68.662  1.00  0.00    -0.165 C  
ENDBRANCH  17  18
ENDBRANCH  15  17
ENDBRANCH   7  15
ENDBRANCH   6   7
ENDBRANCH   4   6
ENDBRANCH   3   4
ENDBRANCH   2   3
TORSDOF 11
ENDMDL
MODEL       52
REMARK 921   NORMALIZED FREE ENERGY PREDICTED BY IDOCK:   -4.12 KCAL/MOL
REMARK 922        TOTAL FREE ENERGY PREDICTED BY IDOCK:   -7.47 KCAL/MOL
REMARK 923 INTER-LIGAND FREE ENERGY PREDICTED BY IDOCK:   -6.62 KCAL/MOL
REMARK 924 INTRA-LIGAND FREE ENERGY PREDICTED BY IDOCK:   -0.85 KCAL/MOL
REMARK 927      BINDING AFFINITY PREDICTED BY RF-SCORE:    0.00 PKD
ROOT
HETATM    1  C   UNL     1     -10.837   9.275  67.235  1.00  0.00    -0.140 C  
HETATM    2  C   UNL     1     -11.110  10.344  68.279  1.00  0.00    -0.281 C  
ENDROOT
BRANCH   2   3
HETATM    3  O   UNL     1     -11.957  11.329  67.676  1.00  0.00    -0.634 OA 
BRANCH   3   4
HETATM    4  C   UNL     1     -11.354  12.485  67.301  1.00  0.00    -0.315 C  
HETATM    5  O   UNL     1     -10.522  12.610  66.411  1.00  0.00    -0.244 OA 
BRANCH   4   6
HETATM    6  C   UNL     1     -11.997  13.643  68.007  1.00  0.00    -0.385 C  
BRANCH   6   7
HETATM    7  C   UNL     1     -11.204  14.047  69.242  1.00  0.00    -0.261 C  
BRANCH   7   8
HETATM    8  S   UNL     1     -10.629  15.797  69.199  1.00  0.00    -0.263 SA 
BRANCH   8   9
HETATM    9  P   UNL     1     -10.480  16.389  67.169  1.00  0.00    -0.233 P  
HETATM   10  S   UNL     1     -10.261  18.353  67.638  1.00  0.00    -0.398 S  
BRANCH   9  11
HETATM   11  O   UNL     1      -9.022  15.624  66.969  1.00  0.00    -0.198 OA 
HETATM   12  C   UNL     1      -7.876  16.280  66.445  1.00  0.00    -0.214 C  
ENDBRANCH   9  11
BRANCH   9  13
HETATM   13  O   UNL     1     -10.358  16.874  65.512  1.00  0.00    -0.572 OA 
HETATM   14  C   UNL     1     -11.198  16.175  64.615  1.00  0.00    -0.298 C  
ENDBRANCH   9  13
ENDBRANCH   8   9
ENDBRANCH   7   8
BRANCH   7  15
HETATM   15  C   UNL     1     -12.102  13.922  70.465  1.00  0.00    -0.356 C  
HETATM   16  O   UNL     1     -12.391  12.867  71.014  1.00  0.00    -0.351 OA 
BRANCH  15  17
HETATM   17  O   UNL     1     -12.616  15.142  70.792  1.00  0.00    -0.337 OA 
BRANCH  17  18
HETATM   18  C   UNL     1     -13.854  15.103  71.512  1.00  0.00    -0.508 C  
HETATM   19  C   UNL     1     -13.575  15.529  72.942  1.00  0.00    -0.633 C  
ENDBRANCH  17  18
ENDBRANCH  15  17
ENDBRANCH   7  15
ENDBRANCH   6   7
ENDBRANCH   4   6
ENDBRANCH   3   4
ENDBRANCH   2   3
TORSDOF 11
ENDMDL
MODEL       53
REMARK 921   NORMALIZED FREE ENERGY PREDICTED BY IDOCK:   -4.12 KCAL/MOL
REMARK 922        TOTAL FREE ENERGY PREDICTED BY IDOCK:   -7.46 KCAL/MOL
REMARK 923 INTER-LIGAND FREE ENERGY PREDICTED BY IDOCK:   -6.71 KCAL/MOL
REMARK 924 INTRA-LIGAND FREE ENERGY PREDICTED BY IDOCK:   -0.75 KCAL/MOL
REMARK 927      BINDING AFFINITY PREDICTED BY RF-SCORE:    0.00 PKD
ROOT
HETATM    1  C   UNL     1     -13.786  15.680  72.804  1.00  0.00    -0.662 C  
HETATM    2  C   UNL     1     -14.065  15.208  71.387  1.00  0.00    -0.504 C  
ENDROOT
BRANCH   2   3
HETATM    3  O   UNL     1     -12.908  15.507  70.597  1.00  0.00    -0.458 OA 
BRANCH   3   4
HETATM    4  C   UNL     1     -12.048  14.479  70.388  1.00  0.00    -0.322 C  
HETATM    5  O   UNL     1     -12.190  13.327  70.781  1.00  0.00    -0.358 OA 
BRANCH   4   6
HETATM    6  C   UNL     1     -10.976  14.903  69.427  1.00  0.00    -0.284 C  
BRANCH   6   7
HETATM    7  C   UNL     1     -11.573  15.376  68.109  1.00  0.00    -0.319 C  
BRANCH   7   8
HETATM    8  S   UNL     1     -10.794  16.917  67.467  1.00  0.00    -0.133 SA 
BRANCH   8   9
HETATM    9  P   UNL     1      -8.873  17.096  68.344  1.00  0.00    -0.261 P  
HETATM   10  S   UNL     1      -7.913  16.662  66.607  1.00  0.00    -0.309 S  
BRANCH   9  11
HETATM   11  O   UNL     1      -9.044  18.729  68.578  1.00  0.00    -0.324 OA 
HETATM   12  C   UNL     1     -10.218  19.438  68.207  1.00  0.00    -0.433 C  
ENDBRANCH   9  11
BRANCH   9  13
HETATM   13  O   UNL     1      -7.304  17.242  69.059  1.00  0.00    -0.245 OA 
HETATM   14  C   UNL     1      -6.662  18.485  68.859  1.00  0.00    -0.268 C  
ENDBRANCH   9  13
ENDBRANCH   8   9
ENDBRANCH   7   8
BRANCH   7  15
HETATM   15  C   UNL     1     -11.337  14.305  67.051  1.00  0.00    -0.341 C  
HETATM   16  O   UNL     1     -10.875  13.195  67.274  1.00  0.00    -0.252 OA 
BRANCH  15  17
HETATM   17  O   UNL     1     -11.618  14.803  65.813  1.00  0.00    -0.347 OA 
BRANCH  17  18
HETATM   18  C   UNL     1     -11.002  14.103  64.726  1.00  0.00    -0.400 C  
HETATM   19  C   UNL     1     -12.106  13.530  63.857  1.00  0.00    -0.493 C  
ENDBRANCH  17  18
ENDBRANCH  15  17
ENDBRANCH   7  15
ENDBRANCH   6   7
ENDBRANCH   4   6
ENDBRANCH   3   4
ENDBRANCH   2   3
TORSDOF 11
ENDMDL
MODEL       54
REMARK 921   NORMALIZED FREE ENERGY PREDICTED BY IDOCK:   -4.11 KCAL/MOL
REMARK 922        TOTAL FREE ENERGY PREDICTED BY IDOCK:   -7.44 KCAL/MOL
REMARK 923 INTER-LIGAND FREE ENERGY PREDICTED BY IDOCK:   -6.57 KCAL/MOL
REMARK 924 INTRA-LIGAND FREE ENERGY PREDICTED BY IDOCK:   -0.87 KCAL/MOL
REMARK 927      BINDING AFFINITY PREDICTED BY RF-SCORE:    0.00 PKD
ROOT
HETATM    1  C   UNL     1     -11.731  10.092  70.975  1.00  0.00    -0.479 C  
HETATM    2  C   UNL     1     -12.756  11.189  71.208  1.00  0.00    -0.426 C  
ENDROOT
BRANCH   2   3
HETATM    3  O   UNL     1     -12.202  12.410  70.702  1.00  0.00    -0.368 OA 
BRANCH   3   4
HETATM    4  C   UNL     1     -12.723  13.554  71.210  1.00  0.00    -0.348 C  
HETATM    5  O   UNL     1     -13.126  13.719  72.355  1.00  0.00    -0.415 OA 
BRANCH   4   6
HETATM    6  C   UNL     1     -12.554  14.670  70.220  1.00  0.00    -0.370 C  
BRANCH   6   7
HETATM    7  C   UNL     1     -11.401  14.391  69.266  1.00  0.00    -0.284 C  
BRANCH   7   8
HETATM    8  S   UNL     1     -11.897  14.430  67.492  1.00  0.00    -0.360 SA 
BRANCH   8   9
HETATM    9  P   UNL     1     -11.096  12.710  66.547  1.00  0.00    -0.312 P  
HETATM   10  S   UNL     1     -12.496  12.724  65.076  1.00  0.00    -0.453 S  
BRANCH   9  11
HETATM   11  O   UNL     1      -9.708  13.502  66.104  1.00  0.00    -0.284 OA 
HETATM   12  C   UNL     1      -9.686  14.883  65.771  1.00  0.00    -0.324 C  
ENDBRANCH   9  11
BRANCH   9  13
HETATM   13  O   UNL     1     -10.443  11.306  65.776  1.00  0.00    -0.246 OA 
HETATM   14  C   UNL     1     -10.456  11.331  64.362  1.00  0.00    -0.345 C  
ENDBRANCH   9  13
ENDBRANCH   8   9
ENDBRANCH   7   8
BRANCH   7  15
HETATM   15  C   UNL     1     -10.347  15.476  69.439  1.00  0.00    -0.258 C  
HETATM   16  O   UNL     1      -9.174  15.271  69.720  1.00  0.00    -0.211 OA 
BRANCH  15  17
HETATM   17  O   UNL     1     -10.925  16.707  69.337  1.00  0.00    -0.301 OA 
BRANCH  17  18
HETATM   18  C   UNL     1     -10.083  17.726  68.784  1.00  0.00    -0.381 C  
HETATM   19  C   UNL     1     -10.659  18.127  67.439  1.00  0.00    -0.406 C  
ENDBRANCH  17  18
ENDBRANCH  15  17
ENDBRANCH   7  15
ENDBRANCH   6   7
ENDBRANCH   4   6
ENDBRANCH   3   4
ENDBRANCH   2   3
TORSDOF 11
ENDMDL
MODEL       55
REMARK 921   NORMALIZED FREE ENERGY PREDICTED BY IDOCK:   -4.10 KCAL/MOL
REMARK 922        TOTAL FREE ENERGY PREDICTED BY IDOCK:   -7.43 KCAL/MOL
REMARK 923 INTER-LIGAND FREE ENERGY PREDICTED BY IDOCK:   -6.65 KCAL/MOL
REMARK 924 INTRA-LIGAND FREE ENERGY PREDICTED BY IDOCK:   -0.78 KCAL/MOL
REMARK 927      BINDING AFFINITY PREDICTED BY RF-SCORE:    0.00 PKD
ROOT
HETATM    1  C   UNL     1     -13.162   7.877  71.721  1.00  0.00    -0.360 C  
HETATM    2  C   UNL     1     -13.381   9.378  71.647  1.00  0.00    -0.404 C  
ENDROOT
BRANCH   2   3
HETATM    3  O   UNL     1     -12.098  10.006  71.752  1.00  0.00    -0.373 OA 
BRANCH   3   4
HETATM    4  C   UNL     1     -11.667  10.667  70.649  1.00  0.00    -0.356 C  
HETATM    5  O   UNL     1     -10.711  10.357  69.948  1.00  0.00    -0.267 OA 
BRANCH   4   6
HETATM    6  C   UNL     1     -12.654  11.737  70.282  1.00  0.00    -0.131 C  
BRANCH   6   7
HETATM    7  C   UNL     1     -12.164  13.111  70.717  1.00  0.00    -0.290 C  
BRANCH   7   8
HETATM    8  S   UNL     1     -12.127  14.340  69.345  1.00  0.00    -0.289 SA 
BRANCH   8   9
HETATM    9  P   UNL     1     -10.684  13.701  67.929  1.00  0.00    -0.258 P  
HETATM   10  S   UNL     1     -12.021  13.687  66.400  1.00  0.00    -0.436 S  
BRANCH   9  11
HETATM   11  O   UNL     1      -9.846  15.129  68.019  1.00  0.00    -0.211 OA 
HETATM   12  C   UNL     1     -10.043  16.070  69.066  1.00  0.00    -0.239 C  
ENDBRANCH   9  11
BRANCH   9  13
HETATM   13  O   UNL     1      -9.507  13.179  66.774  1.00  0.00    -0.239 OA 
HETATM   14  C   UNL     1      -9.155  11.811  66.845  1.00  0.00    -0.192 C  
ENDBRANCH   9  13
ENDBRANCH   8   9
ENDBRANCH   7   8
BRANCH   7  15
HETATM   15  C   UNL     1     -13.123  13.667  71.762  1.00  0.00    -0.382 C  
HETATM   16  O   UNL     1     -13.946  13.002  72.376  1.00  0.00    -0.552 OA 
BRANCH  15  17
HETATM   17  O   UNL     1     -12.999  15.023  71.835  1.00  0.00    -0.309 OA 
BRANCH  17  18
HETATM   18  C   UNL     1     -13.447  15.606  73.064  1.00  0.00    -0.562 C  
HETATM   19  C   UNL     1     -12.355  15.407  74.099  1.00  0.00    -0.800 C  
ENDBRANCH  17  18
ENDBRANCH  15  17
ENDBRANCH   7  15
ENDBRANCH   6   7
ENDBRANCH   4   6
ENDBRANCH   3   4
ENDBRANCH   2   3
TORSDOF 11
ENDMDL
MODEL       56
REMARK 921   NORMALIZED FREE ENERGY PREDICTED BY IDOCK:   -4.04 KCAL/MOL
REMARK 922        TOTAL FREE ENERGY PREDICTED BY IDOCK:   -7.34 KCAL/MOL
REMARK 923 INTER-LIGAND FREE ENERGY PREDICTED BY IDOCK:   -6.64 KCAL/MOL
REMARK 924 INTRA-LIGAND FREE ENERGY PREDICTED BY IDOCK:   -0.69 KCAL/MOL
REMARK 927      BINDING AFFINITY PREDICTED BY RF-SCORE:    0.00 PKD
ROOT
HETATM    1  C   UNL     1     -13.576   8.941  72.209  1.00  0.00    -0.513 C  
HETATM    2  C   UNL     1     -12.850  10.235  71.885  1.00  0.00    -0.426 C  
ENDROOT
BRANCH   2   3
HETATM    3  O   UNL     1     -12.865  10.393  70.462  1.00  0.00    -0.341 OA 
BRANCH   3   4
HETATM    4  C   UNL     1     -11.735  10.898  69.907  1.00  0.00    -0.339 C  
HETATM    5  O   UNL     1     -10.622  10.386  69.942  1.00  0.00    -0.263 OA 
BRANCH   4   6
HETATM    6  C   UNL     1     -12.075  12.090  69.060  1.00  0.00    -0.223 C  
BRANCH   6   7
HETATM    7  C   UNL     1     -11.061  13.209  69.251  1.00  0.00    -0.145 C  
BRANCH   7   8
HETATM    8  S   UNL     1     -10.172  13.658  67.701  1.00  0.00    -0.242 SA 
BRANCH   8   9
HETATM    9  P   UNL     1     -11.314  12.953  66.060  1.00  0.00    -0.352 P  
HETATM   10  S   UNL     1     -11.096  14.682  65.017  1.00  0.00    -0.412 S  
BRANCH   9  11
HETATM   11  O   UNL     1     -10.173  11.822  65.650  1.00  0.00    -0.228 OA 
HETATM   12  C   UNL     1      -9.136  11.421  66.535  1.00  0.00    -0.186 C  
ENDBRANCH   9  11
BRANCH   9  13
HETATM   13  O   UNL     1     -12.246  12.378  64.721  1.00  0.00    -0.429 OA 
HETATM   14  C   UNL     1     -11.866  12.886  63.458  1.00  0.00    -0.536 C  
ENDBRANCH   9  13
ENDBRANCH   8   9
ENDBRANCH   7   8
BRANCH   7  15
HETATM   15  C   UNL     1     -11.795  14.465  69.702  1.00  0.00    -0.321 C  
HETATM   16  O   UNL     1     -11.908  15.485  69.035  1.00  0.00    -0.361 OA 
BRANCH  15  17
HETATM   17  O   UNL     1     -12.215  14.321  70.991  1.00  0.00    -0.321 OA 
BRANCH  17  18
HETATM   18  C   UNL     1     -12.685  15.524  71.611  1.00  0.00    -0.434 C  
HETATM   19  C   UNL     1     -12.449  15.401  73.105  1.00  0.00    -0.572 C  
ENDBRANCH  17  18
ENDBRANCH  15  17
ENDBRANCH   7  15
ENDBRANCH   6   7
ENDBRANCH   4   6
ENDBRANCH   3   4
ENDBRANCH   2   3
TORSDOF 11
ENDMDL
MODEL       57
REMARK 921   NORMALIZED FREE ENERGY PREDICTED BY IDOCK:   -4.04 KCAL/MOL
REMARK 922        TOTAL FREE ENERGY PREDICTED BY IDOCK:   -7.33 KCAL/MOL
REMARK 923 INTER-LIGAND FREE ENERGY PREDICTED BY IDOCK:   -6.66 KCAL/MOL
REMARK 924 INTRA-LIGAND FREE ENERGY PREDICTED BY IDOCK:   -0.67 KCAL/MOL
REMARK 927      BINDING AFFINITY PREDICTED BY RF-SCORE:    0.00 PKD
ROOT
HETATM    1  C   UNL     1     -11.315  14.746  65.740  1.00  0.00    -0.336 C  
HETATM    2  C   UNL     1     -12.310  13.742  66.296  1.00  0.00    -0.433 C  
ENDROOT
BRANCH   2   3
HETATM    3  O   UNL     1     -11.938  13.472  67.653  1.00  0.00    -0.354 OA 
BRANCH   3   4
HETATM    4  C   UNL     1     -11.706  12.171  67.958  1.00  0.00    -0.344 C  
HETATM    5  O   UNL     1     -11.670  11.238  67.165  1.00  0.00    -0.533 OA 
BRANCH   4   6
HETATM    6  C   UNL     1     -11.299  12.054  69.399  1.00  0.00    -0.317 C  
BRANCH   6   7
HETATM    7  C   UNL     1     -11.838  10.775  70.022  1.00  0.00    -0.344 C  
BRANCH   7   8
HETATM    8  S   UNL     1     -10.515   9.645  70.627  1.00  0.00    -0.300 SA 
BRANCH   8   9
HETATM    9  P   UNL     1     -10.900   7.709  69.853  1.00  0.00    -0.151 P  
HETATM   10  S   UNL     1      -9.144   6.957  70.544  1.00  0.00    -0.155 S  
BRANCH   9  11
HETATM   11  O   UNL     1     -12.153   7.450  70.907  1.00  0.00    -0.307 OA 
HETATM   12  C   UNL     1     -11.997   6.731  72.124  1.00  0.00    -0.273 C  
ENDBRANCH   9  11
BRANCH   9  13
HETATM   13  O   UNL     1     -11.213   6.129  69.221  1.00  0.00    -0.387 OA 
HETATM   14  C   UNL     1     -10.392   5.737  68.139  1.00  0.00    -0.212 C  
ENDBRANCH   9  13
ENDBRANCH   8   9
ENDBRANCH   7   8
BRANCH   7  15
HETATM   15  C   UNL     1     -12.678  11.138  71.239  1.00  0.00    -0.426 C  
HETATM   16  O   UNL     1     -13.287  10.335  71.933  1.00  0.00    -0.415 OA 
BRANCH  15  17
HETATM   17  O   UNL     1     -12.736  12.494  71.378  1.00  0.00    -0.348 OA 
BRANCH  17  18
HETATM   18  C   UNL     1     -13.676  12.963  72.352  1.00  0.00    -0.431 C  
HETATM   19  C   UNL     1     -14.098  14.365  71.954  1.00  0.00    -0.596 C  
ENDBRANCH  17  18
ENDBRANCH  15  17
ENDBRANCH   7  15
ENDBRANCH   6   7
ENDBRANCH   4   6
ENDBRANCH   3   4
ENDBRANCH   2   3
TORSDOF 11
ENDMDL
MODEL       58
REMARK 921   NORMALIZED FREE ENERGY PREDICTED BY IDOCK:   -4.02 KCAL/MOL
REMARK 922        TOTAL FREE ENERGY PREDICTED BY IDOCK:   -7.31 KCAL/MOL
REMARK 923 INTER-LIGAND FREE ENERGY PREDICTED BY IDOCK:   -6.76 KCAL/MOL
REMARK 924 INTRA-LIGAND FREE ENERGY PREDICTED BY IDOCK:   -0.55 KCAL/MOL
REMARK 927      BINDING AFFINITY PREDICTED BY RF-SCORE:    0.00 PKD
ROOT
HETATM    1  C   UNL     1     -11.523   9.287  71.450  1.00  0.00    -0.439 C  
HETATM    2  C   UNL     1     -11.074   9.277  70.000  1.00  0.00    -0.205 C  
ENDROOT
BRANCH   2   3
HETATM    3  O   UNL     1     -10.582  10.587  69.692  1.00  0.00    -0.236 OA 
BRANCH   3   4
HETATM    4  C   UNL     1     -11.485  11.455  69.173  1.00  0.00    -0.299 C  
HETATM    5  O   UNL     1     -12.141  12.277  69.801  1.00  0.00    -0.287 OA 
BRANCH   4   6
HETATM    6  C   UNL     1     -11.429  11.406  67.673  1.00  0.00    -0.348 C  
BRANCH   6   7
HETATM    7  C   UNL     1     -11.657  12.784  67.068  1.00  0.00    -0.360 C  
BRANCH   7   8
HETATM    8  S   UNL     1     -10.196  13.895  67.214  1.00  0.00    -0.250 SA 
BRANCH   8   9
HETATM    9  P   UNL     1     -10.550  15.241  68.813  1.00  0.00    -0.263 P  
HETATM   10  S   UNL     1      -8.572  15.470  69.213  1.00  0.00    -0.262 S  
BRANCH   9  11
HETATM   11  O   UNL     1     -11.129  16.419  67.800  1.00  0.00    -0.297 OA 
HETATM   12  C   UNL     1     -10.311  17.468  67.298  1.00  0.00    -0.337 C  
ENDBRANCH   9  11
BRANCH   9  13
HETATM   13  O   UNL     1     -10.839  16.338  70.119  1.00  0.00    -0.334 OA 
HETATM   14  C   UNL     1     -11.741  15.879  71.106  1.00  0.00    -0.442 C  
ENDBRANCH   9  13
ENDBRANCH   8   9
ENDBRANCH   7   8
BRANCH   7  15
HETATM   15  C   UNL     1     -11.927  12.627  65.577  1.00  0.00    -0.456 C  
HETATM   16  O   UNL     1     -13.035  12.670  65.060  1.00  0.00    -0.812 OA 
BRANCH  15  17
HETATM   17  O   UNL     1     -10.768  12.328  64.923  1.00  0.00    -0.277 OA 
BRANCH  17  18
HETATM   18  C   UNL     1     -10.906  12.124  63.511  1.00  0.00    -0.458 C  
HETATM   19  C   UNL     1      -9.680  11.371  63.028  1.00  0.00    -0.393 C  
ENDBRANCH  17  18
ENDBRANCH  15  17
ENDBRANCH   7  15
ENDBRANCH   6   7
ENDBRANCH   4   6
ENDBRANCH   3   4
ENDBRANCH   2   3
TORSDOF 11
ENDMDL
MODEL       59
REMARK 921   NORMALIZED FREE ENERGY PREDICTED BY IDOCK:   -4.02 KCAL/MOL
REMARK 922        TOTAL FREE ENERGY PREDICTED BY IDOCK:   -7.30 KCAL/MOL
REMARK 923 INTER-LIGAND FREE ENERGY PREDICTED BY IDOCK:   -6.62 KCAL/MOL
REMARK 924 INTRA-LIGAND FREE ENERGY PREDICTED BY IDOCK:   -0.68 KCAL/MOL
REMARK 927      BINDING AFFINITY PREDICTED BY RF-SCORE:    0.00 PKD
ROOT
HETATM    1  C   UNL     1     -13.257   9.225  72.343  1.00  0.00    -0.501 C  
HETATM    2  C   UNL     1     -12.973  10.365  71.381  1.00  0.00    -0.443 C  
ENDROOT
BRANCH   2   3
HETATM    3  O   UNL     1     -11.694  10.118  70.785  1.00  0.00    -0.302 OA 
BRANCH   3   4
HETATM    4  C   UNL     1     -11.353  10.927  69.751  1.00  0.00    -0.301 C  
HETATM    5  O   UNL     1     -10.647  10.622  68.798  1.00  0.00    -0.182 OA 
BRANCH   4   6
HETATM    6  C   UNL     1     -12.129  12.209  69.835  1.00  0.00    -0.324 C  
BRANCH   6   7
HETATM    7  C   UNL     1     -11.385  13.350  69.154  1.00  0.00    -0.280 C  
BRANCH   7   8
HETATM    8  S   UNL     1     -11.932  13.644  67.420  1.00  0.00    -0.347 SA 
BRANCH   8   9
HETATM    9  P   UNL     1     -10.778  15.237  66.629  1.00  0.00    -0.294 P  
HETATM   10  S   UNL     1      -9.014  14.326  67.058  1.00  0.00    -0.231 S  
BRANCH   9  11
HETATM   11  O   UNL     1     -11.281  14.937  65.077  1.00  0.00    -0.365 OA 
HETATM   12  C   UNL     1     -12.234  13.931  64.761  1.00  0.00    -0.415 C  
ENDBRANCH   9  11
BRANCH   9  13
HETATM   13  O   UNL     1      -9.836  16.537  65.984  1.00  0.00    -0.309 OA 
HETATM   14  C   UNL     1     -10.397  17.825  66.140  1.00  0.00    -0.340 C  
ENDBRANCH   9  13
ENDBRANCH   8   9
ENDBRANCH   7   8
BRANCH   7  15
HETATM   15  C   UNL     1     -11.664  14.640  69.915  1.00  0.00    -0.299 C  
HETATM   16  O   UNL     1     -10.822  15.485  70.186  1.00  0.00    -0.286 OA 
BRANCH  15  17
HETATM   17  O   UNL     1     -12.961  14.662  70.335  1.00  0.00    -0.323 OA 
BRANCH  17  18
HETATM   18  C   UNL     1     -13.204  15.456  71.503  1.00  0.00    -0.490 C  
HETATM   19  C   UNL     1     -13.380  14.513  72.679  1.00  0.00    -0.588 C  
ENDBRANCH  17  18
ENDBRANCH  15  17
ENDBRANCH   7  15
ENDBRANCH   6   7
ENDBRANCH   4   6
ENDBRANCH   3   4
ENDBRANCH   2   3
TORSDOF 11
ENDMDL
MODEL       60
REMARK 921   NORMALIZED FREE ENERGY PREDICTED BY IDOCK:   -4.01 KCAL/MOL
REMARK 922        TOTAL FREE ENERGY PREDICTED BY IDOCK:   -7.28 KCAL/MOL
REMARK 923 INTER-LIGAND FREE ENERGY PREDICTED BY IDOCK:   -7.26 KCAL/MOL
REMARK 924 INTRA-LIGAND FREE ENERGY PREDICTED BY IDOCK:   -0.03 KCAL/MOL
REMARK 927      BINDING AFFINITY PREDICTED BY RF-SCORE:    0.00 PKD
ROOT
HETATM    1  C   UNL     1     -10.167  20.000  67.606  1.00  0.00    -0.548 C  
HETATM    2  C   UNL     1      -9.980  18.533  67.260  1.00  0.00    -0.330 C  
ENDROOT
BRANCH   2   3
HETATM    3  O   UNL     1     -10.135  18.401  65.842  1.00  0.00    -0.540 OA 
BRANCH   3   4
HETATM    4  C   UNL     1     -10.777  17.285  65.415  1.00  0.00    -0.066 C  
HETATM    5  O   UNL     1     -11.273  17.117  64.307  1.00  0.00    -1.126 OA 
BRANCH   4   6
HETATM    6  C   UNL     1     -10.625  16.193  66.433  1.00  0.00    -0.269 C  
BRANCH   6   7
HETATM    7  C   UNL     1     -10.864  14.823  65.812  1.00  0.00    -0.331 C  
BRANCH   7   8
HETATM    8  S   UNL     1      -9.570  13.588  66.252  1.00  0.00    -0.187 SA 
BRANCH   8   9
HETATM    9  P   UNL     1     -10.536  11.894  67.083  1.00  0.00    -0.236 P  
HETATM   10  S   UNL     1      -9.925  10.666  65.584  1.00  0.00    -0.282 S  
BRANCH   9  11
HETATM   11  O   UNL     1      -9.513  11.851  68.387  1.00  0.00    -0.200 OA 
HETATM   12  C   UNL     1      -8.142  12.214  68.299  1.00  0.00    -0.166 C  
ENDBRANCH   9  11
BRANCH   9  13
HETATM   13  O   UNL     1     -11.324  10.510  67.760  1.00  0.00    -0.367 OA 
HETATM   14  C   UNL     1     -10.552   9.326  67.784  1.00  0.00    -0.246 C  
ENDBRANCH   9  13
ENDBRANCH   8   9
ENDBRANCH   7   8
BRANCH   7  15
HETATM   15  C   UNL     1     -12.181  14.269  66.338  1.00  0.00    -0.401 C  
HETATM   16  O   UNL     1     -12.463  14.144  67.522  1.00  0.00    -0.174 OA 
BRANCH  15  17
HETATM   17  O   UNL     1     -12.953  13.837  65.299  1.00  0.00    -0.731 OA 
BRANCH  17  18
HETATM   18  C   UNL     1     -12.259  13.678  64.056  1.00  0.00    -0.390 C  
HETATM   19  C   UNL     1     -12.402  12.230  63.626  1.00  0.00    -0.664 C  
ENDBRANCH  17  18
ENDBRANCH  15  17
ENDBRANCH   7  15
ENDBRANCH   6   7
ENDBRANCH   4   6
ENDBRANCH   3   4
ENDBRANCH   2   3
TORSDOF 11
ENDMDL
MODEL       61
REMARK 921   NORMALIZED FREE ENERGY PREDICTED BY IDOCK:   -4.01 KCAL/MOL
REMARK 922        TOTAL FREE ENERGY PREDICTED BY IDOCK:   -7.28 KCAL/MOL
REMARK 923 INTER-LIGAND FREE ENERGY PREDICTED BY IDOCK:   -6.53 KCAL/MOL
REMARK 924 INTRA-LIGAND FREE ENERGY PREDICTED BY IDOCK:   -0.75 KCAL/MOL
REMARK 927      BINDING AFFINITY PREDICTED BY RF-SCORE:    0.00 PKD
ROOT
HETATM    1  C   UNL     1     -10.354  15.303  65.608  1.00  0.00    -0.389 C  
HETATM    2  C   UNL     1     -10.902  15.162  67.017  1.00  0.00    -0.314 C  
ENDROOT
BRANCH   2   3
HETATM    3  O   UNL     1     -12.106  14.391  66.936  1.00  0.00    -0.425 OA 
BRANCH   3   4
HETATM    4  C   UNL     1     -11.997  13.080  67.267  1.00  0.00    -0.321 C  
HETATM    5  O   UNL     1     -12.058  12.132  66.494  1.00  0.00    -0.627 OA 
BRANCH   4   6
HETATM    6  C   UNL     1     -11.588  12.954  68.706  1.00  0.00    -0.351 C  
BRANCH   6   7
HETATM    7  C   UNL     1     -11.808  11.538  69.220  1.00  0.00    -0.348 C  
BRANCH   7   8
HETATM    8  S   UNL     1     -10.261  10.541  69.291  1.00  0.00    -0.215 SA 
BRANCH   8   9
HETATM    9  P   UNL     1     -10.501   8.863  68.018  1.00  0.00    -0.129 P  
HETATM   10  S   UNL     1      -9.338   9.660  66.556  1.00  0.00    -0.176 S  
BRANCH   9  11
HETATM   11  O   UNL     1      -9.645   7.869  69.032  1.00  0.00    -0.154 OA 
HETATM   12  C   UNL     1      -8.974   8.349  70.190  1.00  0.00    -0.142 C  
ENDBRANCH   9  11
BRANCH   9  13
HETATM   13  O   UNL     1     -10.698   7.494  66.978  1.00  0.00    -0.346 OA 
HETATM   14  C   UNL     1     -10.978   6.273  67.633  1.00  0.00    -0.342 C  
ENDBRANCH   9  13
ENDBRANCH   8   9
ENDBRANCH   7   8
BRANCH   7  15
HETATM   15  C   UNL     1     -12.336  11.610  70.647  1.00  0.00    -0.344 C  
HETATM   16  O   UNL     1     -12.613  10.640  71.338  1.00  0.00    -0.369 OA 
BRANCH  15  17
HETATM   17  O   UNL     1     -12.550  12.910  71.000  1.00  0.00    -0.366 OA 
BRANCH  17  18
HETATM   18  C   UNL     1     -13.438  13.097  72.108  1.00  0.00    -0.560 C  
HETATM   19  C   UNL     1     -14.186  14.399  71.891  1.00  0.00    -0.610 C  
ENDBRANCH  17  18
ENDBRANCH  15  17
ENDBRANCH   7  15
ENDBRANCH   6   7
ENDBRANCH   4   6
ENDBRANCH   3   4
ENDBRANCH   2   3
TORSDOF 11
ENDMDL
MODEL       62
REMARK 921   NORMALIZED FREE ENERGY PREDICTED BY IDOCK:   -4.00 KCAL/MOL
REMARK 922        TOTAL FREE ENERGY PREDICTED BY IDOCK:   -7.26 KCAL/MOL
REMARK 923 INTER-LIGAND FREE ENERGY PREDICTED BY IDOCK:   -6.49 KCAL/MOL
REMARK 924 INTRA-LIGAND FREE ENERGY PREDICTED BY IDOCK:   -0.77 KCAL/MOL
REMARK 927      BINDING AFFINITY PREDICTED BY RF-SCORE:    0.00 PKD
ROOT
HETATM    1  C   UNL     1     -11.119  10.065  70.313  1.00  0.00    -0.381 C  
HETATM    2  C   UNL     1     -11.060  10.518  68.865  1.00  0.00    -0.261 C  
ENDROOT
BRANCH   2   3
HETATM    3  O   UNL     1     -10.014  11.491  68.760  1.00  0.00    -0.205 OA 
BRANCH   3   4
HETATM    4  C   UNL     1     -10.187  12.452  67.819  1.00  0.00    -0.211 C  
HETATM    5  O   UNL     1      -9.524  12.592  66.799  1.00  0.00    -0.224 OA 
BRANCH   4   6
HETATM    6  C   UNL     1     -11.447  13.217  68.103  1.00  0.00    -0.349 C  
BRANCH   6   7
HETATM    7  C   UNL     1     -11.179  14.399  69.024  1.00  0.00    -0.264 C  
BRANCH   7   8
HETATM    8  S   UNL     1     -11.625  16.022  68.277  1.00  0.00    -0.120 SA 
BRANCH   8   9
HETATM    9  P   UNL     1     -10.037  16.618  67.006  1.00  0.00    -0.292 P  
HETATM   10  S   UNL     1     -10.885  15.782  65.361  1.00  0.00    -0.339 S  
BRANCH   9  11
HETATM   11  O   UNL     1     -10.412  18.227  67.159  1.00  0.00    -0.379 OA 
HETATM   12  C   UNL     1     -10.295  19.147  66.082  1.00  0.00    -0.484 C  
ENDBRANCH   9  11
BRANCH   9  13
HETATM   13  O   UNL     1      -8.740  17.104  65.969  1.00  0.00    -0.484 OA 
HETATM   14  C   UNL     1      -7.442  16.806  66.443  1.00  0.00    -0.267 C  
ENDBRANCH   9  13
ENDBRANCH   8   9
ENDBRANCH   7   8
BRANCH   7  15
HETATM   15  C   UNL     1     -12.040  14.252  70.272  1.00  0.00    -0.335 C  
HETATM   16  O   UNL     1     -12.282  13.192  70.833  1.00  0.00    -0.358 OA 
BRANCH  15  17
HETATM   17  O   UNL     1     -12.583  15.457  70.608  1.00  0.00    -0.387 OA 
BRANCH  17  18
HETATM   18  C   UNL     1     -12.364  15.862  71.965  1.00  0.00    -0.475 C  
HETATM   19  C   UNL     1     -13.645  15.607  72.739  1.00  0.00    -0.678 C  
ENDBRANCH  17  18
ENDBRANCH  15  17
ENDBRANCH   7  15
ENDBRANCH   6   7
ENDBRANCH   4   6
ENDBRANCH   3   4
ENDBRANCH   2   3
TORSDOF 11
ENDMDL
MODEL       63
REMARK 921   NORMALIZED FREE ENERGY PREDICTED BY IDOCK:   -3.99 KCAL/MOL
REMARK 922        TOTAL FREE ENERGY PREDICTED BY IDOCK:   -7.26 KCAL/MOL
REMARK 923 INTER-LIGAND FREE ENERGY PREDICTED BY IDOCK:   -6.58 KCAL/MOL
REMARK 924 INTRA-LIGAND FREE ENERGY PREDICTED BY IDOCK:   -0.68 KCAL/MOL
REMARK 927      BINDING AFFINITY PREDICTED BY RF-SCORE:    0.00 PKD
ROOT
HETATM    1  C   UNL     1     -13.106  11.002  71.606  1.00  0.00    -0.543 C  
HETATM    2  C   UNL     1     -11.956  10.777  70.639  1.00  0.00    -0.367 C  
ENDROOT
BRANCH   2   3
HETATM    3  O   UNL     1     -11.925  11.891  69.740  1.00  0.00    -0.306 OA 
BRANCH   3   4
HETATM    4  C   UNL     1     -11.523  11.623  68.473  1.00  0.00    -0.298 C  
HETATM    5  O   UNL     1     -11.756  10.598  67.843  1.00  0.00    -0.506 OA 
BRANCH   4   6
HETATM    6  C   UNL     1     -10.909  12.851  67.866  1.00  0.00    -0.246 C  
BRANCH   6   7
HETATM    7  C   UNL     1     -11.978  13.828  67.399  1.00  0.00    -0.388 C  
BRANCH   7   8
HETATM    8  S   UNL     1     -11.531  15.591  67.688  1.00  0.00    -0.133 SA 
BRANCH   8   9
HETATM    9  P   UNL     1      -9.543  15.884  67.011  1.00  0.00    -0.237 P  
HETATM   10  S   UNL     1      -9.893  17.807  66.456  1.00  0.00    -0.336 S  
BRANCH   9  11
HETATM   11  O   UNL     1      -8.920  15.775  68.544  1.00  0.00    -0.180 OA 
HETATM   12  C   UNL     1      -7.829  14.925  68.870  1.00  0.00    -0.161 C  
ENDBRANCH   9  11
BRANCH   9  13
HETATM   13  O   UNL     1      -7.922  16.124  66.458  1.00  0.00    -0.261 OA 
HETATM   14  C   UNL     1      -7.511  17.473  66.357  1.00  0.00    -0.299 C  
ENDBRANCH   9  13
ENDBRANCH   8   9
ENDBRANCH   7   8
BRANCH   7  15
HETATM   15  C   UNL     1     -12.160  13.675  65.894  1.00  0.00    -0.439 C  
HETATM   16  O   UNL     1     -13.149  14.034  65.271  1.00  0.00    -0.782 OA 
BRANCH  15  17
HETATM   17  O   UNL     1     -11.107  12.988  65.365  1.00  0.00    -0.273 OA 
BRANCH  17  18
HETATM   18  C   UNL     1     -11.444  12.094  64.297  1.00  0.00    -0.367 C  
HETATM   19  C   UNL     1     -10.270  12.054  63.337  1.00  0.00    -0.457 C  
ENDBRANCH  17  18
ENDBRANCH  15  17
ENDBRANCH   7  15
ENDBRANCH   6   7
ENDBRANCH   4   6
ENDBRANCH   3   4
ENDBRANCH   2   3
TORSDOF 11
ENDMDL
MODEL       64
REMARK 921   NORMALIZED FREE ENERGY PREDICTED BY IDOCK:   -3.99 KCAL/MOL
REMARK 922        TOTAL FREE ENERGY PREDICTED BY IDOCK:   -7.26 KCAL/MOL
REMARK 923 INTER-LIGAND FREE ENERGY PREDICTED BY IDOCK:   -6.45 KCAL/MOL
REMARK 924 INTRA-LIGAND FREE ENERGY PREDICTED BY IDOCK:   -0.81 KCAL/MOL
REMARK 927      BINDING AFFINITY PREDICTED BY RF-SCORE:    0.00 PKD
ROOT
HETATM    1  C   UNL     1      -5.966  17.258  69.788  1.00  0.00    -0.243 C  
HETATM    2  C   UNL     1      -7.150  17.887  69.075  1.00  0.00    -0.228 C  
ENDROOT
BRANCH   2   3
HETATM    3  O   UNL     1      -7.831  16.844  68.367  1.00  0.00    -0.208 OA 
BRANCH   3   4
HETATM    4  C   UNL     1      -7.684  16.846  67.018  1.00  0.00    -0.195 C  
HETATM    5  O   UNL     1      -6.693  16.477  66.399  1.00  0.00    -0.202 OA 
BRANCH   4   6
HETATM    6  C   UNL     1      -8.994  17.182  66.367  1.00  0.00    -0.291 C  
BRANCH   6   7
HETATM    7  C   UNL     1      -9.950  15.999  66.410  1.00  0.00    -0.295 C  
BRANCH   7   8
HETATM    8  S   UNL     1     -11.217  16.134  67.741  1.00  0.00    -0.125 SA 
BRANCH   8   9
HETATM    9  P   UNL     1     -11.587  14.187  68.494  1.00  0.00    -0.352 P  
HETATM   10  S   UNL     1      -9.672  13.581  68.195  1.00  0.00    -0.235 S  
BRANCH   9  11
HETATM   11  O   UNL     1     -11.837  14.745  70.036  1.00  0.00    -0.275 OA 
HETATM   12  C   UNL     1     -11.199  15.909  70.544  1.00  0.00    -0.377 C  
ENDBRANCH   9  11
BRANCH   9  13
HETATM   13  O   UNL     1     -11.889  12.598  69.109  1.00  0.00    -0.298 OA 
HETATM   14  C   UNL     1     -11.242  11.549  68.415  1.00  0.00    -0.255 C  
ENDBRANCH   9  13
ENDBRANCH   8   9
ENDBRANCH   7   8
BRANCH   7  15
HETATM   15  C   UNL     1     -10.717  15.940  65.095  1.00  0.00    -0.429 C  
HETATM   16  O   UNL     1     -11.172  16.913  64.508  1.00  0.00    -1.057 OA 
BRANCH  15  17
HETATM   17  O   UNL     1     -10.909  14.642  64.725  1.00  0.00    -0.399 OA 
BRANCH  17  18
HETATM   18  C   UNL     1     -12.268  14.289  64.439  1.00  0.00    -0.447 C  
HETATM   19  C   UNL     1     -12.538  12.933  65.066  1.00  0.00    -0.538 C  
ENDBRANCH  17  18
ENDBRANCH  15  17
ENDBRANCH   7  15
ENDBRANCH   6   7
ENDBRANCH   4   6
ENDBRANCH   3   4
ENDBRANCH   2   3
TORSDOF 11
ENDMDL
MODEL       65
REMARK 921   NORMALIZED FREE ENERGY PREDICTED BY IDOCK:   -3.99 KCAL/MOL
REMARK 922        TOTAL FREE ENERGY PREDICTED BY IDOCK:   -7.26 KCAL/MOL
REMARK 923 INTER-LIGAND FREE ENERGY PREDICTED BY IDOCK:   -6.31 KCAL/MOL
REMARK 924 INTRA-LIGAND FREE ENERGY PREDICTED BY IDOCK:   -0.95 KCAL/MOL
REMARK 927      BINDING AFFINITY PREDICTED BY RF-SCORE:    0.00 PKD
ROOT
HETATM    1  C   UNL     1     -13.123  11.485  71.650  1.00  0.00    -0.478 C  
HETATM    2  C   UNL     1     -13.380  12.926  72.054  1.00  0.00    -0.482 C  
ENDROOT
BRANCH   2   3
HETATM    3  O   UNL     1     -12.374  13.735  71.433  1.00  0.00    -0.333 OA 
BRANCH   3   4
HETATM    4  C   UNL     1     -12.817  14.662  70.548  1.00  0.00    -0.317 C  
HETATM    5  O   UNL     1     -13.336  15.736  70.827  1.00  0.00    -0.539 OA 
BRANCH   4   6
HETATM    6  C   UNL     1     -12.402  14.274  69.158  1.00  0.00    -0.165 C  
BRANCH   6   7
HETATM    7  C   UNL     1     -10.950  13.819  69.124  1.00  0.00    -0.208 C  
BRANCH   7   8
HETATM    8  S   UNL     1     -10.711  12.210  68.260  1.00  0.00    -0.233 SA 
BRANCH   8   9
HETATM    9  P   UNL     1     -10.646  12.587  66.175  1.00  0.00    -0.269 P  
HETATM   10  S   UNL     1      -9.972  10.721  65.741  1.00  0.00    -0.264 S  
BRANCH   9  11
HETATM   11  O   UNL     1     -12.297  12.702  66.063  1.00  0.00    -0.587 OA 
HETATM   12  C   UNL     1     -12.951  13.835  65.507  1.00  0.00    -0.315 C  
ENDBRANCH   9  11
BRANCH   9  13
HETATM   13  O   UNL     1     -10.592  12.895  64.473  1.00  0.00    -0.337 OA 
HETATM   14  C   UNL     1     -10.294  11.773  63.665  1.00  0.00    -0.434 C  
ENDBRANCH   9  13
ENDBRANCH   8   9
ENDBRANCH   7   8
BRANCH   7  15
HETATM   15  C   UNL     1     -10.132  14.845  68.350  1.00  0.00    -0.225 C  
HETATM   16  O   UNL     1      -8.910  14.886  68.322  1.00  0.00    -0.161 OA 
BRANCH  15  17
HETATM   17  O   UNL     1     -10.960  15.768  67.782  1.00  0.00    -0.309 OA 
BRANCH  17  18
HETATM   18  C   UNL     1     -10.300  16.776  67.007  1.00  0.00    -0.300 C  
HETATM   19  C   UNL     1     -10.476  16.425  65.541  1.00  0.00    -0.349 C  
ENDBRANCH  17  18
ENDBRANCH  15  17
ENDBRANCH   7  15
ENDBRANCH   6   7
ENDBRANCH   4   6
ENDBRANCH   3   4
ENDBRANCH   2   3
TORSDOF 11
ENDMDL
MODEL       66
REMARK 921   NORMALIZED FREE ENERGY PREDICTED BY IDOCK:   -3.99 KCAL/MOL
REMARK 922        TOTAL FREE ENERGY PREDICTED BY IDOCK:   -7.25 KCAL/MOL
REMARK 923 INTER-LIGAND FREE ENERGY PREDICTED BY IDOCK:   -6.85 KCAL/MOL
REMARK 924 INTRA-LIGAND FREE ENERGY PREDICTED BY IDOCK:   -0.40 KCAL/MOL
REMARK 927      BINDING AFFINITY PREDICTED BY RF-SCORE:    0.00 PKD
ROOT
HETATM    1  C   UNL     1      -9.306  18.437  67.263  1.00  0.00    -0.271 C  
HETATM    2  C   UNL     1     -10.526  17.917  66.522  1.00  0.00    -0.313 C  
ENDROOT
BRANCH   2   3
HETATM    3  O   UNL     1     -10.060  17.239  65.349  1.00  0.00    -0.574 OA 
BRANCH   3   4
HETATM    4  C   UNL     1     -10.912  16.332  64.808  1.00  0.00    -0.272 C  
HETATM    5  O   UNL     1     -11.853  16.579  64.064  1.00  0.00    -1.022 OA 
BRANCH   4   6
HETATM    6  C   UNL     1     -10.418  14.943  65.093  1.00  0.00    -0.442 C  
BRANCH   6   7
HETATM    7  C   UNL     1     -11.262  13.900  64.374  1.00  0.00    -0.329 C  
BRANCH   7   8
HETATM    8  S   UNL     1     -10.283  12.465  63.763  1.00  0.00    -0.299 SA 
BRANCH   8   9
HETATM    9  P   UNL     1      -9.824  11.228  65.423  1.00  0.00    -0.259 P  
HETATM   10  S   UNL     1      -8.812   9.882  64.288  1.00  0.00    -0.243 S  
BRANCH   9  11
HETATM   11  O   UNL     1      -8.821  12.366  66.095  1.00  0.00    -0.056 OA 
HETATM   12  C   UNL     1      -8.213  12.196  67.368  1.00  0.00    -0.175 C  
ENDBRANCH   9  11
BRANCH   9  13
HETATM   13  O   UNL     1      -9.450  10.219  66.777  1.00  0.00    -0.157 OA 
HETATM   14  C   UNL     1      -9.466   8.829  66.517  1.00  0.00    -0.219 C  
ENDBRANCH   9  13
ENDBRANCH   8   9
ENDBRANCH   7   8
BRANCH   7  15
HETATM   15  C   UNL     1     -12.283  13.335  65.352  1.00  0.00    -0.456 C  
HETATM   16  O   UNL     1     -13.260  12.669  65.036  1.00  0.00    -0.753 OA 
BRANCH  15  17
HETATM   17  O   UNL     1     -12.006  13.767  66.616  1.00  0.00    -0.388 OA 
BRANCH  17  18
HETATM   18  C   UNL     1     -11.993  12.742  67.616  1.00  0.00    -0.273 C  
HETATM   19  C   UNL     1     -11.458  13.350  68.899  1.00  0.00    -0.347 C  
ENDBRANCH  17  18
ENDBRANCH  15  17
ENDBRANCH   7  15
ENDBRANCH   6   7
ENDBRANCH   4   6
ENDBRANCH   3   4
ENDBRANCH   2   3
TORSDOF 11
ENDMDL
MODEL       67
REMARK 921   NORMALIZED FREE ENERGY PREDICTED BY IDOCK:   -3.98 KCAL/MOL
REMARK 922        TOTAL FREE ENERGY PREDICTED BY IDOCK:   -7.23 KCAL/MOL
REMARK 923 INTER-LIGAND FREE ENERGY PREDICTED BY IDOCK:   -6.49 KCAL/MOL
REMARK 924 INTRA-LIGAND FREE ENERGY PREDICTED BY IDOCK:   -0.74 KCAL/MOL
REMARK 927      BINDING AFFINITY PREDICTED BY RF-SCORE:    0.00 PKD
ROOT
HETATM    1  C   UNL     1     -10.463  19.670  67.165  1.00  0.00    -0.595 C  
HETATM    2  C   UNL     1     -10.432  18.444  66.270  1.00  0.00    -0.393 C  
ENDROOT
BRANCH   2   3
HETATM    3  O   UNL     1     -10.755  17.309  67.082  1.00  0.00    -0.288 OA 
BRANCH   3   4
HETATM    4  C   UNL     1     -10.484  16.094  66.543  1.00  0.00    -0.297 C  
HETATM    5  O   UNL     1      -9.531  15.820  65.824  1.00  0.00    -0.335 OA 
BRANCH   4   6
HETATM    6  C   UNL     1     -11.417  15.067  67.116  1.00  0.00    -0.304 C  
BRANCH   6   7
HETATM    7  C   UNL     1     -11.266  13.729  66.406  1.00  0.00    -0.316 C  
BRANCH   7   8
HETATM    8  S   UNL     1     -11.169  12.298  67.562  1.00  0.00    -0.319 SA 
BRANCH   8   9
HETATM    9  P   UNL     1      -9.335  11.294  67.214  1.00  0.00    -0.168 P  
HETATM   10  S   UNL     1      -8.221  12.935  67.651  1.00  0.00    -0.191 S  
BRANCH   9  11
HETATM   11  O   UNL     1      -9.536  10.302  68.528  1.00  0.00    -0.148 OA 
HETATM   12  C   UNL     1      -9.358   8.894  68.460  1.00  0.00    -0.140 C  
ENDBRANCH   9  11
BRANCH   9  13
HETATM   13  O   UNL     1      -7.837  10.476  66.929  1.00  0.00    -0.111 OA 
HETATM   14  C   UNL     1      -7.476  10.332  65.570  1.00  0.00    -0.149 C  
ENDBRANCH   9  13
ENDBRANCH   8   9
ENDBRANCH   7   8
BRANCH   7  15
HETATM   15  C   UNL     1     -12.493  13.493  65.536  1.00  0.00    -0.491 C  
HETATM   16  O   UNL     1     -13.408  14.292  65.389  1.00  0.00    -0.649 OA 
BRANCH  15  17
HETATM   17  O   UNL     1     -12.471  12.226  65.032  1.00  0.00    -0.535 OA 
BRANCH  17  18
HETATM   18  C   UNL     1     -12.187  12.138  63.630  1.00  0.00    -0.562 C  
HETATM   19  C   UNL     1     -10.767  11.626  63.475  1.00  0.00    -0.495 C  
ENDBRANCH  17  18
ENDBRANCH  15  17
ENDBRANCH   7  15
ENDBRANCH   6   7
ENDBRANCH   4   6
ENDBRANCH   3   4
ENDBRANCH   2   3
TORSDOF 11
ENDMDL
MODEL       68
REMARK 921   NORMALIZED FREE ENERGY PREDICTED BY IDOCK:   -3.97 KCAL/MOL
REMARK 922        TOTAL FREE ENERGY PREDICTED BY IDOCK:   -7.23 KCAL/MOL
REMARK 923 INTER-LIGAND FREE ENERGY PREDICTED BY IDOCK:   -6.63 KCAL/MOL
REMARK 924 INTRA-LIGAND FREE ENERGY PREDICTED BY IDOCK:   -0.60 KCAL/MOL
REMARK 927      BINDING AFFINITY PREDICTED BY RF-SCORE:    0.00 PKD
ROOT
HETATM    1  C   UNL     1     -13.952  15.208  71.292  1.00  0.00    -0.548 C  
HETATM    2  C   UNL     1     -12.744  14.353  70.951  1.00  0.00    -0.355 C  
ENDROOT
BRANCH   2   3
HETATM    3  O   UNL     1     -12.236  14.807  69.691  1.00  0.00    -0.306 OA 
BRANCH   3   4
HETATM    4  C   UNL     1     -11.763  13.846  68.859  1.00  0.00    -0.337 C  
HETATM    5  O   UNL     1     -12.203  12.708  68.746  1.00  0.00    -0.178 OA 
BRANCH   4   6
HETATM    6  C   UNL     1     -10.735  14.436  67.937  1.00  0.00    -0.246 C  
BRANCH   6   7
HETATM    7  C   UNL     1     -11.139  14.264  66.480  1.00  0.00    -0.323 C  
BRANCH   7   8
HETATM    8  S   UNL     1     -10.672  15.697  65.421  1.00  0.00    -0.413 SA 
BRANCH   8   9
HETATM    9  P   UNL     1      -9.918  17.227  66.680  1.00  0.00    -0.314 P  
HETATM   10  S   UNL     1      -7.993  16.618  66.460  1.00  0.00    -0.327 S  
BRANCH   9  11
HETATM   11  O   UNL     1     -10.327  18.423  65.606  1.00  0.00    -0.605 OA 
HETATM   12  C   UNL     1     -10.579  19.762  66.009  1.00  0.00    -0.468 C  
ENDBRANCH   9  11
BRANCH   9  13
HETATM   13  O   UNL     1      -9.302  18.474  67.708  1.00  0.00    -0.284 OA 
HETATM   14  C   UNL     1      -8.062  18.191  68.325  1.00  0.00    -0.297 C  
ENDBRANCH   9  13
ENDBRANCH   8   9
ENDBRANCH   7   8
BRANCH   7  15
HETATM   15  C   UNL     1     -10.409  13.055  65.908  1.00  0.00    -0.288 C  
HETATM   16  O   UNL     1      -9.625  12.354  66.532  1.00  0.00    -0.229 OA 
BRANCH  15  17
HETATM   17  O   UNL     1     -10.680  12.934  64.577  1.00  0.00    -0.327 OA 
BRANCH  17  18
HETATM   18  C   UNL     1     -10.777  11.586  64.100  1.00  0.00    -0.368 C  
HETATM   19  C   UNL     1      -9.669  11.370  63.086  1.00  0.00    -0.413 C  
ENDBRANCH  17  18
ENDBRANCH  15  17
ENDBRANCH   7  15
ENDBRANCH   6   7
ENDBRANCH   4   6
ENDBRANCH   3   4
ENDBRANCH   2   3
TORSDOF 11
ENDMDL
MODEL       69
REMARK 921   NORMALIZED FREE ENERGY PREDICTED BY IDOCK:   -3.97 KCAL/MOL
REMARK 922        TOTAL FREE ENERGY PREDICTED BY IDOCK:   -7.22 KCAL/MOL
REMARK 923 INTER-LIGAND FREE ENERGY PREDICTED BY IDOCK:   -6.46 KCAL/MOL
REMARK 924 INTRA-LIGAND FREE ENERGY PREDICTED BY IDOCK:   -0.76 KCAL/MOL
REMARK 927      BINDING AFFINITY PREDICTED BY RF-SCORE:    0.00 PKD
ROOT
HETATM    1  C   UNL     1     -12.229  12.283  63.578  1.00  0.00    -0.669 C  
HETATM    2  C   UNL     1     -12.542  13.097  64.821  1.00  0.00    -0.364 C  
ENDROOT
BRANCH   2   3
HETATM    3  O   UNL     1     -12.134  12.325  65.957  1.00  0.00    -0.623 OA 
BRANCH   3   4
HETATM    4  C   UNL     1     -11.593  13.022  66.987  1.00  0.00    -0.360 C  
HETATM    5  O   UNL     1     -11.767  12.800  68.179  1.00  0.00    -0.312 OA 
BRANCH   4   6
HETATM    6  C   UNL     1     -10.579  13.996  66.461  1.00  0.00    -0.279 C  
BRANCH   6   7
HETATM    7  C   UNL     1     -10.683  15.338  67.173  1.00  0.00    -0.316 C  
BRANCH   7   8
HETATM    8  S   UNL     1      -9.378  15.590  68.448  1.00  0.00    -0.197 SA 
BRANCH   8   9
HETATM    9  P   UNL     1      -7.655  14.512  67.846  1.00  0.00    -0.182 P  
HETATM   10  S   UNL     1      -6.711  16.176  67.162  1.00  0.00    -0.150 S  
BRANCH   9  11
HETATM   11  O   UNL     1      -7.237  14.150  69.410  1.00  0.00    -0.101 OA 
HETATM   12  C   UNL     1      -6.159  14.787  70.083  1.00  0.00    -0.156 C  
ENDBRANCH   9  11
BRANCH   9  13
HETATM   13  O   UNL     1      -6.248  13.633  67.355  1.00  0.00    -0.323 OA 
HETATM   14  C   UNL     1      -6.411  12.232  67.267  1.00  0.00    -0.152 C  
ENDBRANCH   9  13
ENDBRANCH   8   9
ENDBRANCH   7   8
BRANCH   7  15
HETATM   15  C   UNL     1     -10.502  16.451  66.149  1.00  0.00    -0.314 C  
HETATM   16  O   UNL     1     -10.422  16.281  64.940  1.00  0.00    -0.624 OA 
BRANCH  15  17
HETATM   17  O   UNL     1     -10.339  17.646  66.785  1.00  0.00    -0.332 OA 
BRANCH  17  18
HETATM   18  C   UNL     1     -10.521  18.801  65.957  1.00  0.00    -0.432 C  
HETATM   19  C   UNL     1      -9.900  19.988  66.670  1.00  0.00    -0.577 C  
ENDBRANCH  17  18
ENDBRANCH  15  17
ENDBRANCH   7  15
ENDBRANCH   6   7
ENDBRANCH   4   6
ENDBRANCH   3   4
ENDBRANCH   2   3
TORSDOF 11
ENDMDL
MODEL       70
REMARK 921   NORMALIZED FREE ENERGY PREDICTED BY IDOCK:   -3.97 KCAL/MOL
REMARK 922        TOTAL FREE ENERGY PREDICTED BY IDOCK:   -7.22 KCAL/MOL
REMARK 923 INTER-LIGAND FREE ENERGY PREDICTED BY IDOCK:   -6.45 KCAL/MOL
REMARK 924 INTRA-LIGAND FREE ENERGY PREDICTED BY IDOCK:   -0.77 KCAL/MOL
REMARK 927      BINDING AFFINITY PREDICTED BY RF-SCORE:    0.00 PKD
ROOT
HETATM    1  C   UNL     1     -10.235  11.134  65.854  1.00  0.00    -0.303 C  
HETATM    2  C   UNL     1     -11.302  11.893  65.086  1.00  0.00    -0.269 C  
ENDROOT
BRANCH   2   3
HETATM    3  O   UNL     1     -10.927  13.275  65.076  1.00  0.00    -0.293 OA 
BRANCH   3   4
HETATM    4  C   UNL     1     -11.941  14.169  65.193  1.00  0.00    -0.388 C  
HETATM    5  O   UNL     1     -12.614  14.620  64.274  1.00  0.00    -0.688 OA 
BRANCH   4   6
HETATM    6  C   UNL     1     -12.261  14.384  66.643  1.00  0.00    -0.340 C  
BRANCH   6   7
HETATM    7  C   UNL     1     -11.011  14.736  67.438  1.00  0.00    -0.313 C  
BRANCH   7   8
HETATM    8  S   UNL     1     -10.890  16.528  67.849  1.00  0.00    -0.290 SA 
BRANCH   8   9
HETATM    9  P   UNL     1      -9.351  17.372  66.660  1.00  0.00    -0.271 P  
HETATM   10  S   UNL     1     -10.398  19.077  66.309  1.00  0.00    -0.469 S  
BRANCH   9  11
HETATM   11  O   UNL     1      -8.323  17.519  67.953  1.00  0.00    -0.220 OA 
HETATM   12  C   UNL     1      -8.186  16.509  68.943  1.00  0.00    -0.241 C  
ENDBRANCH   9  11
BRANCH   9  13
HETATM   13  O   UNL     1      -8.096  18.061  65.689  1.00  0.00    -0.500 OA 
HETATM   14  C   UNL     1      -6.789  17.602  65.975  1.00  0.00    -0.273 C  
ENDBRANCH   9  13
ENDBRANCH   8   9
ENDBRANCH   7   8
BRANCH   7  15
HETATM   15  C   UNL     1     -11.049  13.995  68.767  1.00  0.00    -0.264 C  
HETATM   16  O   UNL     1     -10.957  12.781  68.892  1.00  0.00    -0.245 OA 
BRANCH  15  17
HETATM   17  O   UNL     1     -11.305  14.869  69.782  1.00  0.00    -0.258 OA 
BRANCH  17  18
HETATM   18  C   UNL     1     -12.113  14.345  70.842  1.00  0.00    -0.344 C  
HETATM   19  C   UNL     1     -12.615  15.516  71.667  1.00  0.00    -0.486 C  
ENDBRANCH  17  18
ENDBRANCH  15  17
ENDBRANCH   7  15
ENDBRANCH   6   7
ENDBRANCH   4   6
ENDBRANCH   3   4
ENDBRANCH   2   3
TORSDOF 11
ENDMDL
MODEL       71
REMARK 921   NORMALIZED FREE ENERGY PREDICTED BY IDOCK:   -3.96 KCAL/MOL
REMARK 922        TOTAL FREE ENERGY PREDICTED BY IDOCK:   -7.20 KCAL/MOL
REMARK 923 INTER-LIGAND FREE ENERGY PREDICTED BY IDOCK:   -6.30 KCAL/MOL
REMARK 924 INTRA-LIGAND FREE ENERGY PREDICTED BY IDOCK:   -0.90 KCAL/MOL
REMARK 927      BINDING AFFINITY PREDICTED BY RF-SCORE:    0.00 PKD
ROOT
HETATM    1  C   UNL     1     -10.805  12.079  63.514  1.00  0.00    -0.509 C  
HETATM    2  C   UNL     1     -12.250  11.982  63.971  1.00  0.00    -0.403 C  
ENDROOT
BRANCH   2   3
HETATM    3  O   UNL     1     -12.295  12.379  65.346  1.00  0.00    -0.596 OA 
BRANCH   3   4
HETATM    4  C   UNL     1     -12.474  13.703  65.579  1.00  0.00    -0.503 C  
HETATM    5  O   UNL     1     -13.248  14.443  64.984  1.00  0.00    -0.562 OA 
BRANCH   4   6
HETATM    6  C   UNL     1     -11.723  14.105  66.815  1.00  0.00    -0.432 C  
BRANCH   6   7
HETATM    7  C   UNL     1     -11.089  12.899  67.492  1.00  0.00    -0.269 C  
BRANCH   7   8
HETATM    8  S   UNL     1      -9.251  12.992  67.574  1.00  0.00    -0.206 SA 
BRANCH   8   9
HETATM    9  P   UNL     1      -8.722  14.903  68.324  1.00  0.00    -0.179 P  
HETATM   10  S   UNL     1      -7.188  14.170  69.435  1.00  0.00     0.055 S  
BRANCH   9  11
HETATM   11  O   UNL     1      -8.223  15.438  66.836  1.00  0.00    -0.219 OA 
HETATM   12  C   UNL     1      -8.925  16.433  66.103  1.00  0.00    -0.332 C  
ENDBRANCH   9  11
BRANCH   9  13
HETATM   13  O   UNL     1      -8.291  16.462  68.938  1.00  0.00    -0.218 OA 
HETATM   14  C   UNL     1      -6.963  16.580  69.407  1.00  0.00    -0.202 C  
ENDBRANCH   9  13
ENDBRANCH   8   9
ENDBRANCH   7   8
BRANCH   7  15
HETATM   15  C   UNL     1     -11.577  12.831  68.933  1.00  0.00    -0.316 C  
HETATM   16  O   UNL     1     -11.531  11.833  69.639  1.00  0.00    -0.276 OA 
BRANCH  15  17
HETATM   17  O   UNL     1     -12.165  14.011  69.282  1.00  0.00    -0.344 OA 
BRANCH  17  18
HETATM   18  C   UNL     1     -12.407  14.174  70.685  1.00  0.00    -0.365 C  
HETATM   19  C   UNL     1     -11.601  15.368  71.160  1.00  0.00    -0.425 C  
ENDBRANCH  17  18
ENDBRANCH  15  17
ENDBRANCH   7  15
ENDBRANCH   6   7
ENDBRANCH   4   6
ENDBRANCH   3   4
ENDBRANCH   2   3
TORSDOF 11
ENDMDL
MODEL       72
REMARK 921   NORMALIZED FREE ENERGY PREDICTED BY IDOCK:   -3.95 KCAL/MOL
REMARK 922        TOTAL FREE ENERGY PREDICTED BY IDOCK:   -7.19 KCAL/MOL
REMARK 923 INTER-LIGAND FREE ENERGY PREDICTED BY IDOCK:   -6.48 KCAL/MOL
REMARK 924 INTRA-LIGAND FREE ENERGY PREDICTED BY IDOCK:   -0.71 KCAL/MOL
REMARK 927      BINDING AFFINITY PREDICTED BY RF-SCORE:    0.00 PKD
ROOT
HETATM    1  C   UNL     1     -10.054  16.905  65.929  1.00  0.00    -0.302 C  
HETATM    2  C   UNL     1     -10.172  15.459  65.483  1.00  0.00    -0.382 C  
ENDROOT
BRANCH   2   3
HETATM    3  O   UNL     1     -11.523  15.247  65.058  1.00  0.00    -0.353 OA 
BRANCH   3   4
HETATM    4  C   UNL     1     -12.282  14.456  65.857  1.00  0.00    -0.341 C  
HETATM    5  O   UNL     1     -13.418  14.066  65.618  1.00  0.00    -0.604 OA 
BRANCH   4   6
HETATM    6  C   UNL     1     -11.453  13.953  67.003  1.00  0.00    -0.367 C  
BRANCH   6   7
HETATM    7  C   UNL     1     -11.743  12.487  67.291  1.00  0.00    -0.362 C  
BRANCH   7   8
HETATM    8  S   UNL     1     -10.354  11.366  66.835  1.00  0.00    -0.236 SA 
BRANCH   8   9
HETATM    9  P   UNL     1     -10.018  11.551  64.750  1.00  0.00    -0.258 P  
HETATM   10  S   UNL     1      -9.121   9.733  64.617  1.00  0.00    -0.245 S  
BRANCH   9  11
HETATM   11  O   UNL     1     -11.637  11.481  64.402  1.00  0.00    -0.237 OA 
HETATM   12  C   UNL     1     -12.197  12.068  63.235  1.00  0.00    -0.421 C  
ENDBRANCH   9  11
BRANCH   9  13
HETATM   13  O   UNL     1      -9.742  11.701  63.049  1.00  0.00    -0.396 OA 
HETATM   14  C   UNL     1      -8.699  10.899  62.533  1.00  0.00    -0.294 C  
ENDBRANCH   9  13
ENDBRANCH   8   9
ENDBRANCH   7   8
BRANCH   7  15
HETATM   15  C   UNL     1     -11.958  12.314  68.789  1.00  0.00    -0.231 C  
HETATM   16  O   UNL     1     -11.736  13.174  69.630  1.00  0.00    -0.298 OA 
BRANCH  15  17
HETATM   17  O   UNL     1     -12.333  11.031  69.061  1.00  0.00    -0.481 OA 
BRANCH  17  18
HETATM   18  C   UNL     1     -12.029  10.581  70.387  1.00  0.00    -0.335 C  
HETATM   19  C   UNL     1     -10.813   9.677  70.305  1.00  0.00    -0.339 C  
ENDBRANCH  17  18
ENDBRANCH  15  17
ENDBRANCH   7  15
ENDBRANCH   6   7
ENDBRANCH   4   6
ENDBRANCH   3   4
ENDBRANCH   2   3
TORSDOF 11
ENDMDL
MODEL       73
REMARK 921   NORMALIZED FREE ENERGY PREDICTED BY IDOCK:   -3.95 KCAL/MOL
REMARK 922        TOTAL FREE ENERGY PREDICTED BY IDOCK:   -7.19 KCAL/MOL
REMARK 923 INTER-LIGAND FREE ENERGY PREDICTED BY IDOCK:   -6.30 KCAL/MOL
REMARK 924 INTRA-LIGAND FREE ENERGY PREDICTED BY IDOCK:   -0.89 KCAL/MOL
REMARK 927      BINDING AFFINITY PREDICTED BY RF-SCORE:    0.00 PKD
ROOT
HETATM    1  C   UNL     1     -13.759  15.604  72.812  1.00  0.00    -0.662 C  
HETATM    2  C   UNL     1     -13.961  14.631  71.663  1.00  0.00    -0.465 C  
ENDROOT
BRANCH   2   3
HETATM    3  O   UNL     1     -12.878  13.695  71.697  1.00  0.00    -0.343 OA 
BRANCH   3   4
HETATM    4  C   UNL     1     -12.300  13.410  70.503  1.00  0.00    -0.329 C  
HETATM    5  O   UNL     1     -11.909  12.309  70.135  1.00  0.00    -0.328 OA 
BRANCH   4   6
HETATM    6  C   UNL     1     -12.385  14.607  69.601  1.00  0.00    -0.270 C  
BRANCH   6   7
HETATM    7  C   UNL     1     -11.366  14.521  68.474  1.00  0.00    -0.286 C  
BRANCH   7   8
HETATM    8  S   UNL     1     -12.064  13.843  66.910  1.00  0.00    -0.393 SA 
BRANCH   8   9
HETATM    9  P   UNL     1     -10.922  12.143  66.363  1.00  0.00    -0.316 P  
HETATM   10  S   UNL     1     -10.766  12.728  64.424  1.00  0.00    -0.400 S  
BRANCH   9  11
HETATM   11  O   UNL     1      -9.622  12.625  67.273  1.00  0.00    -0.195 OA 
HETATM   12  C   UNL     1      -8.705  11.704  67.848  1.00  0.00    -0.154 C  
ENDBRANCH   9  11
BRANCH   9  13
HETATM   13  O   UNL     1      -9.991  10.756  65.916  1.00  0.00    -0.229 OA 
HETATM   14  C   UNL     1      -9.943  10.481  64.530  1.00  0.00    -0.345 C  
ENDBRANCH   9  13
ENDBRANCH   8   9
ENDBRANCH   7   8
BRANCH   7  15
HETATM   15  C   UNL     1     -10.874  15.926  68.149  1.00  0.00    -0.317 C  
HETATM   16  O   UNL     1     -10.694  16.811  68.975  1.00  0.00    -0.322 OA 
BRANCH  15  17
HETATM   17  O   UNL     1     -10.766  16.081  66.799  1.00  0.00    -0.317 OA 
BRANCH  17  18
HETATM   18  C   UNL     1      -9.646  16.865  66.368  1.00  0.00    -0.284 C  
HETATM   19  C   UNL     1      -8.426  15.962  66.347  1.00  0.00    -0.348 C  
ENDBRANCH  17  18
ENDBRANCH  15  17
ENDBRANCH   7  15
ENDBRANCH   6   7
ENDBRANCH   4   6
ENDBRANCH   3   4
ENDBRANCH   2   3
TORSDOF 11
ENDMDL
MODEL       74
REMARK 921   NORMALIZED FREE ENERGY PREDICTED BY IDOCK:   -3.94 KCAL/MOL
REMARK 922        TOTAL FREE ENERGY PREDICTED BY IDOCK:   -7.17 KCAL/MOL
REMARK 923 INTER-LIGAND FREE ENERGY PREDICTED BY IDOCK:   -6.39 KCAL/MOL
REMARK 924 INTRA-LIGAND FREE ENERGY PREDICTED BY IDOCK:   -0.78 KCAL/MOL
REMARK 927      BINDING AFFINITY PREDICTED BY RF-SCORE:    0.00 PKD
ROOT
HETATM    1  C   UNL     1     -10.745  11.599  63.454  1.00  0.00    -0.460 C  
HETATM    2  C   UNL     1     -12.189  12.045  63.606  1.00  0.00    -0.538 C  
ENDROOT
BRANCH   2   3
HETATM    3  O   UNL     1     -12.467  12.133  65.008  1.00  0.00    -0.490 OA 
BRANCH   3   4
HETATM    4  C   UNL     1     -12.463  13.382  65.538  1.00  0.00    -0.483 C  
HETATM    5  O   UNL     1     -13.278  14.267  65.310  1.00  0.00    -0.704 OA 
BRANCH   4   6
HETATM    6  C   UNL     1     -11.417  13.471  66.612  1.00  0.00    -0.366 C  
BRANCH   6   7
HETATM    7  C   UNL     1     -12.022  13.246  67.990  1.00  0.00    -0.313 C  
BRANCH   7   8
HETATM    8  S   UNL     1     -11.908  11.497  68.559  1.00  0.00    -0.238 SA 
BRANCH   8   9
HETATM    9  P   UNL     1      -9.906  10.851  68.298  1.00  0.00    -0.183 P  
HETATM   10  S   UNL     1      -9.987   9.583  69.883  1.00  0.00    -0.247 S  
BRANCH   9  11
HETATM   11  O   UNL     1     -10.253  10.091  66.866  1.00  0.00    -0.216 OA 
HETATM   12  C   UNL     1     -10.268   8.677  66.731  1.00  0.00    -0.291 C  
ENDBRANCH   9  11
BRANCH   9  13
HETATM   13  O   UNL     1      -8.272  10.324  68.087  1.00  0.00    -0.111 OA 
HETATM   14  C   UNL     1      -7.481  10.318  69.259  1.00  0.00    -0.112 C  
ENDBRANCH   9  13
ENDBRANCH   8   9
ENDBRANCH   7   8
BRANCH   7  15
HETATM   15  C   UNL     1     -11.250  14.077  69.007  1.00  0.00    -0.276 C  
HETATM   16  O   UNL     1     -10.293  14.793  68.741  1.00  0.00    -0.234 OA 
BRANCH  15  17
HETATM   17  O   UNL     1     -11.714  13.825  70.264  1.00  0.00    -0.270 OA 
BRANCH  17  18
HETATM   18  C   UNL     1     -12.855  14.599  70.653  1.00  0.00    -0.342 C  
HETATM   19  C   UNL     1     -12.370  15.728  71.544  1.00  0.00    -0.514 C  
ENDBRANCH  17  18
ENDBRANCH  15  17
ENDBRANCH   7  15
ENDBRANCH   6   7
ENDBRANCH   4   6
ENDBRANCH   3   4
ENDBRANCH   2   3
TORSDOF 11
ENDMDL
MODEL       75
REMARK 921   NORMALIZED FREE ENERGY PREDICTED BY IDOCK:   -3.94 KCAL/MOL
REMARK 922        TOTAL FREE ENERGY PREDICTED BY IDOCK:   -7.17 KCAL/MOL
REMARK 923 INTER-LIGAND FREE ENERGY PREDICTED BY IDOCK:   -6.37 KCAL/MOL
REMARK 924 INTRA-LIGAND FREE ENERGY PREDICTED BY IDOCK:   -0.79 KCAL/MOL
REMARK 927      BINDING AFFINITY PREDICTED BY RF-SCORE:    0.00 PKD
ROOT
HETATM    1  C   UNL     1      -9.418  10.432  63.443  1.00  0.00    -0.356 C  
HETATM    2  C   UNL     1     -10.084  11.747  63.081  1.00  0.00    -0.354 C  
ENDROOT
BRANCH   2   3
HETATM    3  O   UNL     1     -11.475  11.628  63.401  1.00  0.00    -0.393 OA 
BRANCH   3   4
HETATM    4  C   UNL     1     -12.091  12.765  63.811  1.00  0.00    -0.517 C  
HETATM    5  O   UNL     1     -12.523  13.654  63.087  1.00  0.00    -0.786 OA 
BRANCH   4   6
HETATM    6  C   UNL     1     -12.353  12.695  65.288  1.00  0.00    -0.528 C  
BRANCH   6   7
HETATM    7  C   UNL     1     -11.230  13.351  66.078  1.00  0.00    -0.296 C  
BRANCH   7   8
HETATM    8  S   UNL     1     -11.831  14.357  67.500  1.00  0.00    -0.360 SA 
BRANCH   8   9
HETATM    9  P   UNL     1     -10.317  15.752  68.005  1.00  0.00    -0.265 P  
HETATM   10  S   UNL     1     -10.590  16.838  66.310  1.00  0.00    -0.123 S  
BRANCH   9  11
HETATM   11  O   UNL     1     -11.185  16.352  69.284  1.00  0.00    -0.315 OA 
HETATM   12  C   UNL     1     -11.613  15.540  70.369  1.00  0.00    -0.337 C  
ENDBRANCH   9  11
BRANCH   9  13
HETATM   13  O   UNL     1      -9.080  16.890  68.416  1.00  0.00    -0.227 OA 
HETATM   14  C   UNL     1      -9.490  18.244  68.443  1.00  0.00    -0.323 C  
ENDBRANCH   9  13
ENDBRANCH   8   9
ENDBRANCH   7   8
BRANCH   7  15
HETATM   15  C   UNL     1     -10.344  12.262  66.670  1.00  0.00    -0.215 C  
HETATM   16  O   UNL     1      -9.124  12.231  66.582  1.00  0.00    -0.204 OA 
BRANCH  15  17
HETATM   17  O   UNL     1     -11.116  11.281  67.218  1.00  0.00    -0.274 OA 
BRANCH  17  18
HETATM   18  C   UNL     1     -10.392  10.147  67.710  1.00  0.00    -0.210 C  
HETATM   19  C   UNL     1     -10.405   9.081  66.630  1.00  0.00    -0.289 C  
ENDBRANCH  17  18
ENDBRANCH  15  17
ENDBRANCH   7  15
ENDBRANCH   6   7
ENDBRANCH   4   6
ENDBRANCH   3   4
ENDBRANCH   2   3
TORSDOF 11
ENDMDL
MODEL       76
REMARK 921   NORMALIZED FREE ENERGY PREDICTED BY IDOCK:   -3.93 KCAL/MOL
REMARK 922        TOTAL FREE ENERGY PREDICTED BY IDOCK:   -7.16 KCAL/MOL
REMARK 923 INTER-LIGAND FREE ENERGY PREDICTED BY IDOCK:   -6.18 KCAL/MOL
REMARK 924 INTRA-LIGAND FREE ENERGY PREDICTED BY IDOCK:   -0.97 KCAL/MOL
REMARK 927      BINDING AFFINITY PREDICTED BY RF-SCORE:    0.00 PKD
ROOT
HETATM    1  C   UNL     1     -11.372   6.265  70.069  1.00  0.00    -0.486 C  
HETATM    2  C   UNL     1     -10.545   6.054  68.813  1.00  0.00    -0.282 C  
ENDROOT
BRANCH   2   3
HETATM    3  O   UNL     1     -11.122   6.857  67.776  1.00  0.00    -0.217 OA 
BRANCH   3   4
HETATM    4  C   UNL     1     -10.288   7.739  67.172  1.00  0.00    -0.319 C  
HETATM    5  O   UNL     1      -9.415   7.466  66.357  1.00  0.00    -0.178 OA 
BRANCH   4   6
HETATM    6  C   UNL     1     -10.715   9.141  67.495  1.00  0.00    -0.255 C  
BRANCH   6   7
HETATM    7  C   UNL     1      -9.649   9.870  68.302  1.00  0.00    -0.140 C  
BRANCH   7   8
HETATM    8  S   UNL     1      -9.554  11.671  67.924  1.00  0.00    -0.186 SA 
BRANCH   8   9
HETATM    9  P   UNL     1     -11.197  12.170  66.682  1.00  0.00    -0.348 P  
HETATM   10  S   UNL     1     -11.335  14.055  67.424  1.00  0.00    -0.348 S  
BRANCH   9  11
HETATM   11  O   UNL     1     -10.278  12.101  65.303  1.00  0.00    -0.263 OA 
HETATM   12  C   UNL     1     -10.503  11.143  64.278  1.00  0.00    -0.362 C  
ENDBRANCH   9  11
BRANCH   9  13
HETATM   13  O   UNL     1     -12.539  12.577  65.668  1.00  0.00    -0.612 OA 
HETATM   14  C   UNL     1     -12.660  13.949  65.349  1.00  0.00    -0.507 C  
ENDBRANCH   9  13
ENDBRANCH   8   9
ENDBRANCH   7   8
BRANCH   7  15
HETATM   15  C   UNL     1      -9.994   9.761  69.781  1.00  0.00    -0.236 C  
HETATM   16  O   UNL     1      -9.197   9.475  70.665  1.00  0.00    -0.245 OA 
BRANCH  15  17
HETATM   17  O   UNL     1     -11.336   9.927  69.961  1.00  0.00    -0.247 OA 
BRANCH  17  18
HETATM   18  C   UNL     1     -11.785   9.801  71.316  1.00  0.00    -0.394 C  
HETATM   19  C   UNL     1     -12.965  10.737  71.504  1.00  0.00    -0.562 C  
ENDBRANCH  17  18
ENDBRANCH  15  17
ENDBRANCH   7  15
ENDBRANCH   6   7
ENDBRANCH   4   6
ENDBRANCH   3   4
ENDBRANCH   2   3
TORSDOF 11
ENDMDL
MODEL       77
REMARK 921   NORMALIZED FREE ENERGY PREDICTED BY IDOCK:   -3.93 KCAL/MOL
REMARK 922        TOTAL FREE ENERGY PREDICTED BY IDOCK:   -7.15 KCAL/MOL
REMARK 923 INTER-LIGAND FREE ENERGY PREDICTED BY IDOCK:   -6.28 KCAL/MOL
REMARK 924 INTRA-LIGAND FREE ENERGY PREDICTED BY IDOCK:   -0.87 KCAL/MOL
REMARK 927      BINDING AFFINITY PREDICTED BY RF-SCORE:    0.00 PKD
ROOT
HETATM    1  C   UNL     1      -7.968  19.898  66.156  1.00  0.00    -0.345 C  
HETATM    2  C   UNL     1      -7.033  18.834  65.607  1.00  0.00    -0.225 C  
ENDROOT
BRANCH   2   3
HETATM    3  O   UNL     1      -7.642  17.560  65.847  1.00  0.00    -0.482 OA 
BRANCH   3   4
HETATM    4  C   UNL     1      -6.927  16.694  66.608  1.00  0.00    -0.208 C  
HETATM    5  O   UNL     1      -5.708  16.582  66.622  1.00  0.00    -0.338 OA 
BRANCH   4   6
HETATM    6  C   UNL     1      -7.837  16.014  67.590  1.00  0.00    -0.161 C  
BRANCH   6   7
HETATM    7  C   UNL     1      -9.188  15.701  66.964  1.00  0.00    -0.222 C  
BRANCH   7   8
HETATM    8  S   UNL     1      -9.506  13.895  66.781  1.00  0.00    -0.282 SA 
BRANCH   8   9
HETATM    9  P   UNL     1     -11.218  13.651  65.554  1.00  0.00    -0.308 P  
HETATM   10  S   UNL     1     -10.451  12.023  64.611  1.00  0.00    -0.314 S  
BRANCH   9  11
HETATM   11  O   UNL     1     -12.180  13.237  66.840  1.00  0.00    -0.350 OA 
HETATM   12  C   UNL     1     -11.819  12.230  67.776  1.00  0.00    -0.273 C  
ENDBRANCH   9  11
BRANCH   9  13
HETATM   13  O   UNL     1     -12.613  13.450  64.552  1.00  0.00    -0.601 OA 
HETATM   14  C   UNL     1     -12.524  12.417  63.591  1.00  0.00    -0.508 C  
ENDBRANCH   9  13
ENDBRANCH   8   9
ENDBRANCH   7   8
BRANCH   7  15
HETATM   15  C   UNL     1     -10.286  16.238  67.873  1.00  0.00    -0.285 C  
HETATM   16  O   UNL     1     -10.854  17.311  67.722  1.00  0.00    -0.351 OA 
BRANCH  15  17
HETATM   17  O   UNL     1     -10.467  15.398  68.932  1.00  0.00    -0.222 OA 
BRANCH  17  18
HETATM   18  C   UNL     1     -11.668  15.621  69.682  1.00  0.00    -0.361 C  
HETATM   19  C   UNL     1     -11.287  15.739  71.146  1.00  0.00    -0.442 C  
ENDBRANCH  17  18
ENDBRANCH  15  17
ENDBRANCH   7  15
ENDBRANCH   6   7
ENDBRANCH   4   6
ENDBRANCH   3   4
ENDBRANCH   2   3
TORSDOF 11
ENDMDL
MODEL       78
REMARK 921   NORMALIZED FREE ENERGY PREDICTED BY IDOCK:   -3.93 KCAL/MOL
REMARK 922        TOTAL FREE ENERGY PREDICTED BY IDOCK:   -7.15 KCAL/MOL
REMARK 923 INTER-LIGAND FREE ENERGY PREDICTED BY IDOCK:   -6.23 KCAL/MOL
REMARK 924 INTRA-LIGAND FREE ENERGY PREDICTED BY IDOCK:   -0.91 KCAL/MOL
REMARK 927      BINDING AFFINITY PREDICTED BY RF-SCORE:    0.00 PKD
ROOT
HETATM    1  C   UNL     1     -11.419   6.522  70.202  1.00  0.00    -0.477 C  
HETATM    2  C   UNL     1     -12.150   6.999  71.445  1.00  0.00    -0.355 C  
ENDROOT
BRANCH   2   3
HETATM    3  O   UNL     1     -11.983   8.420  71.525  1.00  0.00    -0.278 OA 
BRANCH   3   4
HETATM    4  C   UNL     1     -13.083   9.129  71.880  1.00  0.00    -0.411 C  
HETATM    5  O   UNL     1     -13.675   9.057  72.950  1.00  0.00    -0.365 OA 
BRANCH   4   6
HETATM    6  C   UNL     1     -13.366  10.177  70.842  1.00  0.00    -0.272 C  
BRANCH   6   7
HETATM    7  C   UNL     1     -12.304  11.267  70.855  1.00  0.00    -0.388 C  
BRANCH   7   8
HETATM    8  S   UNL     1     -11.709  11.724  69.172  1.00  0.00    -0.336 SA 
BRANCH   8   9
HETATM    9  P   UNL     1     -10.612  10.085  68.395  1.00  0.00    -0.233 P  
HETATM   10  S   UNL     1     -10.163  11.055  66.668  1.00  0.00    -0.243 S  
BRANCH   9  11
HETATM   11  O   UNL     1      -9.416  10.242  69.534  1.00  0.00    -0.214 OA 
HETATM   12  C   UNL     1      -8.756   9.124  70.112  1.00  0.00    -0.181 C  
ENDBRANCH   9  11
BRANCH   9  13
HETATM   13  O   UNL     1      -9.717   8.747  67.760  1.00  0.00    -0.148 OA 
HETATM   14  C   UNL     1     -10.424   7.921  66.858  1.00  0.00    -0.318 C  
ENDBRANCH   9  13
ENDBRANCH   8   9
ENDBRANCH   7   8
BRANCH   7  15
HETATM   15  C   UNL     1     -12.905  12.531  71.454  1.00  0.00    -0.260 C  
HETATM   16  O   UNL     1     -13.754  12.551  72.335  1.00  0.00    -0.472 OA 
BRANCH  15  17
HETATM   17  O   UNL     1     -12.438  13.628  70.792  1.00  0.00    -0.343 OA 
BRANCH  17  18
HETATM   18  C   UNL     1     -13.111  14.854  71.103  1.00  0.00    -0.396 C  
HETATM   19  C   UNL     1     -12.113  15.776  71.779  1.00  0.00    -0.541 C  
ENDBRANCH  17  18
ENDBRANCH  15  17
ENDBRANCH   7  15
ENDBRANCH   6   7
ENDBRANCH   4   6
ENDBRANCH   3   4
ENDBRANCH   2   3
TORSDOF 11
ENDMDL
MODEL       79
REMARK 921   NORMALIZED FREE ENERGY PREDICTED BY IDOCK:   -3.92 KCAL/MOL
REMARK 922        TOTAL FREE ENERGY PREDICTED BY IDOCK:   -7.14 KCAL/MOL
REMARK 923 INTER-LIGAND FREE ENERGY PREDICTED BY IDOCK:   -6.69 KCAL/MOL
REMARK 924 INTRA-LIGAND FREE ENERGY PREDICTED BY IDOCK:   -0.45 KCAL/MOL
REMARK 927      BINDING AFFINITY PREDICTED BY RF-SCORE:    0.00 PKD
ROOT
HETATM    1  C   UNL     1     -10.024  20.127  66.382  1.00  0.00    -0.573 C  
HETATM    2  C   UNL     1     -10.469  18.701  66.658  1.00  0.00    -0.413 C  
ENDROOT
BRANCH   2   3
HETATM    3  O   UNL     1      -9.725  17.841  65.788  1.00  0.00    -0.534 OA 
BRANCH   3   4
HETATM    4  C   UNL     1     -10.413  16.808  65.242  1.00  0.00    -0.131 C  
HETATM    5  O   UNL     1     -11.331  16.897  64.436  1.00  0.00    -1.133 OA 
BRANCH   4   6
HETATM    6  C   UNL     1      -9.757  15.510  65.614  1.00  0.00    -0.355 C  
BRANCH   6   7
HETATM    7  C   UNL     1      -9.726  15.321  67.125  1.00  0.00    -0.217 C  
BRANCH   7   8
HETATM    8  S   UNL     1     -10.107  13.598  67.652  1.00  0.00    -0.247 SA 
BRANCH   8   9
HETATM    9  P   UNL     1     -11.426  12.751  66.225  1.00  0.00    -0.394 P  
HETATM   10  S   UNL     1      -9.936  11.759  65.265  1.00  0.00    -0.252 S  
BRANCH   9  11
HETATM   11  O   UNL     1     -12.180  11.808  67.362  1.00  0.00    -0.501 OA 
HETATM   12  C   UNL     1     -11.465  11.092  68.360  1.00  0.00    -0.308 C  
ENDBRANCH   9  11
BRANCH   9  13
HETATM   13  O   UNL     1     -12.502  12.060  65.059  1.00  0.00    -0.414 OA 
HETATM   14  C   UNL     1     -12.469  12.657  63.778  1.00  0.00    -0.420 C  
ENDBRANCH   9  13
ENDBRANCH   8   9
ENDBRANCH   7   8
BRANCH   7  15
HETATM   15  C   UNL     1      -8.320  15.621  67.628  1.00  0.00    -0.155 C  
HETATM   16  O   UNL     1      -7.394  16.002  66.925  1.00  0.00    -0.219 OA 
BRANCH  15  17
HETATM   17  O   UNL     1      -8.221  15.303  68.950  1.00  0.00    -0.157 OA 
BRANCH  17  18
HETATM   18  C   UNL     1      -6.887  15.066  69.417  1.00  0.00    -0.165 C  
HETATM   19  C   UNL     1      -6.617  13.575  69.317  1.00  0.00    -0.103 C  
ENDBRANCH  17  18
ENDBRANCH  15  17
ENDBRANCH   7  15
ENDBRANCH   6   7
ENDBRANCH   4   6
ENDBRANCH   3   4
ENDBRANCH   2   3
TORSDOF 11
ENDMDL
MODEL       80
REMARK 921   NORMALIZED FREE ENERGY PREDICTED BY IDOCK:   -3.92 KCAL/MOL
REMARK 922        TOTAL FREE ENERGY PREDICTED BY IDOCK:   -7.14 KCAL/MOL
REMARK 923 INTER-LIGAND FREE ENERGY PREDICTED BY IDOCK:   -6.27 KCAL/MOL
REMARK 924 INTRA-LIGAND FREE ENERGY PREDICTED BY IDOCK:   -0.87 KCAL/MOL
REMARK 927      BINDING AFFINITY PREDICTED BY RF-SCORE:    0.00 PKD
ROOT
HETATM    1  C   UNL     1     -12.440   9.498  71.587  1.00  0.00    -0.476 C  
HETATM    2  C   UNL     1     -12.555  10.961  71.198  1.00  0.00    -0.428 C  
ENDROOT
BRANCH   2   3
HETATM    3  O   UNL     1     -12.660  11.022  69.771  1.00  0.00    -0.249 OA 
BRANCH   3   4
HETATM    4  C   UNL     1     -11.850  11.917  69.152  1.00  0.00    -0.311 C  
HETATM    5  O   UNL     1     -11.999  13.132  69.134  1.00  0.00    -0.305 OA 
BRANCH   4   6
HETATM    6  C   UNL     1     -10.619  11.221  68.649  1.00  0.00    -0.231 C  
BRANCH   6   7
HETATM    7  C   UNL     1     -10.898  10.476  67.351  1.00  0.00    -0.291 C  
BRANCH   7   8
HETATM    8  S   UNL     1     -10.015  11.186  65.899  1.00  0.00    -0.250 SA 
BRANCH   8   9
HETATM    9  P   UNL     1     -11.326  12.541  64.930  1.00  0.00    -0.340 P  
HETATM   10  S   UNL     1     -10.531  14.159  65.865  1.00  0.00    -0.318 S  
BRANCH   9  11
HETATM   11  O   UNL     1     -10.639  12.270  63.446  1.00  0.00    -0.445 OA 
HETATM   12  C   UNL     1     -10.052  11.026  63.088  1.00  0.00    -0.302 C  
ENDBRANCH   9  11
BRANCH   9  13
HETATM   13  O   UNL     1     -12.397  13.647  64.141  1.00  0.00    -0.592 OA 
HETATM   14  C   UNL     1     -12.114  15.016  64.352  1.00  0.00    -0.359 C  
ENDBRANCH   9  13
ENDBRANCH   8   9
ENDBRANCH   7   8
BRANCH   7  15
HETATM   15  C   UNL     1     -10.403   9.042  67.493  1.00  0.00    -0.264 C  
HETATM   16  O   UNL     1     -10.039   8.335  66.564  1.00  0.00    -0.273 OA 
BRANCH  15  17
HETATM   17  O   UNL     1     -10.525   8.633  68.788  1.00  0.00    -0.214 OA 
BRANCH  17  18
HETATM   18  C   UNL     1     -10.053   7.306  69.050  1.00  0.00    -0.186 C  
HETATM   19  C   UNL     1     -11.263   6.424  69.301  1.00  0.00    -0.440 C  
ENDBRANCH  17  18
ENDBRANCH  15  17
ENDBRANCH   7  15
ENDBRANCH   6   7
ENDBRANCH   4   6
ENDBRANCH   3   4
ENDBRANCH   2   3
TORSDOF 11
ENDMDL
MODEL       81
REMARK 921   NORMALIZED FREE ENERGY PREDICTED BY IDOCK:   -3.91 KCAL/MOL
REMARK 922        TOTAL FREE ENERGY PREDICTED BY IDOCK:   -7.11 KCAL/MOL
REMARK 923 INTER-LIGAND FREE ENERGY PREDICTED BY IDOCK:   -6.38 KCAL/MOL
REMARK 924 INTRA-LIGAND FREE ENERGY PREDICTED BY IDOCK:   -0.74 KCAL/MOL
REMARK 927      BINDING AFFINITY PREDICTED BY RF-SCORE:    0.00 PKD
ROOT
HETATM    1  C   UNL     1     -12.316  15.777  74.507  1.00  0.00    -0.776 C  
HETATM    2  C   UNL     1     -12.896  15.476  73.136  1.00  0.00    -0.497 C  
ENDROOT
BRANCH   2   3
HETATM    3  O   UNL     1     -11.859  15.696  72.172  1.00  0.00    -0.385 OA 
BRANCH   3   4
HETATM    4  C   UNL     1     -12.248  15.711  70.873  1.00  0.00    -0.419 C  
HETATM    5  O   UNL     1     -13.402  15.687  70.464  1.00  0.00    -0.426 OA 
BRANCH   4   6
HETATM    6  C   UNL     1     -11.058  15.963  69.992  1.00  0.00    -0.356 C  
BRANCH   6   7
HETATM    7  C   UNL     1     -11.438  15.894  68.519  1.00  0.00    -0.377 C  
BRANCH   7   8
HETATM    8  S   UNL     1     -10.419  16.995  67.451  1.00  0.00    -0.296 SA 
BRANCH   8   9
HETATM    9  P   UNL     1      -8.457  17.054  68.252  1.00  0.00    -0.247 P  
HETATM   10  S   UNL     1      -7.582  16.898  66.426  1.00  0.00    -0.280 S  
BRANCH   9  11
HETATM   11  O   UNL     1      -8.617  18.630  68.741  1.00  0.00    -0.324 OA 
HETATM   12  C   UNL     1      -8.918  19.686  67.839  1.00  0.00    -0.324 C  
ENDBRANCH   9  11
BRANCH   9  13
HETATM   13  O   UNL     1      -6.855  17.101  68.905  1.00  0.00    -0.198 OA 
HETATM   14  C   UNL     1      -6.493  15.988  69.698  1.00  0.00    -0.190 C  
ENDBRANCH   9  13
ENDBRANCH   8   9
ENDBRANCH   7   8
BRANCH   7  15
HETATM   15  C   UNL     1     -11.204  14.475  68.018  1.00  0.00    -0.292 C  
HETATM   16  O   UNL     1     -11.906  13.900  67.197  1.00  0.00    -0.367 OA 
BRANCH  15  17
HETATM   17  O   UNL     1     -10.163  13.909  68.692  1.00  0.00    -0.231 OA 
BRANCH  17  18
HETATM   18  C   UNL     1      -9.554  12.790  68.035  1.00  0.00    -0.217 C  
HETATM   19  C   UNL     1      -8.161  13.208  67.599  1.00  0.00    -0.175 C  
ENDBRANCH  17  18
ENDBRANCH  15  17
ENDBRANCH   7  15
ENDBRANCH   6   7
ENDBRANCH   4   6
ENDBRANCH   3   4
ENDBRANCH   2   3
TORSDOF 11
ENDMDL
MODEL       82
REMARK 921   NORMALIZED FREE ENERGY PREDICTED BY IDOCK:   -3.90 KCAL/MOL
REMARK 922        TOTAL FREE ENERGY PREDICTED BY IDOCK:   -7.10 KCAL/MOL
REMARK 923 INTER-LIGAND FREE ENERGY PREDICTED BY IDOCK:   -6.43 KCAL/MOL
REMARK 924 INTRA-LIGAND FREE ENERGY PREDICTED BY IDOCK:   -0.67 KCAL/MOL
REMARK 927      BINDING AFFINITY PREDICTED BY RF-SCORE:    0.00 PKD
ROOT
HETATM    1  C   UNL     1     -13.833   9.275  71.980  1.00  0.00    -0.446 C  
HETATM    2  C   UNL     1     -13.029  10.560  71.901  1.00  0.00    -0.447 C  
ENDROOT
BRANCH   2   3
HETATM    3  O   UNL     1     -12.110  10.428  70.810  1.00  0.00    -0.304 OA 
BRANCH   3   4
HETATM    4  C   UNL     1     -11.930  11.533  70.046  1.00  0.00    -0.357 C  
HETATM    5  O   UNL     1     -12.394  12.646  70.264  1.00  0.00    -0.281 OA 
BRANCH   4   6
HETATM    6  C   UNL     1     -10.906  11.253  68.983  1.00  0.00    -0.268 C  
BRANCH   6   7
HETATM    7  C   UNL     1     -10.834  12.390  67.974  1.00  0.00    -0.221 C  
BRANCH   7   8
HETATM    8  S   UNL     1      -9.197  13.234  67.944  1.00  0.00    -0.221 SA 
BRANCH   8   9
HETATM    9  P   UNL     1      -9.527  15.315  68.172  1.00  0.00    -0.209 P  
HETATM   10  S   UNL     1      -9.364  15.677  66.180  1.00  0.00    -0.353 S  
BRANCH   9  11
HETATM   11  O   UNL     1     -11.101  15.095  68.645  1.00  0.00    -0.247 OA 
HETATM   12  C   UNL     1     -11.732  15.920  69.615  1.00  0.00    -0.317 C  
ENDBRANCH   9  11
BRANCH   9  13
HETATM   13  O   UNL     1      -9.795  17.014  68.357  1.00  0.00    -0.257 OA 
HETATM   14  C   UNL     1      -8.765  17.847  67.862  1.00  0.00    -0.252 C  
ENDBRANCH   9  13
ENDBRANCH   8   9
ENDBRANCH   7   8
BRANCH   7  15
HETATM   15  C   UNL     1     -11.047  11.820  66.577  1.00  0.00    -0.310 C  
HETATM   16  O   UNL     1     -10.219  11.167  65.956  1.00  0.00    -0.234 OA 
BRANCH  15  17
HETATM   17  O   UNL     1     -12.249  12.233  66.084  1.00  0.00    -0.647 OA 
BRANCH  17  18
HETATM   18  C   UNL     1     -12.171  13.078  64.930  1.00  0.00    -0.441 C  
HETATM   19  C   UNL     1     -12.532  12.242  63.716  1.00  0.00    -0.619 C  
ENDBRANCH  17  18
ENDBRANCH  15  17
ENDBRANCH   7  15
ENDBRANCH   6   7
ENDBRANCH   4   6
ENDBRANCH   3   4
ENDBRANCH   2   3
TORSDOF 11
ENDMDL
MODEL       83
REMARK 921   NORMALIZED FREE ENERGY PREDICTED BY IDOCK:   -3.90 KCAL/MOL
REMARK 922        TOTAL FREE ENERGY PREDICTED BY IDOCK:   -7.10 KCAL/MOL
REMARK 923 INTER-LIGAND FREE ENERGY PREDICTED BY IDOCK:   -6.29 KCAL/MOL
REMARK 924 INTRA-LIGAND FREE ENERGY PREDICTED BY IDOCK:   -0.81 KCAL/MOL
REMARK 927      BINDING AFFINITY PREDICTED BY RF-SCORE:    0.00 PKD
ROOT
HETATM    1  C   UNL     1      -8.085  16.804  66.250  1.00  0.00    -0.365 C  
HETATM    2  C   UNL     1      -8.613  15.903  67.353  1.00  0.00    -0.172 C  
ENDROOT
BRANCH   2   3
HETATM    3  O   UNL     1      -9.906  15.438  66.947  1.00  0.00    -0.236 OA 
BRANCH   3   4
HETATM    4  C   UNL     1     -10.931  15.719  67.790  1.00  0.00    -0.314 C  
HETATM    5  O   UNL     1     -11.125  16.785  68.362  1.00  0.00    -0.357 OA 
BRANCH   4   6
HETATM    6  C   UNL     1     -11.921  14.591  67.776  1.00  0.00    -0.345 C  
BRANCH   6   7
HETATM    7  C   UNL     1     -11.484  13.486  66.825  1.00  0.00    -0.346 C  
BRANCH   7   8
HETATM    8  S   UNL     1     -11.589  11.803  67.567  1.00  0.00    -0.251 SA 
BRANCH   8   9
HETATM    9  P   UNL     1      -9.678  11.302  68.335  1.00  0.00    -0.194 P  
HETATM   10  S   UNL     1     -10.432   9.948  69.647  1.00  0.00    -0.267 S  
BRANCH   9  11
HETATM   11  O   UNL     1      -9.201  10.600  66.910  1.00  0.00    -0.154 OA 
HETATM   12  C   UNL     1      -9.805   9.420  66.397  1.00  0.00    -0.269 C  
ENDBRANCH   9  11
BRANCH   9  13
HETATM   13  O   UNL     1      -8.118  10.894  68.962  1.00  0.00    -0.142 OA 
HETATM   14  C   UNL     1      -8.092   9.788  69.843  1.00  0.00    -0.182 C  
ENDBRANCH   9  13
ENDBRANCH   8   9
ENDBRANCH   7   8
BRANCH   7  15
HETATM   15  C   UNL     1     -12.414  13.480  65.619  1.00  0.00    -0.479 C  
HETATM   16  O   UNL     1     -13.092  14.431  65.256  1.00  0.00    -0.629 OA 
BRANCH  15  17
HETATM   17  O   UNL     1     -12.455  12.233  65.069  1.00  0.00    -0.535 OA 
BRANCH  17  18
HETATM   18  C   UNL     1     -12.145  12.178  63.671  1.00  0.00    -0.551 C  
HETATM   19  C   UNL     1     -10.693  11.756  63.533  1.00  0.00    -0.501 C  
ENDBRANCH  17  18
ENDBRANCH  15  17
ENDBRANCH   7  15
ENDBRANCH   6   7
ENDBRANCH   4   6
ENDBRANCH   3   4
ENDBRANCH   2   3
TORSDOF 11
ENDMDL
MODEL       84
REMARK 921   NORMALIZED FREE ENERGY PREDICTED BY IDOCK:   -3.89 KCAL/MOL
REMARK 922        TOTAL FREE ENERGY PREDICTED BY IDOCK:   -7.10 KCAL/MOL
REMARK 923 INTER-LIGAND FREE ENERGY PREDICTED BY IDOCK:   -6.19 KCAL/MOL
REMARK 924 INTRA-LIGAND FREE ENERGY PREDICTED BY IDOCK:   -0.90 KCAL/MOL
REMARK 927      BINDING AFFINITY PREDICTED BY RF-SCORE:    0.00 PKD
ROOT
HETATM    1  C   UNL     1     -14.031  14.811  71.881  1.00  0.00    -0.577 C  
HETATM    2  C   UNL     1     -13.089  15.341  70.814  1.00  0.00    -0.414 C  
ENDROOT
BRANCH   2   3
HETATM    3  O   UNL     1     -11.952  14.470  70.772  1.00  0.00    -0.292 OA 
BRANCH   3   4
HETATM    4  C   UNL     1     -11.937  13.560  69.767  1.00  0.00    -0.340 C  
HETATM    5  O   UNL     1     -12.090  12.350  69.885  1.00  0.00    -0.299 OA 
BRANCH   4   6
HETATM    6  C   UNL     1     -11.902  14.268  68.443  1.00  0.00    -0.373 C  
BRANCH   6   7
HETATM    7  C   UNL     1     -10.471  14.492  67.975  1.00  0.00    -0.236 C  
BRANCH   7   8
HETATM    8  S   UNL     1     -10.289  14.455  66.143  1.00  0.00    -0.310 SA 
BRANCH   8   9
HETATM    9  P   UNL     1     -10.191  12.427  65.533  1.00  0.00    -0.264 P  
HETATM   10  S   UNL     1      -9.270  11.837  67.244  1.00  0.00    -0.177 S  
BRANCH   9  11
HETATM   11  O   UNL     1     -11.837  12.241  65.608  1.00  0.00    -0.406 OA 
HETATM   12  C   UNL     1     -12.699  12.605  64.539  1.00  0.00    -0.357 C  
ENDBRANCH   9  11
BRANCH   9  13
HETATM   13  O   UNL     1     -10.109  10.772  65.036  1.00  0.00    -0.272 OA 
HETATM   14  C   UNL     1      -8.913  10.395  64.382  1.00  0.00    -0.223 C  
ENDBRANCH   9  13
ENDBRANCH   8   9
ENDBRANCH   7   8
BRANCH   7  15
HETATM   15  C   UNL     1     -10.021  15.877  68.421  1.00  0.00    -0.222 C  
HETATM   16  O   UNL     1      -9.017  16.105  69.082  1.00  0.00    -0.242 OA 
BRANCH  15  17
HETATM   17  O   UNL     1     -10.952  16.807  68.066  1.00  0.00    -0.356 OA 
BRANCH  17  18
HETATM   18  C   UNL     1     -10.434  18.122  67.830  1.00  0.00    -0.392 C  
HETATM   19  C   UNL     1     -10.394  18.344  66.329  1.00  0.00    -0.440 C  
ENDBRANCH  17  18
ENDBRANCH  15  17
ENDBRANCH   7  15
ENDBRANCH   6   7
ENDBRANCH   4   6
ENDBRANCH   3   4
ENDBRANCH   2   3
TORSDOF 11
ENDMDL
MODEL       85
REMARK 921   NORMALIZED FREE ENERGY PREDICTED BY IDOCK:   -3.89 KCAL/MOL
REMARK 922        TOTAL FREE ENERGY PREDICTED BY IDOCK:   -7.09 KCAL/MOL
REMARK 923 INTER-LIGAND FREE ENERGY PREDICTED BY IDOCK:   -6.23 KCAL/MOL
REMARK 924 INTRA-LIGAND FREE ENERGY PREDICTED BY IDOCK:   -0.86 KCAL/MOL
REMARK 927      BINDING AFFINITY PREDICTED BY RF-SCORE:    0.00 PKD
ROOT
HETATM    1  C   UNL     1     -12.256  12.185  63.455  1.00  0.00    -0.635 C  
HETATM    2  C   UNL     1     -12.333  13.597  64.008  1.00  0.00    -0.325 C  
ENDROOT
BRANCH   2   3
HETATM    3  O   UNL     1     -11.004  13.993  64.367  1.00  0.00    -0.365 OA 
BRANCH   3   4
HETATM    4  C   UNL     1     -10.902  15.098  65.147  1.00  0.00    -0.422 C  
HETATM    5  O   UNL     1     -10.783  16.252  64.753  1.00  0.00    -0.680 OA 
BRANCH   4   6
HETATM    6  C   UNL     1     -11.156  14.731  66.580  1.00  0.00    -0.333 C  
BRANCH   6   7
HETATM    7  C   UNL     1     -10.287  13.558  67.012  1.00  0.00    -0.252 C  
BRANCH   7   8
HETATM    8  S   UNL     1      -9.022  14.013  68.271  1.00  0.00    -0.188 SA 
BRANCH   8   9
HETATM    9  P   UNL     1      -7.665  15.375  67.377  1.00  0.00    -0.218 P  
HETATM   10  S   UNL     1      -8.517  16.989  68.268  1.00  0.00    -0.241 S  
BRANCH   9  11
HETATM   11  O   UNL     1      -6.378  14.785  68.242  1.00  0.00    -0.102 OA 
HETATM   12  C   UNL     1      -5.301  15.607  68.671  1.00  0.00    -0.093 C  
ENDBRANCH   9  11
BRANCH   9  13
HETATM   13  O   UNL     1      -6.558  16.487  66.648  1.00  0.00    -0.233 OA 
HETATM   14  C   UNL     1      -7.150  17.619  66.042  1.00  0.00    -0.283 C  
ENDBRANCH   9  13
ENDBRANCH   8   9
ENDBRANCH   7   8
BRANCH   7  15
HETATM   15  C   UNL     1     -11.173  12.502  67.659  1.00  0.00    -0.282 C  
HETATM   16  O   UNL     1     -12.016  11.841  67.067  1.00  0.00    -0.610 OA 
BRANCH  15  17
HETATM   17  O   UNL     1     -10.962  12.478  69.006  1.00  0.00    -0.233 OA 
BRANCH  17  18
HETATM   18  C   UNL     1     -11.863  11.644  69.744  1.00  0.00    -0.357 C  
HETATM   19  C   UNL     1     -11.092  10.421  70.207  1.00  0.00    -0.379 C  
ENDBRANCH  17  18
ENDBRANCH  15  17
ENDBRANCH   7  15
ENDBRANCH   6   7
ENDBRANCH   4   6
ENDBRANCH   3   4
ENDBRANCH   2   3
TORSDOF 11
ENDMDL
MODEL       86
REMARK 921   NORMALIZED FREE ENERGY PREDICTED BY IDOCK:   -3.89 KCAL/MOL
REMARK 922        TOTAL FREE ENERGY PREDICTED BY IDOCK:   -7.08 KCAL/MOL
REMARK 923 INTER-LIGAND FREE ENERGY PREDICTED BY IDOCK:   -6.36 KCAL/MOL
REMARK 924 INTRA-LIGAND FREE ENERGY PREDICTED BY IDOCK:   -0.72 KCAL/MOL
REMARK 927      BINDING AFFINITY PREDICTED BY RF-SCORE:    0.00 PKD
ROOT
HETATM    1  C   UNL     1     -12.544  15.728  71.716  1.00  0.00    -0.524 C  
HETATM    2  C   UNL     1     -13.026  14.707  70.700  1.00  0.00    -0.313 C  
ENDROOT
BRANCH   2   3
HETATM    3  O   UNL     1     -12.208  13.540  70.840  1.00  0.00    -0.351 OA 
BRANCH   3   4
HETATM    4  C   UNL     1     -12.816  12.446  71.363  1.00  0.00    -0.260 C  
HETATM    5  O   UNL     1     -13.542  12.426  72.350  1.00  0.00    -0.478 OA 
BRANCH   4   6
HETATM    6  C   UNL     1     -12.635  11.276  70.440  1.00  0.00    -0.292 C  
BRANCH   6   7
HETATM    7  C   UNL     1     -11.254  11.289  69.798  1.00  0.00    -0.220 C  
BRANCH   7   8
HETATM    8  S   UNL     1     -10.364   9.684  69.953  1.00  0.00    -0.269 SA 
BRANCH   8   9
HETATM    9  P   UNL     1     -11.611   8.341  71.019  1.00  0.00    -0.228 P  
HETATM   10  S   UNL     1     -10.948   6.723  69.985  1.00  0.00    -0.320 S  
BRANCH   9  11
HETATM   11  O   UNL     1     -10.779   8.567  72.436  1.00  0.00    -0.341 OA 
HETATM   12  C   UNL     1     -10.546   7.516  73.364  1.00  0.00    -0.354 C  
ENDBRANCH   9  11
BRANCH   9  13
HETATM   13  O   UNL     1     -12.629   7.244  71.887  1.00  0.00    -0.316 OA 
HETATM   14  C   UNL     1     -14.016   7.403  71.666  1.00  0.00    -0.403 C  
ENDBRANCH   9  13
ENDBRANCH   8   9
ENDBRANCH   7   8
BRANCH   7  15
HETATM   15  C   UNL     1     -11.410  11.549  68.306  1.00  0.00    -0.286 C  
HETATM   16  O   UNL     1     -11.818  10.730  67.493  1.00  0.00    -0.451 OA 
BRANCH  15  17
HETATM   17  O   UNL     1     -10.931  12.788  67.996  1.00  0.00    -0.222 OA 
BRANCH  17  18
HETATM   18  C   UNL     1     -11.873  13.657  67.356  1.00  0.00    -0.393 C  
HETATM   19  C   UNL     1     -11.277  15.053  67.333  1.00  0.00    -0.337 C  
ENDBRANCH  17  18
ENDBRANCH  15  17
ENDBRANCH   7  15
ENDBRANCH   6   7
ENDBRANCH   4   6
ENDBRANCH   3   4
ENDBRANCH   2   3
TORSDOF 11
ENDMDL
MODEL       87
REMARK 921   NORMALIZED FREE ENERGY PREDICTED BY IDOCK:   -3.88 KCAL/MOL
REMARK 922        TOTAL FREE ENERGY PREDICTED BY IDOCK:   -7.08 KCAL/MOL
REMARK 923 INTER-LIGAND FREE ENERGY PREDICTED BY IDOCK:   -6.43 KCAL/MOL
REMARK 924 INTRA-LIGAND FREE ENERGY PREDICTED BY IDOCK:   -0.65 KCAL/MOL
REMARK 927      BINDING AFFINITY PREDICTED BY RF-SCORE:    0.00 PKD
ROOT
HETATM    1  C   UNL     1     -10.602  15.557  65.655  1.00  0.00    -0.389 C  
HETATM    2  C   UNL     1     -10.763  15.203  67.123  1.00  0.00    -0.310 C  
ENDROOT
BRANCH   2   3
HETATM    3  O   UNL     1     -12.021  14.533  67.270  1.00  0.00    -0.405 OA 
BRANCH   3   4
HETATM    4  C   UNL     1     -11.985  13.179  67.206  1.00  0.00    -0.335 C  
HETATM    5  O   UNL     1     -12.323  12.491  66.251  1.00  0.00    -0.570 OA 
BRANCH   4   6
HETATM    6  C   UNL     1     -11.278  12.635  68.414  1.00  0.00    -0.316 C  
BRANCH   6   7
HETATM    7  C   UNL     1     -11.676  11.190  68.681  1.00  0.00    -0.320 C  
BRANCH   7   8
HETATM    8  S   UNL     1     -10.313   9.990  68.372  1.00  0.00    -0.202 SA 
BRANCH   8   9
HETATM    9  P   UNL     1      -9.894   9.992  66.293  1.00  0.00    -0.256 P  
HETATM   10  S   UNL     1      -8.209  11.104  66.517  1.00  0.00    -0.162 S  
BRANCH   9  11
HETATM   11  O   UNL     1      -9.576   8.364  66.274  1.00  0.00    -0.223 OA 
HETATM   12  C   UNL     1     -10.322   7.428  67.040  1.00  0.00    -0.314 C  
ENDBRANCH   9  11
BRANCH   9  13
HETATM   13  O   UNL     1      -9.552   9.995  64.598  1.00  0.00    -0.289 OA 
HETATM   14  C   UNL     1     -10.316  10.903  63.828  1.00  0.00    -0.317 C  
ENDBRANCH   9  13
ENDBRANCH   8   9
ENDBRANCH   7   8
BRANCH   7  15
HETATM   15  C   UNL     1     -12.046  11.046  70.151  1.00  0.00    -0.356 C  
HETATM   16  O   UNL     1     -12.106   9.984  70.755  1.00  0.00    -0.292 OA 
BRANCH  15  17
HETATM   17  O   UNL     1     -12.400  12.260  70.663  1.00  0.00    -0.354 OA 
BRANCH  17  18
HETATM   18  C   UNL     1     -13.190  12.205  71.857  1.00  0.00    -0.369 C  
HETATM   19  C   UNL     1     -13.533  13.629  72.254  1.00  0.00    -0.652 C  
ENDBRANCH  17  18
ENDBRANCH  15  17
ENDBRANCH   7  15
ENDBRANCH   6   7
ENDBRANCH   4   6
ENDBRANCH   3   4
ENDBRANCH   2   3
TORSDOF 11
ENDMDL
MODEL       88
REMARK 921   NORMALIZED FREE ENERGY PREDICTED BY IDOCK:   -3.88 KCAL/MOL
REMARK 922        TOTAL FREE ENERGY PREDICTED BY IDOCK:   -7.06 KCAL/MOL
REMARK 923 INTER-LIGAND FREE ENERGY PREDICTED BY IDOCK:   -6.41 KCAL/MOL
REMARK 924 INTRA-LIGAND FREE ENERGY PREDICTED BY IDOCK:   -0.65 KCAL/MOL
REMARK 927      BINDING AFFINITY PREDICTED BY RF-SCORE:    0.00 PKD
ROOT
HETATM    1  C   UNL     1     -10.537  11.500  63.720  1.00  0.00    -0.465 C  
HETATM    2  C   UNL     1     -11.932  12.099  63.768  1.00  0.00    -0.513 C  
ENDROOT
BRANCH   2   3
HETATM    3  O   UNL     1     -12.327  12.160  65.144  1.00  0.00    -0.488 OA 
BRANCH   3   4
HETATM    4  C   UNL     1     -12.521  13.403  65.652  1.00  0.00    -0.464 C  
HETATM    5  O   UNL     1     -13.445  14.159  65.377  1.00  0.00    -0.648 OA 
BRANCH   4   6
HETATM    6  C   UNL     1     -11.544  13.653  66.764  1.00  0.00    -0.393 C  
BRANCH   6   7
HETATM    7  C   UNL     1     -11.640  12.575  67.835  1.00  0.00    -0.347 C  
BRANCH   7   8
HETATM    8  S   UNL     1     -10.070  11.641  68.071  1.00  0.00    -0.195 SA 
BRANCH   8   9
HETATM    9  P   UNL     1     -10.535   9.803  69.020  1.00  0.00    -0.227 P  
HETATM   10  S   UNL     1     -10.485   8.758  67.279  1.00  0.00    -0.244 S  
BRANCH   9  11
HETATM   11  O   UNL     1      -9.084   9.758  69.822  1.00  0.00    -0.197 OA 
HETATM   12  C   UNL     1      -7.971  10.556  69.440  1.00  0.00    -0.140 C  
ENDBRANCH   9  11
BRANCH   9  13
HETATM   13  O   UNL     1     -10.915   8.303  69.794  1.00  0.00    -0.224 OA 
HETATM   14  C   UNL     1     -10.820   8.309  71.204  1.00  0.00    -0.233 C  
ENDBRANCH   9  13
ENDBRANCH   8   9
ENDBRANCH   7   8
BRANCH   7  15
HETATM   15  C   UNL     1     -11.948  13.237  69.172  1.00  0.00    -0.296 C  
HETATM   16  O   UNL     1     -12.096  12.639  70.229  1.00  0.00    -0.349 OA 
BRANCH  15  17
HETATM   17  O   UNL     1     -12.137  14.576  68.996  1.00  0.00    -0.306 OA 
BRANCH  17  18
HETATM   18  C   UNL     1     -11.903  15.377  70.161  1.00  0.00    -0.335 C  
HETATM   19  C   UNL     1     -10.849  16.412  69.810  1.00  0.00    -0.343 C  
ENDBRANCH  17  18
ENDBRANCH  15  17
ENDBRANCH   7  15
ENDBRANCH   6   7
ENDBRANCH   4   6
ENDBRANCH   3   4
ENDBRANCH   2   3
TORSDOF 11
ENDMDL
MODEL       89
REMARK 921   NORMALIZED FREE ENERGY PREDICTED BY IDOCK:   -3.84 KCAL/MOL
REMARK 922        TOTAL FREE ENERGY PREDICTED BY IDOCK:   -7.01 KCAL/MOL
REMARK 923 INTER-LIGAND FREE ENERGY PREDICTED BY IDOCK:   -6.07 KCAL/MOL
REMARK 924 INTRA-LIGAND FREE ENERGY PREDICTED BY IDOCK:   -0.94 KCAL/MOL
REMARK 927      BINDING AFFINITY PREDICTED BY RF-SCORE:    0.00 PKD
ROOT
HETATM    1  C   UNL     1      -9.958   8.920  66.273  1.00  0.00    -0.337 C  
HETATM    2  C   UNL     1      -9.781   9.846  65.083  1.00  0.00    -0.306 C  
ENDROOT
BRANCH   2   3
HETATM    3  O   UNL     1      -8.669  10.704  65.365  1.00  0.00    -0.178 OA 
BRANCH   3   4
HETATM    4  C   UNL     1      -8.964  11.878  65.977  1.00  0.00    -0.066 C  
HETATM    5  O   UNL     1      -8.420  12.327  66.978  1.00  0.00    -0.180 OA 
BRANCH   4   6
HETATM    6  C   UNL     1      -9.930  12.659  65.134  1.00  0.00    -0.194 C  
BRANCH   6   7
HETATM    7  C   UNL     1     -10.621  13.743  65.948  1.00  0.00    -0.289 C  
BRANCH   7   8
HETATM    8  S   UNL     1     -10.544  15.407  65.161  1.00  0.00    -0.423 SA 
BRANCH   8   9
HETATM    9  P   UNL     1     -10.239  16.844  66.690  1.00  0.00    -0.283 P  
HETATM   10  S   UNL     1      -8.340  16.221  67.055  1.00  0.00    -0.229 S  
BRANCH   9  11
HETATM   11  O   UNL     1     -10.291  18.110  65.621  1.00  0.00    -0.603 OA 
HETATM   12  C   UNL     1     -10.306  19.468  66.040  1.00  0.00    -0.511 C  
ENDBRANCH   9  11
BRANCH   9  13
HETATM   13  O   UNL     1      -9.989  18.015  67.938  1.00  0.00    -0.301 OA 
HETATM   14  C   UNL     1     -10.207  17.550  69.256  1.00  0.00    -0.180 C  
ENDBRANCH   9  13
ENDBRANCH   8   9
ENDBRANCH   7   8
BRANCH   7  15
HETATM   15  C   UNL     1     -12.099  13.397  66.072  1.00  0.00    -0.438 C  
HETATM   16  O   UNL     1     -12.828  13.106  65.134  1.00  0.00    -0.669 OA 
BRANCH  15  17
HETATM   17  O   UNL     1     -12.509  13.560  67.362  1.00  0.00    -0.186 OA 
BRANCH  17  18
HETATM   18  C   UNL     1     -11.597  13.072  68.353  1.00  0.00    -0.335 C  
HETATM   19  C   UNL     1     -11.808  11.575  68.484  1.00  0.00    -0.365 C  
ENDBRANCH  17  18
ENDBRANCH  15  17
ENDBRANCH   7  15
ENDBRANCH   6   7
ENDBRANCH   4   6
ENDBRANCH   3   4
ENDBRANCH   2   3
TORSDOF 11
ENDMDL
MODEL       90
REMARK 921   NORMALIZED FREE ENERGY PREDICTED BY IDOCK:   -3.84 KCAL/MOL
REMARK 922        TOTAL FREE ENERGY PREDICTED BY IDOCK:   -7.00 KCAL/MOL
REMARK 923 INTER-LIGAND FREE ENERGY PREDICTED BY IDOCK:   -6.75 KCAL/MOL
REMARK 924 INTRA-LIGAND FREE ENERGY PREDICTED BY IDOCK:   -0.25 KCAL/MOL
REMARK 927      BINDING AFFINITY PREDICTED BY RF-SCORE:    0.00 PKD
ROOT
HETATM    1  C   UNL     1     -11.063  14.922  65.021  1.00  0.00    -0.422 C  
HETATM    2  C   UNL     1     -12.329  14.176  65.403  1.00  0.00    -0.463 C  
ENDROOT
BRANCH   2   3
HETATM    3  O   UNL     1     -12.260  13.901  66.807  1.00  0.00    -0.429 OA 
BRANCH   3   4
HETATM    4  C   UNL     1     -11.941  12.629  67.149  1.00  0.00    -0.256 C  
HETATM    5  O   UNL     1     -11.699  11.711  66.374  1.00  0.00    -0.472 OA 
BRANCH   4   6
HETATM    6  C   UNL     1     -11.727  12.542  68.633  1.00  0.00    -0.368 C  
BRANCH   6   7
HETATM    7  C   UNL     1     -11.810  11.102  69.119  1.00  0.00    -0.350 C  
BRANCH   7   8
HETATM    8  S   UNL     1     -10.160  10.332  69.399  1.00  0.00    -0.234 SA 
BRANCH   8   9
HETATM    9  P   UNL     1     -10.291   9.108  71.125  1.00  0.00    -0.325 P  
HETATM   10  S   UNL     1     -10.730   7.441  70.052  1.00  0.00    -0.247 S  
BRANCH   9  11
HETATM   11  O   UNL     1      -8.669   9.243  71.443  1.00  0.00    -0.317 OA 
HETATM   12  C   UNL     1      -7.683   9.223  70.419  1.00  0.00    -0.143 C  
ENDBRANCH   9  11
BRANCH   9  13
HETATM   13  O   UNL     1     -10.399   8.109  72.534  1.00  0.00    -0.282 OA 
HETATM   14  C   UNL     1     -11.510   7.235  72.571  1.00  0.00    -0.281 C  
ENDBRANCH   9  13
ENDBRANCH   8   9
ENDBRANCH   7   8
BRANCH   7  15
HETATM   15  C   UNL     1     -12.527  11.077  70.462  1.00  0.00    -0.344 C  
HETATM   16  O   UNL     1     -13.165  10.128  70.895  1.00  0.00    -0.395 OA 
BRANCH  15  17
HETATM   17  O   UNL     1     -12.438  12.300  71.060  1.00  0.00    -0.370 OA 
BRANCH  17  18
HETATM   18  C   UNL     1     -13.388  12.531  72.107  1.00  0.00    -0.435 C  
HETATM   19  C   UNL     1     -13.399  14.019  72.406  1.00  0.00    -0.617 C  
ENDBRANCH  17  18
ENDBRANCH  15  17
ENDBRANCH   7  15
ENDBRANCH   6   7
ENDBRANCH   4   6
ENDBRANCH   3   4
ENDBRANCH   2   3
TORSDOF 11
ENDMDL
MODEL       91
REMARK 921   NORMALIZED FREE ENERGY PREDICTED BY IDOCK:   -3.83 KCAL/MOL
REMARK 922        TOTAL FREE ENERGY PREDICTED BY IDOCK:   -6.99 KCAL/MOL
REMARK 923 INTER-LIGAND FREE ENERGY PREDICTED BY IDOCK:   -6.32 KCAL/MOL
REMARK 924 INTRA-LIGAND FREE ENERGY PREDICTED BY IDOCK:   -0.68 KCAL/MOL
REMARK 927      BINDING AFFINITY PREDICTED BY RF-SCORE:    0.00 PKD
ROOT
HETATM    1  C   UNL     1     -11.713  10.067  71.027  1.00  0.00    -0.479 C  
HETATM    2  C   UNL     1     -12.392  11.061  70.101  1.00  0.00    -0.311 C  
ENDROOT
BRANCH   2   3
HETATM    3  O   UNL     1     -11.372  11.905  69.552  1.00  0.00    -0.263 OA 
BRANCH   3   4
HETATM    4  C   UNL     1     -11.716  13.201  69.353  1.00  0.00    -0.327 C  
HETATM    5  O   UNL     1     -12.478  13.862  70.048  1.00  0.00    -0.329 OA 
BRANCH   4   6
HETATM    6  C   UNL     1     -10.870  13.786  68.259  1.00  0.00    -0.266 C  
BRANCH   6   7
HETATM    7  C   UNL     1     -11.701  14.085  67.019  1.00  0.00    -0.398 C  
BRANCH   7   8
HETATM    8  S   UNL     1     -11.015  15.452  65.993  1.00  0.00    -0.241 SA 
BRANCH   8   9
HETATM    9  P   UNL     1      -9.910  16.738  67.266  1.00  0.00    -0.275 P  
HETATM   10  S   UNL     1      -8.127  16.198  66.456  1.00  0.00    -0.270 S  
BRANCH   9  11
HETATM   11  O   UNL     1     -10.534  18.103  66.562  1.00  0.00    -0.367 OA 
HETATM   12  C   UNL     1     -10.710  19.321  67.272  1.00  0.00    -0.488 C  
ENDBRANCH   9  11
BRANCH   9  13
HETATM   13  O   UNL     1      -9.007  17.786  68.305  1.00  0.00    -0.263 OA 
HETATM   14  C   UNL     1      -7.801  17.247  68.807  1.00  0.00    -0.254 C  
ENDBRANCH   9  13
ENDBRANCH   8   9
ENDBRANCH   7   8
BRANCH   7  15
HETATM   15  C   UNL     1     -11.716  12.849  66.129  1.00  0.00    -0.396 C  
HETATM   16  O   UNL     1     -12.674  12.480  65.462  1.00  0.00    -0.583 OA 
BRANCH  15  17
HETATM   17  O   UNL     1     -10.546  12.162  66.266  1.00  0.00    -0.238 OA 
BRANCH  17  18
HETATM   18  C   UNL     1     -10.154  11.400  65.118  1.00  0.00    -0.271 C  
HETATM   19  C   UNL     1     -10.144   9.935  65.512  1.00  0.00    -0.297 C  
ENDBRANCH  17  18
ENDBRANCH  15  17
ENDBRANCH   7  15
ENDBRANCH   6   7
ENDBRANCH   4   6
ENDBRANCH   3   4
ENDBRANCH   2   3
TORSDOF 11
ENDMDL
MODEL       92
REMARK 921   NORMALIZED FREE ENERGY PREDICTED BY IDOCK:   -3.81 KCAL/MOL
REMARK 922        TOTAL FREE ENERGY PREDICTED BY IDOCK:   -6.96 KCAL/MOL
REMARK 923 INTER-LIGAND FREE ENERGY PREDICTED BY IDOCK:   -6.17 KCAL/MOL
REMARK 924 INTRA-LIGAND FREE ENERGY PREDICTED BY IDOCK:   -0.80 KCAL/MOL
REMARK 927      BINDING AFFINITY PREDICTED BY RF-SCORE:    0.00 PKD
ROOT
HETATM    1  C   UNL     1     -13.463  13.146  72.181  1.00  0.00    -0.653 C  
HETATM    2  C   UNL     1     -13.026  11.865  71.492  1.00  0.00    -0.323 C  
ENDROOT
BRANCH   2   3
HETATM    3  O   UNL     1     -13.617  10.771  72.203  1.00  0.00    -0.276 OA 
BRANCH   3   4
HETATM    4  C   UNL     1     -13.164   9.535  71.876  1.00  0.00    -0.439 C  
HETATM    5  O   UNL     1     -13.854   8.567  71.581  1.00  0.00    -0.379 OA 
BRANCH   4   6
HETATM    6  C   UNL     1     -11.670   9.566  71.731  1.00  0.00    -0.411 C  
BRANCH   6   7
HETATM    7  C   UNL     1     -11.232   8.959  70.405  1.00  0.00    -0.230 C  
BRANCH   7   8
HETATM    8  S   UNL     1     -10.067  10.030  69.462  1.00  0.00    -0.240 SA 
BRANCH   8   9
HETATM    9  P   UNL     1     -11.196  11.165  68.073  1.00  0.00    -0.310 P  
HETATM   10  S   UNL     1      -9.893  12.722  68.110  1.00  0.00    -0.226 S  
BRANCH   9  11
HETATM   11  O   UNL     1     -10.881  10.110  66.833  1.00  0.00    -0.201 OA 
HETATM   12  C   UNL     1      -9.567   9.672  66.513  1.00  0.00    -0.196 C  
ENDBRANCH   9  11
BRANCH   9  13
HETATM   13  O   UNL     1     -12.118  12.092  66.939  1.00  0.00    -0.600 OA 
HETATM   14  C   UNL     1     -11.374  13.014  66.167  1.00  0.00    -0.314 C  
ENDBRANCH   9  13
ENDBRANCH   8   9
ENDBRANCH   7   8
BRANCH   7  15
HETATM   15  C   UNL     1     -10.488   7.659  70.683  1.00  0.00    -0.216 C  
HETATM   16  O   UNL     1     -10.256   7.212  71.798  1.00  0.00    -0.195 OA 
BRANCH  15  17
HETATM   17  O   UNL     1     -10.031   7.125  69.514  1.00  0.00    -0.161 OA 
BRANCH  17  18
HETATM   18  C   UNL     1     -10.846   6.081  68.967  1.00  0.00    -0.342 C  
HETATM   19  C   UNL     1     -11.031   6.362  67.487  1.00  0.00    -0.454 C  
ENDBRANCH  17  18
ENDBRANCH  15  17
ENDBRANCH   7  15
ENDBRANCH   6   7
ENDBRANCH   4   6
ENDBRANCH   3   4
ENDBRANCH   2   3
TORSDOF 11
ENDMDL
MODEL       93
REMARK 921   NORMALIZED FREE ENERGY PREDICTED BY IDOCK:   -3.80 KCAL/MOL
REMARK 922        TOTAL FREE ENERGY PREDICTED BY IDOCK:   -6.94 KCAL/MOL
REMARK 923 INTER-LIGAND FREE ENERGY PREDICTED BY IDOCK:   -6.11 KCAL/MOL
REMARK 924 INTRA-LIGAND FREE ENERGY PREDICTED BY IDOCK:   -0.83 KCAL/MOL
REMARK 927      BINDING AFFINITY PREDICTED BY RF-SCORE:    0.00 PKD
ROOT
HETATM    1  C   UNL     1      -9.589  10.896  62.978  1.00  0.00    -0.382 C  
HETATM    2  C   UNL     1     -10.646  11.931  63.322  1.00  0.00    -0.365 C  
ENDROOT
BRANCH   2   3
HETATM    3  O   UNL     1     -11.251  11.535  64.558  1.00  0.00    -0.305 OA 
BRANCH   3   4
HETATM    4  C   UNL     1     -11.946  12.496  65.216  1.00  0.00    -0.438 C  
HETATM    5  O   UNL     1     -12.797  13.232  64.731  1.00  0.00    -0.690 OA 
BRANCH   4   6
HETATM    6  C   UNL     1     -11.669  12.403  66.688  1.00  0.00    -0.438 C  
BRANCH   6   7
HETATM    7  C   UNL     1     -10.436  11.554  66.965  1.00  0.00    -0.228 C  
BRANCH   7   8
HETATM    8  S   UNL     1      -9.036  12.515  67.679  1.00  0.00    -0.196 SA 
BRANCH   8   9
HETATM    9  P   UNL     1      -9.677  14.520  67.934  1.00  0.00    -0.227 P  
HETATM   10  S   UNL     1      -8.123  14.983  69.156  1.00  0.00    -0.178 S  
BRANCH   9  11
HETATM   11  O   UNL     1      -9.370  14.905  66.351  1.00  0.00    -0.269 OA 
HETATM   12  C   UNL     1     -10.057  15.943  65.666  1.00  0.00    -0.358 C  
ENDBRANCH   9  11
BRANCH   9  13
HETATM   13  O   UNL     1     -10.201  16.155  68.144  1.00  0.00    -0.236 OA 
HETATM   14  C   UNL     1     -11.048  16.381  69.254  1.00  0.00    -0.297 C  
ENDBRANCH   9  13
ENDBRANCH   8   9
ENDBRANCH   7   8
BRANCH   7  15
HETATM   15  C   UNL     1     -10.792  10.490  67.994  1.00  0.00    -0.263 C  
HETATM   16  O   UNL     1     -11.032   9.319  67.733  1.00  0.00    -0.186 OA 
BRANCH  15  17
HETATM   17  O   UNL     1     -10.906  11.056  69.230  1.00  0.00    -0.219 OA 
BRANCH  17  18
HETATM   18  C   UNL     1     -11.260  10.149  70.280  1.00  0.00    -0.318 C  
HETATM   19  C   UNL     1     -12.465  10.720  71.003  1.00  0.00    -0.522 C  
ENDBRANCH  17  18
ENDBRANCH  15  17
ENDBRANCH   7  15
ENDBRANCH   6   7
ENDBRANCH   4   6
ENDBRANCH   3   4
ENDBRANCH   2   3
TORSDOF 11
ENDMDL
MODEL       94
REMARK 921   NORMALIZED FREE ENERGY PREDICTED BY IDOCK:   -3.80 KCAL/MOL
REMARK 922        TOTAL FREE ENERGY PREDICTED BY IDOCK:   -6.94 KCAL/MOL
REMARK 923 INTER-LIGAND FREE ENERGY PREDICTED BY IDOCK:   -6.26 KCAL/MOL
REMARK 924 INTRA-LIGAND FREE ENERGY PREDICTED BY IDOCK:   -0.68 KCAL/MOL
REMARK 927      BINDING AFFINITY PREDICTED BY RF-SCORE:    0.00 PKD
ROOT
HETATM    1  C   UNL     1     -10.436   8.966  67.153  1.00  0.00    -0.344 C  
HETATM    2  C   UNL     1     -10.183   9.974  66.046  1.00  0.00    -0.207 C  
ENDROOT
BRANCH   2   3
HETATM    3  O   UNL     1     -10.409  11.279  66.591  1.00  0.00    -0.221 OA 
BRANCH   3   4
HETATM    4  C   UNL     1      -9.325  12.090  66.663  1.00  0.00    -0.219 C  
HETATM    5  O   UNL     1      -8.154  11.739  66.588  1.00  0.00    -0.161 OA 
BRANCH   4   6
HETATM    6  C   UNL     1      -9.765  13.526  66.651  1.00  0.00    -0.281 C  
BRANCH   6   7
HETATM    7  C   UNL     1      -9.735  14.124  68.050  1.00  0.00    -0.226 C  
BRANCH   7   8
HETATM    8  S   UNL     1      -8.857  15.741  68.133  1.00  0.00    -0.180 SA 
BRANCH   8   9
HETATM    9  P   UNL     1      -9.773  17.057  66.746  1.00  0.00    -0.295 P  
HETATM   10  S   UNL     1      -9.928  18.563  68.100  1.00  0.00    -0.380 S  
BRANCH   9  11
HETATM   11  O   UNL     1      -8.396  17.175  65.828  1.00  0.00    -0.519 OA 
HETATM   12  C   UNL     1      -7.234  17.862  66.273  1.00  0.00    -0.289 C  
ENDBRANCH   9  11
BRANCH   9  13
HETATM   13  O   UNL     1     -10.520  18.131  65.614  1.00  0.00    -0.626 OA 
HETATM   14  C   UNL     1     -10.514  19.496  65.982  1.00  0.00    -0.516 C  
ENDBRANCH   9  13
ENDBRANCH   8   9
ENDBRANCH   7   8
BRANCH   7  15
HETATM   15  C   UNL     1     -11.165  14.390  68.501  1.00  0.00    -0.265 C  
HETATM   16  O   UNL     1     -12.138  14.408  67.760  1.00  0.00    -0.356 OA 
BRANCH  15  17
HETATM   17  O   UNL     1     -11.184  14.705  69.828  1.00  0.00    -0.260 OA 
BRANCH  17  18
HETATM   18  C   UNL     1     -11.996  15.836  70.168  1.00  0.00    -0.347 C  
HETATM   19  C   UNL     1     -13.097  15.356  71.096  1.00  0.00    -0.565 C  
ENDBRANCH  17  18
ENDBRANCH  15  17
ENDBRANCH   7  15
ENDBRANCH   6   7
ENDBRANCH   4   6
ENDBRANCH   3   4
ENDBRANCH   2   3
TORSDOF 11
ENDMDL
MODEL       95
REMARK 921   NORMALIZED FREE ENERGY PREDICTED BY IDOCK:   -3.79 KCAL/MOL
REMARK 922        TOTAL FREE ENERGY PREDICTED BY IDOCK:   -6.92 KCAL/MOL
REMARK 923 INTER-LIGAND FREE ENERGY PREDICTED BY IDOCK:   -6.16 KCAL/MOL
REMARK 924 INTRA-LIGAND FREE ENERGY PREDICTED BY IDOCK:   -0.76 KCAL/MOL
REMARK 927      BINDING AFFINITY PREDICTED BY RF-SCORE:    0.00 PKD
ROOT
HETATM    1  C   UNL     1      -9.985  10.608  63.913  1.00  0.00    -0.390 C  
HETATM    2  C   UNL     1     -10.480  12.043  63.911  1.00  0.00    -0.402 C  
ENDROOT
BRANCH   2   3
HETATM    3  O   UNL     1     -10.739  12.412  65.271  1.00  0.00    -0.272 OA 
BRANCH   3   4
HETATM    4  C   UNL     1     -12.042  12.598  65.600  1.00  0.00    -0.443 C  
HETATM    5  O   UNL     1     -13.005  12.420  64.864  1.00  0.00    -0.762 OA 
BRANCH   4   6
HETATM    6  C   UNL     1     -12.158  12.867  67.072  1.00  0.00    -0.296 C  
BRANCH   6   7
HETATM    7  C   UNL     1     -10.850  12.571  67.792  1.00  0.00    -0.225 C  
BRANCH   7   8
HETATM    8  S   UNL     1     -10.333  13.910  68.946  1.00  0.00    -0.094 SA 
BRANCH   8   9
HETATM    9  P   UNL     1     -12.084  14.827  69.715  1.00  0.00    -0.284 P  
HETATM   10  S   UNL     1     -11.245  15.172  71.532  1.00  0.00    -0.136 S  
BRANCH   9  11
HETATM   11  O   UNL     1     -11.944  16.130  68.699  1.00  0.00    -0.254 OA 
HETATM   12  C   UNL     1     -10.827  16.317  67.840  1.00  0.00    -0.330 C  
ENDBRANCH   9  11
BRANCH   9  13
HETATM   13  O   UNL     1     -13.512  15.574  70.343  1.00  0.00    -0.273 OA 
HETATM   14  C   UNL     1     -13.809  15.271  71.692  1.00  0.00    -0.519 C  
ENDBRANCH   9  13
ENDBRANCH   8   9
ENDBRANCH   7   8
BRANCH   7  15
HETATM   15  C   UNL     1     -11.031  11.320  68.643  1.00  0.00    -0.218 C  
HETATM   16  O   UNL     1     -10.164  10.479  68.840  1.00  0.00    -0.187 OA 
BRANCH  15  17
HETATM   17  O   UNL     1     -12.324  11.225  69.064  1.00  0.00    -0.446 OA 
BRANCH  17  18
HETATM   18  C   UNL     1     -12.497  11.204  70.486  1.00  0.00    -0.327 C  
HETATM   19  C   UNL     1     -13.252   9.938  70.845  1.00  0.00    -0.309 C  
ENDBRANCH  17  18
ENDBRANCH  15  17
ENDBRANCH   7  15
ENDBRANCH   6   7
ENDBRANCH   4   6
ENDBRANCH   3   4
ENDBRANCH   2   3
TORSDOF 11
ENDMDL
MODEL       96
REMARK 921   NORMALIZED FREE ENERGY PREDICTED BY IDOCK:   -3.77 KCAL/MOL
REMARK 922        TOTAL FREE ENERGY PREDICTED BY IDOCK:   -6.90 KCAL/MOL
REMARK 923 INTER-LIGAND FREE ENERGY PREDICTED BY IDOCK:   -6.23 KCAL/MOL
REMARK 924 INTRA-LIGAND FREE ENERGY PREDICTED BY IDOCK:   -0.67 KCAL/MOL
REMARK 927      BINDING AFFINITY PREDICTED BY RF-SCORE:    0.00 PKD
ROOT
HETATM    1  C   UNL     1      -6.440  20.738  66.357  1.00  0.00    -0.313 C  
HETATM    2  C   UNL     1      -6.116  19.787  65.218  1.00  0.00    -0.226 C  
ENDROOT
BRANCH   2   3
HETATM    3  O   UNL     1      -7.018  18.678  65.312  1.00  0.00    -0.523 OA 
BRANCH   3   4
HETATM    4  C   UNL     1      -6.618  17.649  66.100  1.00  0.00    -0.267 C  
HETATM    5  O   UNL     1      -5.551  17.052  66.021  1.00  0.00    -0.271 OA 
BRANCH   4   6
HETATM    6  C   UNL     1      -7.592  17.466  67.227  1.00  0.00    -0.214 C  
BRANCH   6   7
HETATM    7  C   UNL     1      -8.651  16.430  66.877  1.00  0.00    -0.214 C  
BRANCH   7   8
HETATM    8  S   UNL     1      -9.171  15.405  68.317  1.00  0.00    -0.192 SA 
BRANCH   8   9
HETATM    9  P   UNL     1     -10.062  13.631  67.572  1.00  0.00    -0.244 P  
HETATM   10  S   UNL     1     -11.934  14.209  68.108  1.00  0.00    -0.279 S  
BRANCH   9  11
HETATM   11  O   UNL     1      -9.710  14.019  65.999  1.00  0.00    -0.294 OA 
HETATM   12  C   UNL     1     -10.548  13.650  64.912  1.00  0.00    -0.408 C  
ENDBRANCH   9  11
BRANCH   9  13
HETATM   13  O   UNL     1     -10.790  12.183  66.966  1.00  0.00    -0.230 OA 
HETATM   14  C   UNL     1     -11.110  11.212  67.943  1.00  0.00    -0.273 C  
ENDBRANCH   9  13
ENDBRANCH   8   9
ENDBRANCH   7   8
BRANCH   7  15
HETATM   15  C   UNL     1      -9.902  17.151  66.392  1.00  0.00    -0.300 C  
HETATM   16  O   UNL     1     -10.302  17.153  65.236  1.00  0.00    -0.629 OA 
BRANCH  15  17
HETATM   17  O   UNL     1     -10.448  17.874  67.411  1.00  0.00    -0.369 OA 
BRANCH  17  18
HETATM   18  C   UNL     1     -10.607  19.273  67.142  1.00  0.00    -0.472 C  
HETATM   19  C   UNL     1      -9.921  20.042  68.256  1.00  0.00    -0.508 C  
ENDBRANCH  17  18
ENDBRANCH  15  17
ENDBRANCH   7  15
ENDBRANCH   6   7
ENDBRANCH   4   6
ENDBRANCH   3   4
ENDBRANCH   2   3
TORSDOF 11
ENDMDL
MODEL       97
REMARK 921   NORMALIZED FREE ENERGY PREDICTED BY IDOCK:   -3.77 KCAL/MOL
REMARK 922        TOTAL FREE ENERGY PREDICTED BY IDOCK:   -6.88 KCAL/MOL
REMARK 923 INTER-LIGAND FREE ENERGY PREDICTED BY IDOCK:   -6.27 KCAL/MOL
REMARK 924 INTRA-LIGAND FREE ENERGY PREDICTED BY IDOCK:   -0.61 KCAL/MOL
REMARK 927      BINDING AFFINITY PREDICTED BY RF-SCORE:    0.00 PKD
ROOT
HETATM    1  C   UNL     1     -13.322   9.570  72.309  1.00  0.00    -0.526 C  
HETATM    2  C   UNL     1     -13.016  10.021  70.891  1.00  0.00    -0.318 C  
ENDROOT
BRANCH   2   3
HETATM    3  O   UNL     1     -11.953  10.979  70.963  1.00  0.00    -0.318 OA 
BRANCH   3   4
HETATM    4  C   UNL     1     -12.143  12.131  70.274  1.00  0.00    -0.302 C  
HETATM    5  O   UNL     1     -12.361  13.235  70.757  1.00  0.00    -0.360 OA 
BRANCH   4   6
HETATM    6  C   UNL     1     -11.849  11.904  68.819  1.00  0.00    -0.371 C  
BRANCH   6   7
HETATM    7  C   UNL     1     -11.546  13.214  68.106  1.00  0.00    -0.339 C  
BRANCH   7   8
HETATM    8  S   UNL     1      -9.771  13.698  68.193  1.00  0.00    -0.231 SA 
BRANCH   8   9
HETATM    9  P   UNL     1      -9.661  15.813  68.104  1.00  0.00    -0.214 P  
HETATM   10  S   UNL     1     -11.163  16.063  69.449  1.00  0.00    -0.355 S  
BRANCH   9  11
HETATM   11  O   UNL     1      -8.165  15.845  68.818  1.00  0.00    -0.169 OA 
HETATM   12  C   UNL     1      -7.509  17.056  69.171  1.00  0.00    -0.162 C  
ENDBRANCH   9  11
BRANCH   9  13
HETATM   13  O   UNL     1      -9.572  17.539  68.031  1.00  0.00    -0.267 OA 
HETATM   14  C   UNL     1     -10.157  18.127  66.886  1.00  0.00    -0.357 C  
ENDBRANCH   9  13
ENDBRANCH   8   9
ENDBRANCH   7   8
BRANCH   7  15
HETATM   15  C   UNL     1     -11.875  13.056  66.628  1.00  0.00    -0.393 C  
HETATM   16  O   UNL     1     -11.501  12.126  65.925  1.00  0.00    -0.345 OA 
BRANCH  15  17
HETATM   17  O   UNL     1     -12.554  14.151  66.181  1.00  0.00    -0.465 OA 
BRANCH  17  18
HETATM   18  C   UNL     1     -12.404  14.427  64.783  1.00  0.00    -0.414 C  
HETATM   19  C   UNL     1     -11.378  15.536  64.636  1.00  0.00    -0.363 C  
ENDBRANCH  17  18
ENDBRANCH  15  17
ENDBRANCH   7  15
ENDBRANCH   6   7
ENDBRANCH   4   6
ENDBRANCH   3   4
ENDBRANCH   2   3
TORSDOF 11
ENDMDL
MODEL       98
REMARK 921   NORMALIZED FREE ENERGY PREDICTED BY IDOCK:   -3.77 KCAL/MOL
REMARK 922        TOTAL FREE ENERGY PREDICTED BY IDOCK:   -6.88 KCAL/MOL
REMARK 923 INTER-LIGAND FREE ENERGY PREDICTED BY IDOCK:   -6.17 KCAL/MOL
REMARK 924 INTRA-LIGAND FREE ENERGY PREDICTED BY IDOCK:   -0.71 KCAL/MOL
REMARK 927      BINDING AFFINITY PREDICTED BY RF-SCORE:    0.00 PKD
ROOT
HETATM    1  C   UNL     1     -13.379   9.744  71.923  1.00  0.00    -0.530 C  
HETATM    2  C   UNL     1     -13.007  11.176  71.581  1.00  0.00    -0.443 C  
ENDROOT
BRANCH   2   3
HETATM    3  O   UNL     1     -11.867  11.131  70.715  1.00  0.00    -0.315 OA 
BRANCH   3   4
HETATM    4  C   UNL     1     -11.877  11.998  69.672  1.00  0.00    -0.333 C  
HETATM    5  O   UNL     1     -11.652  13.201  69.730  1.00  0.00    -0.275 OA 
BRANCH   4   6
HETATM    6  C   UNL     1     -12.011  11.238  68.384  1.00  0.00    -0.255 C  
BRANCH   6   7
HETATM    7  C   UNL     1     -10.709  11.255  67.596  1.00  0.00    -0.226 C  
BRANCH   7   8
HETATM    8  S   UNL     1     -10.282   9.622  66.859  1.00  0.00    -0.232 SA 
BRANCH   8   9
HETATM    9  P   UNL     1     -10.228   8.190  68.421  1.00  0.00    -0.181 P  
HETATM   10  S   UNL     1      -8.957   6.967  67.413  1.00  0.00    -0.117 S  
BRANCH   9  11
HETATM   11  O   UNL     1      -9.430   9.220  69.446  1.00  0.00    -0.158 OA 
HETATM   12  C   UNL     1      -9.140   8.887  70.797  1.00  0.00    -0.213 C  
ENDBRANCH   9  11
BRANCH   9  13
HETATM   13  O   UNL     1     -10.184   7.020  69.695  1.00  0.00    -0.192 OA 
HETATM   14  C   UNL     1     -11.410   6.367  69.958  1.00  0.00    -0.430 C  
ENDBRANCH   9  13
ENDBRANCH   8   9
ENDBRANCH   7   8
BRANCH   7  15
HETATM   15  C   UNL     1     -10.853  12.225  66.430  1.00  0.00    -0.264 C  
HETATM   16  O   UNL     1      -9.968  12.967  66.027  1.00  0.00    -0.272 OA 
BRANCH  15  17
HETATM   17  O   UNL     1     -12.138  12.218  65.974  1.00  0.00    -0.623 OA 
BRANCH  17  18
HETATM   18  C   UNL     1     -12.372  13.026  64.814  1.00  0.00    -0.436 C  
HETATM   19  C   UNL     1     -12.337  12.116  63.599  1.00  0.00    -0.673 C  
ENDBRANCH  17  18
ENDBRANCH  15  17
ENDBRANCH   7  15
ENDBRANCH   6   7
ENDBRANCH   4   6
ENDBRANCH   3   4
ENDBRANCH   2   3
TORSDOF 11
ENDMDL
MODEL       99
REMARK 921   NORMALIZED FREE ENERGY PREDICTED BY IDOCK:   -3.76 KCAL/MOL
REMARK 922        TOTAL FREE ENERGY PREDICTED BY IDOCK:   -6.87 KCAL/MOL
REMARK 923 INTER-LIGAND FREE ENERGY PREDICTED BY IDOCK:   -6.28 KCAL/MOL
REMARK 924 INTRA-LIGAND FREE ENERGY PREDICTED BY IDOCK:   -0.60 KCAL/MOL
REMARK 927      BINDING AFFINITY PREDICTED BY RF-SCORE:    0.00 PKD
ROOT
HETATM    1  C   UNL     1     -12.501   9.260  71.577  1.00  0.00    -0.435 C  
HETATM    2  C   UNL     1     -12.819  10.718  71.293  1.00  0.00    -0.438 C  
ENDROOT
BRANCH   2   3
HETATM    3  O   UNL     1     -11.717  11.265  70.561  1.00  0.00    -0.329 OA 
BRANCH   3   4
HETATM    4  C   UNL     1     -12.036  12.015  69.477  1.00  0.00    -0.283 C  
HETATM    5  O   UNL     1     -11.862  11.703  68.306  1.00  0.00    -0.445 OA 
BRANCH   4   6
HETATM    6  C   UNL     1     -12.825  13.218  69.908  1.00  0.00     0.374 C  
BRANCH   6   7
HETATM    7  C   UNL     1     -11.911  14.398  70.208  1.00  0.00    -0.313 C  
BRANCH   7   8
HETATM    8  S   UNL     1     -11.655  15.508  68.760  1.00  0.00    -0.376 SA 
BRANCH   8   9
HETATM    9  P   UNL     1      -9.582  15.924  68.609  1.00  0.00    -0.231 P  
HETATM   10  S   UNL     1      -9.519  15.474  66.630  1.00  0.00    -0.280 S  
BRANCH   9  11
HETATM   11  O   UNL     1      -9.806  17.545  68.879  1.00  0.00    -0.308 OA 
HETATM   12  C   UNL     1     -10.048  18.471  67.829  1.00  0.00    -0.364 C  
ENDBRANCH   9  11
BRANCH   9  13
HETATM   13  O   UNL     1      -7.890  16.262  68.485  1.00  0.00    -0.172 OA 
HETATM   14  C   UNL     1      -7.256  15.755  67.328  1.00  0.00    -0.219 C  
ENDBRANCH   9  13
ENDBRANCH   8   9
ENDBRANCH   7   8
BRANCH   7  15
HETATM   15  C   UNL     1     -12.553  15.252  71.294  1.00  0.00    -0.383 C  
HETATM   16  O   UNL     1     -13.630  15.822  71.187  1.00  0.00    -0.576 OA 
BRANCH  15  17
HETATM   17  O   UNL     1     -11.705  15.371  72.355  1.00  0.00    -0.413 OA 
BRANCH  17  18
HETATM   18  C   UNL     1     -12.224  14.887  73.600  1.00  0.00    -0.399 C  
HETATM   19  C   UNL     1     -12.445  16.082  74.509  1.00  0.00    -0.687 C  
ENDBRANCH  17  18
ENDBRANCH  15  17
ENDBRANCH   7  15
ENDBRANCH   6   7
ENDBRANCH   4   6
ENDBRANCH   3   4
ENDBRANCH   2   3
TORSDOF 11
ENDMDL
MODEL      100
REMARK 921   NORMALIZED FREE ENERGY PREDICTED BY IDOCK:   -3.76 KCAL/MOL
REMARK 922        TOTAL FREE ENERGY PREDICTED BY IDOCK:   -6.87 KCAL/MOL
REMARK 923 INTER-LIGAND FREE ENERGY PREDICTED BY IDOCK:   -6.14 KCAL/MOL
REMARK 924 INTRA-LIGAND FREE ENERGY PREDICTED BY IDOCK:   -0.72 KCAL/MOL
REMARK 927      BINDING AFFINITY PREDICTED BY RF-SCORE:    0.00 PKD
ROOT
HETATM    1  C   UNL     1     -10.286  11.146  63.820  1.00  0.00    -0.447 C  
HETATM    2  C   UNL     1     -11.372  12.197  63.974  1.00  0.00    -0.395 C  
ENDROOT
BRANCH   2   3
HETATM    3  O   UNL     1     -11.362  12.629  65.340  1.00  0.00    -0.293 OA 
BRANCH   3   4
HETATM    4  C   UNL     1     -12.320  13.524  65.687  1.00  0.00    -0.476 C  
HETATM    5  O   UNL     1     -13.197  13.964  64.954  1.00  0.00    -0.610 OA 
BRANCH   4   6
HETATM    6  C   UNL     1     -12.281  13.757  67.170  1.00  0.00    -0.352 C  
BRANCH   6   7
HETATM    7  C   UNL     1     -11.139  12.988  67.819  1.00  0.00    -0.262 C  
BRANCH   7   8
HETATM    8  S   UNL     1     -10.082  14.033  68.907  1.00  0.00    -0.058 SA 
BRANCH   8   9
HETATM    9  P   UNL     1      -8.175  14.208  68.000  1.00  0.00    -0.182 P  
HETATM   10  S   UNL     1      -8.845  15.485  66.569  1.00  0.00    -0.322 S  
BRANCH   9  11
HETATM   11  O   UNL     1      -7.537  15.006  69.307  1.00  0.00    -0.163 OA 
HETATM   12  C   UNL     1      -7.180  16.381  69.267  1.00  0.00    -0.221 C  
ENDBRANCH   9  11
BRANCH   9  13
HETATM   13  O   UNL     1      -6.618  14.352  67.258  1.00  0.00    -0.283 OA 
HETATM   14  C   UNL     1      -5.711  13.307  67.550  1.00  0.00    -0.021 C  
ENDBRANCH   9  13
ENDBRANCH   8   9
ENDBRANCH   7   8
BRANCH   7  15
HETATM   15  C   UNL     1     -11.723  11.899  68.709  1.00  0.00    -0.321 C  
HETATM   16  O   UNL     1     -12.026  10.775  68.329  1.00  0.00    -0.520 OA 
BRANCH  15  17
HETATM   17  O   UNL     1     -11.953  12.392  69.959  1.00  0.00    -0.328 OA 
BRANCH  17  18
HETATM   18  C   UNL     1     -12.505  11.451  70.888  1.00  0.00    -0.379 C  
HETATM   19  C   UNL     1     -13.244  12.232  71.958  1.00  0.00    -0.508 C  
ENDBRANCH  17  18
ENDBRANCH  15  17
ENDBRANCH   7  15
ENDBRANCH   6   7
ENDBRANCH   4   6
ENDBRANCH   3   4
ENDBRANCH   2   3
TORSDOF 11
ENDMDL
MODEL      101
REMARK 921   NORMALIZED FREE ENERGY PREDICTED BY IDOCK:   -3.76 KCAL/MOL
REMARK 922        TOTAL FREE ENERGY PREDICTED BY IDOCK:   -6.87 KCAL/MOL
REMARK 923 INTER-LIGAND FREE ENERGY PREDICTED BY IDOCK:   -6.08 KCAL/MOL
REMARK 924 INTRA-LIGAND FREE ENERGY PREDICTED BY IDOCK:   -0.79 KCAL/MOL
REMARK 927      BINDING AFFINITY PREDICTED BY RF-SCORE:    0.00 PKD
ROOT
HETATM    1  C   UNL     1     -10.468   7.665  69.169  1.00  0.00    -0.220 C  
HETATM    2  C   UNL     1     -11.036   8.803  69.998  1.00  0.00    -0.209 C  
ENDROOT
BRANCH   2   3
HETATM    3  O   UNL     1     -10.216   9.955  69.767  1.00  0.00    -0.215 OA 
BRANCH   3   4
HETATM    4  C   UNL     1     -10.455  10.635  68.618  1.00  0.00    -0.191 C  
HETATM    5  O   UNL     1      -9.824  10.533  67.574  1.00  0.00    -0.163 OA 
BRANCH   4   6
HETATM    6  C   UNL     1     -11.742  11.399  68.741  1.00  0.00    -0.404 C  
BRANCH   6   7
HETATM    7  C   UNL     1     -11.537  12.706  69.493  1.00  0.00    -0.281 C  
BRANCH   7   8
HETATM    8  S   UNL     1     -11.917  14.197  68.479  1.00  0.00    -0.292 SA 
BRANCH   8   9
HETATM    9  P   UNL     1     -10.982  13.964  66.591  1.00  0.00    -0.311 P  
HETATM   10  S   UNL     1     -12.750  13.792  65.607  1.00  0.00    -0.400 S  
BRANCH   9  11
HETATM   11  O   UNL     1     -10.410  15.521  66.592  1.00  0.00    -0.272 OA 
HETATM   12  C   UNL     1      -9.187  15.889  65.969  1.00  0.00    -0.337 C  
ENDBRANCH   9  11
BRANCH   9  13
HETATM   13  O   UNL     1     -10.219  13.772  65.050  1.00  0.00    -0.364 OA 
HETATM   14  C   UNL     1     -10.456  12.535  64.408  1.00  0.00    -0.359 C  
ENDBRANCH   9  13
ENDBRANCH   8   9
ENDBRANCH   7   8
BRANCH   7  15
HETATM   15  C   UNL     1     -12.490  12.743  70.680  1.00  0.00    -0.246 C  
HETATM   16  O   UNL     1     -12.855  11.762  71.313  1.00  0.00    -0.386 OA 
BRANCH  15  17
HETATM   17  O   UNL     1     -12.954  14.012  70.867  1.00  0.00    -0.324 OA 
BRANCH  17  18
HETATM   18  C   UNL     1     -13.862  14.169  71.963  1.00  0.00    -0.485 C  
HETATM   19  C   UNL     1     -13.299  15.234  72.886  1.00  0.00    -0.616 C  
ENDBRANCH  17  18
ENDBRANCH  15  17
ENDBRANCH   7  15
ENDBRANCH   6   7
ENDBRANCH   4   6
ENDBRANCH   3   4
ENDBRANCH   2   3
TORSDOF 11
ENDMDL
MODEL      102
REMARK 921   NORMALIZED FREE ENERGY PREDICTED BY IDOCK:   -3.75 KCAL/MOL
REMARK 922        TOTAL FREE ENERGY PREDICTED BY IDOCK:   -6.86 KCAL/MOL
REMARK 923 INTER-LIGAND FREE ENERGY PREDICTED BY IDOCK:   -5.96 KCAL/MOL
REMARK 924 INTRA-LIGAND FREE ENERGY PREDICTED BY IDOCK:   -0.89 KCAL/MOL
REMARK 927      BINDING AFFINITY PREDICTED BY RF-SCORE:    0.00 PKD
ROOT
HETATM    1  C   UNL     1     -11.716   9.879  71.349  1.00  0.00    -0.449 C  
HETATM    2  C   UNL     1     -12.580  11.023  70.847  1.00  0.00    -0.391 C  
ENDROOT
BRANCH   2   3
HETATM    3  O   UNL     1     -11.723  11.938  70.154  1.00  0.00    -0.314 OA 
BRANCH   3   4
HETATM    4  C   UNL     1     -11.407  11.609  68.877  1.00  0.00    -0.267 C  
HETATM    5  O   UNL     1     -12.151  11.072  68.065  1.00  0.00    -0.615 OA 
BRANCH   4   6
HETATM    6  C   UNL     1     -10.063  12.178  68.525  1.00  0.00    -0.192 C  
BRANCH   6   7
HETATM    7  C   UNL     1     -10.199  13.389  67.614  1.00  0.00    -0.228 C  
BRANCH   7   8
HETATM    8  S   UNL     1      -8.835  14.610  67.816  1.00  0.00    -0.186 SA 
BRANCH   8   9
HETATM    9  P   UNL     1      -9.700  16.500  68.230  1.00  0.00    -0.247 P  
HETATM   10  S   UNL     1      -9.595  17.102  66.293  1.00  0.00    -0.226 S  
BRANCH   9  11
HETATM   11  O   UNL     1     -11.173  15.834  68.603  1.00  0.00    -0.308 OA 
HETATM   12  C   UNL     1     -11.731  15.890  69.908  1.00  0.00    -0.322 C  
ENDBRANCH   9  11
BRANCH   9  13
HETATM   13  O   UNL     1     -10.406  18.043  68.567  1.00  0.00    -0.373 OA 
HETATM   14  C   UNL     1     -10.582  18.886  67.445  1.00  0.00    -0.460 C  
ENDBRANCH   9  13
ENDBRANCH   8   9
ENDBRANCH   7   8
BRANCH   7  15
HETATM   15  C   UNL     1     -10.143  12.922  66.165  1.00  0.00    -0.276 C  
HETATM   16  O   UNL     1     -10.846  13.358  65.263  1.00  0.00    -0.292 OA 
BRANCH  15  17
HETATM   17  O   UNL     1      -9.273  11.879  66.045  1.00  0.00    -0.222 OA 
BRANCH  17  18
HETATM   18  C   UNL     1      -9.700  10.833  65.164  1.00  0.00    -0.265 C  
HETATM   19  C   UNL     1      -9.588   9.518  65.913  1.00  0.00    -0.327 C  
ENDBRANCH  17  18
ENDBRANCH  15  17
ENDBRANCH   7  15
ENDBRANCH   6   7
ENDBRANCH   4   6
ENDBRANCH   3   4
ENDBRANCH   2   3
TORSDOF 11
ENDMDL
MODEL      103
REMARK 921   NORMALIZED FREE ENERGY PREDICTED BY IDOCK:   -3.74 KCAL/MOL
REMARK 922        TOTAL FREE ENERGY PREDICTED BY IDOCK:   -6.85 KCAL/MOL
REMARK 923 INTER-LIGAND FREE ENERGY PREDICTED BY IDOCK:   -6.08 KCAL/MOL
REMARK 924 INTRA-LIGAND FREE ENERGY PREDICTED BY IDOCK:   -0.77 KCAL/MOL
REMARK 927      BINDING AFFINITY PREDICTED BY RF-SCORE:    0.00 PKD
ROOT
HETATM    1  C   UNL     1      -6.815   9.253  69.014  1.00  0.00    -0.055 C  
HETATM    2  C   UNL     1      -7.609  10.096  68.032  1.00  0.00    -0.088 C  
ENDROOT
BRANCH   2   3
HETATM    3  O   UNL     1      -8.903   9.497  67.898  1.00  0.00    -0.120 OA 
BRANCH   3   4
HETATM    4  C   UNL     1      -9.802  10.184  67.150  1.00  0.00    -0.187 C  
HETATM    5  O   UNL     1     -10.463   9.734  66.221  1.00  0.00    -0.191 OA 
BRANCH   4   6
HETATM    6  C   UNL     1     -10.027  11.541  67.750  1.00  0.00    -0.195 C  
BRANCH   6   7
HETATM    7  C   UNL     1     -11.507  11.795  68.001  1.00  0.00    -0.319 C  
BRANCH   7   8
HETATM    8  S   UNL     1     -11.877  12.289  69.736  1.00  0.00    -0.272 SA 
BRANCH   8   9
HETATM    9  P   UNL     1     -12.751  10.627  70.720  1.00  0.00    -0.325 P  
HETATM   10  S   UNL     1     -10.979   9.650  70.891  1.00  0.00    -0.355 S  
BRANCH   9  11
HETATM   11  O   UNL     1     -13.112  11.516  72.073  1.00  0.00    -0.486 OA 
HETATM   12  C   UNL     1     -13.318  12.922  72.034  1.00  0.00    -0.482 C  
ENDBRANCH   9  11
BRANCH   9  13
HETATM   13  O   UNL     1     -13.463   9.270  71.523  1.00  0.00    -0.368 OA 
HETATM   14  C   UNL     1     -12.552   8.406  72.173  1.00  0.00    -0.364 C  
ENDBRANCH   9  13
ENDBRANCH   8   9
ENDBRANCH   7   8
BRANCH   7  15
HETATM   15  C   UNL     1     -11.962  12.951  67.120  1.00  0.00    -0.310 C  
HETATM   16  O   UNL     1     -11.946  14.129  67.452  1.00  0.00    -0.395 OA 
BRANCH  15  17
HETATM   17  O   UNL     1     -12.485  12.473  65.955  1.00  0.00    -0.565 OA 
BRANCH  17  18
HETATM   18  C   UNL     1     -11.731  12.791  64.779  1.00  0.00    -0.352 C  
HETATM   19  C   UNL     1     -12.299  11.980  63.629  1.00  0.00    -0.648 C  
ENDBRANCH  17  18
ENDBRANCH  15  17
ENDBRANCH   7  15
ENDBRANCH   6   7
ENDBRANCH   4   6
ENDBRANCH   3   4
ENDBRANCH   2   3
TORSDOF 11
ENDMDL
MODEL      104
REMARK 921   NORMALIZED FREE ENERGY PREDICTED BY IDOCK:   -3.73 KCAL/MOL
REMARK 922        TOTAL FREE ENERGY PREDICTED BY IDOCK:   -6.82 KCAL/MOL
REMARK 923 INTER-LIGAND FREE ENERGY PREDICTED BY IDOCK:   -6.25 KCAL/MOL
REMARK 924 INTRA-LIGAND FREE ENERGY PREDICTED BY IDOCK:   -0.58 KCAL/MOL
REMARK 927      BINDING AFFINITY PREDICTED BY RF-SCORE:    0.00 PKD
ROOT
HETATM    1  C   UNL     1     -10.034   9.471  66.003  1.00  0.00    -0.348 C  
HETATM    2  C   UNL     1     -10.421  10.775  66.679  1.00  0.00    -0.246 C  
ENDROOT
BRANCH   2   3
HETATM    3  O   UNL     1     -11.487  10.487  67.592  1.00  0.00    -0.444 OA 
BRANCH   3   4
HETATM    4  C   UNL     1     -11.259  10.801  68.892  1.00  0.00    -0.268 C  
HETATM    5  O   UNL     1     -10.290  10.457  69.558  1.00  0.00    -0.222 OA 
BRANCH   4   6
HETATM    6  C   UNL     1     -12.273  11.806  69.356  1.00  0.00    -0.219 C  
BRANCH   6   7
HETATM    7  C   UNL     1     -11.706  13.218  69.317  1.00  0.00    -0.326 C  
BRANCH   7   8
HETATM    8  S   UNL     1     -11.930  14.049  67.688  1.00  0.00    -0.318 SA 
BRANCH   8   9
HETATM    9  P   UNL     1     -10.030  14.716  67.024  1.00  0.00    -0.256 P  
HETATM   10  S   UNL     1     -10.780  15.521  65.318  1.00  0.00    -0.437 S  
BRANCH   9  11
HETATM   11  O   UNL     1      -9.906  15.831  68.245  1.00  0.00    -0.210 OA 
HETATM   12  C   UNL     1      -9.072  15.637  69.380  1.00  0.00    -0.278 C  
ENDBRANCH   9  11
BRANCH   9  13
HETATM   13  O   UNL     1      -8.480  15.260  66.482  1.00  0.00    -0.265 OA 
HETATM   14  C   UNL     1      -8.421  16.615  66.081  1.00  0.00    -0.273 C  
ENDBRANCH   9  13
ENDBRANCH   8   9
ENDBRANCH   7   8
BRANCH   7  15
HETATM   15  C   UNL     1     -12.448  14.072  70.337  1.00  0.00    -0.350 C  
HETATM   16  O   UNL     1     -12.699  15.262  70.201  1.00  0.00    -0.322 OA 
BRANCH  15  17
HETATM   17  O   UNL     1     -12.697  13.344  71.462  1.00  0.00    -0.340 OA 
BRANCH  17  18
HETATM   18  C   UNL     1     -13.668  13.912  72.349  1.00  0.00    -0.576 C  
HETATM   19  C   UNL     1     -12.930  14.763  73.365  1.00  0.00    -0.550 C  
ENDBRANCH  17  18
ENDBRANCH  15  17
ENDBRANCH   7  15
ENDBRANCH   6   7
ENDBRANCH   4   6
ENDBRANCH   3   4
ENDBRANCH   2   3
TORSDOF 11
ENDMDL
MODEL      105
REMARK 921   NORMALIZED FREE ENERGY PREDICTED BY IDOCK:   -3.72 KCAL/MOL
REMARK 922        TOTAL FREE ENERGY PREDICTED BY IDOCK:   -6.81 KCAL/MOL
REMARK 923 INTER-LIGAND FREE ENERGY PREDICTED BY IDOCK:   -5.97 KCAL/MOL
REMARK 924 INTRA-LIGAND FREE ENERGY PREDICTED BY IDOCK:   -0.84 KCAL/MOL
REMARK 927      BINDING AFFINITY PREDICTED BY RF-SCORE:    0.00 PKD
ROOT
HETATM    1  C   UNL     1      -7.996  19.208  67.380  1.00  0.00    -0.283 C  
HETATM    2  C   UNL     1      -8.131  18.116  66.334  1.00  0.00    -0.261 C  
ENDROOT
BRANCH   2   3
HETATM    3  O   UNL     1      -9.525  17.967  66.043  1.00  0.00    -0.504 OA 
BRANCH   3   4
HETATM    4  C   UNL     1      -9.941  16.710  65.750  1.00  0.00    -0.243 C  
HETATM    5  O   UNL     1     -10.756  16.401  64.888  1.00  0.00    -0.675 OA 
BRANCH   4   6
HETATM    6  C   UNL     1      -9.109  15.713  66.503  1.00  0.00    -0.337 C  
BRANCH   6   7
HETATM    7  C   UNL     1      -9.926  15.015  67.581  1.00  0.00    -0.225 C  
BRANCH   7   8
HETATM    8  S   UNL     1      -9.288  13.341  68.010  1.00  0.00    -0.222 SA 
BRANCH   8   9
HETATM    9  P   UNL     1     -10.945  12.111  68.495  1.00  0.00    -0.271 P  
HETATM   10  S   UNL     1     -11.649  12.109  66.590  1.00  0.00    -0.309 S  
BRANCH   9  11
HETATM   11  O   UNL     1      -9.980  10.799  68.810  1.00  0.00    -0.178 OA 
HETATM   12  C   UNL     1      -9.285  10.095  67.790  1.00  0.00    -0.137 C  
ENDBRANCH   9  11
BRANCH   9  13
HETATM   13  O   UNL     1     -12.297  11.107  68.890  1.00  0.00    -0.512 OA 
HETATM   14  C   UNL     1     -12.453  10.815  70.265  1.00  0.00    -0.317 C  
ENDBRANCH   9  13
ENDBRANCH   8   9
ENDBRANCH   7   8
BRANCH   7  15
HETATM   15  C   UNL     1      -9.857  15.840  68.860  1.00  0.00    -0.224 C  
HETATM   16  O   UNL     1      -8.839  16.039  69.508  1.00  0.00    -0.215 OA 
BRANCH  15  17
HETATM   17  O   UNL     1     -11.110  16.233  69.229  1.00  0.00    -0.306 OA 
BRANCH  17  18
HETATM   18  C   UNL     1     -11.369  16.183  70.637  1.00  0.00    -0.370 C  
HETATM   19  C   UNL     1     -12.089  14.880  70.931  1.00  0.00    -0.377 C  
ENDBRANCH  17  18
ENDBRANCH  15  17
ENDBRANCH   7  15
ENDBRANCH   6   7
ENDBRANCH   4   6
ENDBRANCH   3   4
ENDBRANCH   2   3
TORSDOF 11
ENDMDL
MODEL      106
REMARK 921   NORMALIZED FREE ENERGY PREDICTED BY IDOCK:   -3.71 KCAL/MOL
REMARK 922        TOTAL FREE ENERGY PREDICTED BY IDOCK:   -6.79 KCAL/MOL
REMARK 923 INTER-LIGAND FREE ENERGY PREDICTED BY IDOCK:   -6.07 KCAL/MOL
REMARK 924 INTRA-LIGAND FREE ENERGY PREDICTED BY IDOCK:   -0.72 KCAL/MOL
REMARK 927      BINDING AFFINITY PREDICTED BY RF-SCORE:    0.00 PKD
ROOT
HETATM    1  C   UNL     1     -10.619   8.101  72.463  1.00  0.00    -0.411 C  
HETATM    2  C   UNL     1     -12.030   8.644  72.313  1.00  0.00    -0.368 C  
ENDROOT
BRANCH   2   3
HETATM    3  O   UNL     1     -11.923  10.012  71.899  1.00  0.00    -0.290 OA 
BRANCH   3   4
HETATM    4  C   UNL     1     -12.625  10.354  70.790  1.00  0.00    -0.371 C  
HETATM    5  O   UNL     1     -13.782  10.040  70.542  1.00  0.00    -0.014 OA 
BRANCH   4   6
HETATM    6  C   UNL     1     -11.843  11.351  69.985  1.00  0.00    -0.440 C  
BRANCH   6   7
HETATM    7  C   UNL     1     -11.249  10.708  68.739  1.00  0.00    -0.279 C  
BRANCH   7   8
HETATM    8  S   UNL     1     -10.344  11.901  67.665  1.00  0.00    -0.204 SA 
BRANCH   8   9
HETATM    9  P   UNL     1     -11.767  12.922  66.472  1.00  0.00    -0.386 P  
HETATM   10  S   UNL     1     -10.935  14.740  66.830  1.00  0.00    -0.333 S  
BRANCH   9  11
HETATM   11  O   UNL     1     -11.204  12.237  65.071  1.00  0.00    -0.305 OA 
HETATM   12  C   UNL     1     -10.172  11.260  65.056  1.00  0.00    -0.284 C  
ENDBRANCH   9  11
BRANCH   9  13
HETATM   13  O   UNL     1     -12.930  13.757  65.500  1.00  0.00    -0.651 OA 
HETATM   14  C   UNL     1     -12.390  14.560  64.469  1.00  0.00    -0.414 C  
ENDBRANCH   9  13
ENDBRANCH   8   9
ENDBRANCH   7   8
BRANCH   7  15
HETATM   15  C   UNL     1     -10.230   9.660  69.166  1.00  0.00    -0.202 C  
HETATM   16  O   UNL     1      -9.159   9.905  69.705  1.00  0.00    -0.201 OA 
BRANCH  15  17
HETATM   17  O   UNL     1     -10.640   8.422  68.767  1.00  0.00    -0.203 OA 
BRANCH  17  18
HETATM   18  C   UNL     1     -10.648   8.216  67.349  1.00  0.00    -0.255 C  
HETATM   19  C   UNL     1     -10.787   6.726  67.096  1.00  0.00    -0.462 C  
ENDBRANCH  17  18
ENDBRANCH  15  17
ENDBRANCH   7  15
ENDBRANCH   6   7
ENDBRANCH   4   6
ENDBRANCH   3   4
ENDBRANCH   2   3
TORSDOF 11
ENDMDL
MODEL      107
REMARK 921   NORMALIZED FREE ENERGY PREDICTED BY IDOCK:   -3.71 KCAL/MOL
REMARK 922        TOTAL FREE ENERGY PREDICTED BY IDOCK:   -6.79 KCAL/MOL
REMARK 923 INTER-LIGAND FREE ENERGY PREDICTED BY IDOCK:   -6.22 KCAL/MOL
REMARK 924 INTRA-LIGAND FREE ENERGY PREDICTED BY IDOCK:   -0.57 KCAL/MOL
REMARK 927      BINDING AFFINITY PREDICTED BY RF-SCORE:    0.00 PKD
ROOT
HETATM    1  C   UNL     1     -10.488  11.531  63.898  1.00  0.00    -0.439 C  
HETATM    2  C   UNL     1     -11.426  12.580  64.469  1.00  0.00    -0.337 C  
ENDROOT
BRANCH   2   3
HETATM    3  O   UNL     1     -10.654  13.761  64.714  1.00  0.00    -0.386 OA 
BRANCH   3   4
HETATM    4  C   UNL     1     -11.108  14.575  65.700  1.00  0.00    -0.327 C  
HETATM    5  O   UNL     1     -10.995  15.794  65.739  1.00  0.00    -0.298 OA 
BRANCH   4   6
HETATM    6  C   UNL     1     -11.953  13.786  66.657  1.00  0.00    -0.469 C  
BRANCH   6   7
HETATM    7  C   UNL     1     -11.247  13.603  67.994  1.00  0.00    -0.267 C  
BRANCH   7   8
HETATM    8  S   UNL     1     -12.405  13.535  69.426  1.00  0.00     0.027 SA 
BRANCH   8   9
HETATM    9  P   UNL     1     -11.864  15.073  70.781  1.00  0.00    -0.380 P  
HETATM   10  S   UNL     1     -11.249  16.321  69.300  1.00  0.00    -0.284 S  
BRANCH   9  11
HETATM   11  O   UNL     1     -13.438  15.348  71.222  1.00  0.00    -0.480 OA 
HETATM   12  C   UNL     1     -14.269  14.334  71.771  1.00  0.00    -0.457 C  
ENDBRANCH   9  11
BRANCH   9  13
HETATM   13  O   UNL     1     -11.421  16.329  71.886  1.00  0.00    -0.387 OA 
HETATM   14  C   UNL     1     -12.126  16.330  73.112  1.00  0.00    -0.509 C  
ENDBRANCH   9  13
ENDBRANCH   8   9
ENDBRANCH   7   8
BRANCH   7  15
HETATM   15  C   UNL     1     -10.507  12.272  67.979  1.00  0.00    -0.218 C  
HETATM   16  O   UNL     1      -9.298  12.148  67.843  1.00  0.00    -0.179 OA 
BRANCH  15  17
HETATM   17  O   UNL     1     -11.399  11.242  68.036  1.00  0.00    -0.261 OA 
BRANCH  17  18
HETATM   18  C   UNL     1     -10.857   9.998  68.495  1.00  0.00    -0.231 C  
HETATM   19  C   UNL     1     -11.060   9.927  69.997  1.00  0.00    -0.335 C  
ENDBRANCH  17  18
ENDBRANCH  15  17
ENDBRANCH   7  15
ENDBRANCH   6   7
ENDBRANCH   4   6
ENDBRANCH   3   4
ENDBRANCH   2   3
TORSDOF 11
ENDMDL
MODEL      108
REMARK 921   NORMALIZED FREE ENERGY PREDICTED BY IDOCK:   -3.70 KCAL/MOL
REMARK 922        TOTAL FREE ENERGY PREDICTED BY IDOCK:   -6.78 KCAL/MOL
REMARK 923 INTER-LIGAND FREE ENERGY PREDICTED BY IDOCK:   -6.00 KCAL/MOL
REMARK 924 INTRA-LIGAND FREE ENERGY PREDICTED BY IDOCK:   -0.78 KCAL/MOL
REMARK 927      BINDING AFFINITY PREDICTED BY RF-SCORE:    0.00 PKD
ROOT
HETATM    1  C   UNL     1     -13.534  15.168  71.433  1.00  0.00    -0.561 C  
HETATM    2  C   UNL     1     -12.035  14.932  71.464  1.00  0.00    -0.350 C  
ENDROOT
BRANCH   2   3
HETATM    3  O   UNL     1     -11.667  14.325  70.220  1.00  0.00    -0.280 OA 
BRANCH   3   4
HETATM    4  C   UNL     1     -11.246  15.171  69.247  1.00  0.00    -0.278 C  
HETATM    5  O   UNL     1     -10.516  16.142  69.400  1.00  0.00    -0.242 OA 
BRANCH   4   6
HETATM    6  C   UNL     1     -11.642  14.633  67.902  1.00  0.00    -0.373 C  
BRANCH   6   7
HETATM    7  C   UNL     1     -10.808  13.416  67.528  1.00  0.00    -0.263 C  
BRANCH   7   8
HETATM    8  S   UNL     1     -11.780  11.852  67.481  1.00  0.00    -0.195 SA 
BRANCH   8   9
HETATM    9  P   UNL     1     -10.899  10.490  68.846  1.00  0.00    -0.273 P  
HETATM   10  S   UNL     1      -9.034  11.246  68.576  1.00  0.00    -0.147 S  
BRANCH   9  11
HETATM   11  O   UNL     1     -11.672  11.170  70.147  1.00  0.00    -0.304 OA 
HETATM   12  C   UNL     1     -12.502  10.421  71.024  1.00  0.00    -0.388 C  
ENDBRANCH   9  11
BRANCH   9  13
HETATM   13  O   UNL     1     -10.180   9.378  69.959  1.00  0.00    -0.199 OA 
HETATM   14  C   UNL     1      -9.585   8.237  69.374  1.00  0.00    -0.171 C  
ENDBRANCH   9  13
ENDBRANCH   8   9
ENDBRANCH   7   8
BRANCH   7  15
HETATM   15  C   UNL     1     -10.252  13.616  66.124  1.00  0.00    -0.304 C  
HETATM   16  O   UNL     1      -9.777  14.662  65.704  1.00  0.00    -0.328 OA 
BRANCH  15  17
HETATM   17  O   UNL     1     -10.457  12.493  65.377  1.00  0.00    -0.270 OA 
BRANCH  17  18
HETATM   18  C   UNL     1     -10.682  12.728  63.982  1.00  0.00    -0.426 C  
HETATM   19  C   UNL     1     -12.123  12.365  63.675  1.00  0.00    -0.648 C  
ENDBRANCH  17  18
ENDBRANCH  15  17
ENDBRANCH   7  15
ENDBRANCH   6   7
ENDBRANCH   4   6
ENDBRANCH   3   4
ENDBRANCH   2   3
TORSDOF 11
ENDMDL
MODEL      109
REMARK 921   NORMALIZED FREE ENERGY PREDICTED BY IDOCK:   -3.70 KCAL/MOL
REMARK 922        TOTAL FREE ENERGY PREDICTED BY IDOCK:   -6.78 KCAL/MOL
REMARK 923 INTER-LIGAND FREE ENERGY PREDICTED BY IDOCK:   -5.92 KCAL/MOL
REMARK 924 INTRA-LIGAND FREE ENERGY PREDICTED BY IDOCK:   -0.85 KCAL/MOL
REMARK 927      BINDING AFFINITY PREDICTED BY RF-SCORE:    0.00 PKD
ROOT
HETATM    1  C   UNL     1     -10.933   6.273  67.391  1.00  0.00    -0.447 C  
HETATM    2  C   UNL     1      -9.871   7.173  66.785  1.00  0.00    -0.205 C  
ENDROOT
BRANCH   2   3
HETATM    3  O   UNL     1     -10.434   8.485  66.667  1.00  0.00    -0.289 OA 
BRANCH   3   4
HETATM    4  C   UNL     1      -9.702   9.385  65.964  1.00  0.00    -0.275 C  
HETATM    5  O   UNL     1      -9.252   9.227  64.836  1.00  0.00    -0.225 OA 
BRANCH   4   6
HETATM    6  C   UNL     1      -9.683  10.699  66.691  1.00  0.00    -0.225 C  
BRANCH   6   7
HETATM    7  C   UNL     1     -11.079  11.094  67.151  1.00  0.00    -0.287 C  
BRANCH   7   8
HETATM    8  S   UNL     1     -11.166  11.504  68.945  1.00  0.00    -0.272 SA 
BRANCH   8   9
HETATM    9  P   UNL     1     -11.395   9.693  70.023  1.00  0.00    -0.095 P  
HETATM   10  S   UNL     1      -9.393   9.450  70.266  1.00  0.00    -0.264 S  
BRANCH   9  11
HETATM   11  O   UNL     1     -12.098  10.458  71.316  1.00  0.00    -0.360 OA 
HETATM   12  C   UNL     1     -13.223   9.928  72.002  1.00  0.00    -0.456 C  
ENDBRANCH   9  11
BRANCH   9  13
HETATM   13  O   UNL     1     -11.581   8.215  70.903  1.00  0.00    -0.282 OA 
HETATM   14  C   UNL     1     -10.432   7.393  70.952  1.00  0.00    -0.217 C  
ENDBRANCH   9  13
ENDBRANCH   8   9
ENDBRANCH   7   8
BRANCH   7  15
HETATM   15  C   UNL     1     -11.505  12.351  66.404  1.00  0.00    -0.373 C  
HETATM   16  O   UNL     1     -12.523  12.452  65.732  1.00  0.00    -0.615 OA 
BRANCH  15  17
HETATM   17  O   UNL     1     -10.538  13.306  66.510  1.00  0.00    -0.281 OA 
BRANCH  17  18
HETATM   18  C   UNL     1     -11.017  14.656  66.498  1.00  0.00    -0.318 C  
HETATM   19  C   UNL     1     -10.463  15.336  65.259  1.00  0.00    -0.436 C  
ENDBRANCH  17  18
ENDBRANCH  15  17
ENDBRANCH   7  15
ENDBRANCH   6   7
ENDBRANCH   4   6
ENDBRANCH   3   4
ENDBRANCH   2   3
TORSDOF 11
ENDMDL
MODEL      110
REMARK 921   NORMALIZED FREE ENERGY PREDICTED BY IDOCK:   -3.70 KCAL/MOL
REMARK 922        TOTAL FREE ENERGY PREDICTED BY IDOCK:   -6.77 KCAL/MOL
REMARK 923 INTER-LIGAND FREE ENERGY PREDICTED BY IDOCK:   -6.02 KCAL/MOL
REMARK 924 INTRA-LIGAND FREE ENERGY PREDICTED BY IDOCK:   -0.75 KCAL/MOL
REMARK 927      BINDING AFFINITY PREDICTED BY RF-SCORE:    0.00 PKD
ROOT
HETATM    1  C   UNL     1     -11.191   8.072  70.758  1.00  0.00    -0.275 C  
HETATM    2  C   UNL     1     -10.723   9.512  70.634  1.00  0.00    -0.309 C  
ENDROOT
BRANCH   2   3
HETATM    3  O   UNL     1     -11.537  10.145  69.640  1.00  0.00    -0.224 OA 
BRANCH   3   4
HETATM    4  C   UNL     1     -11.521  11.502  69.634  1.00  0.00    -0.301 C  
HETATM    5  O   UNL     1     -12.005  12.234  70.489  1.00  0.00    -0.335 OA 
BRANCH   4   6
HETATM    6  C   UNL     1     -10.645  11.992  68.518  1.00  0.00    -0.252 C  
BRANCH   6   7
HETATM    7  C   UNL     1     -11.056  13.386  68.066  1.00  0.00    -0.255 C  
BRANCH   7   8
HETATM    8  S   UNL     1      -9.625  14.474  67.665  1.00  0.00    -0.217 SA 
BRANCH   8   9
HETATM    9  P   UNL     1     -10.161  16.468  68.144  1.00  0.00    -0.299 P  
HETATM   10  S   UNL     1     -11.298  15.904  69.729  1.00  0.00    -0.357 S  
BRANCH   9  11
HETATM   11  O   UNL     1      -8.613  16.863  68.588  1.00  0.00    -0.250 OA 
HETATM   12  C   UNL     1      -7.562  15.907  68.637  1.00  0.00    -0.161 C  
ENDBRANCH   9  11
BRANCH   9  13
HETATM   13  O   UNL     1     -10.600  18.095  68.535  1.00  0.00    -0.296 OA 
HETATM   14  C   UNL     1     -10.558  19.009  67.456  1.00  0.00    -0.461 C  
ENDBRANCH   9  13
ENDBRANCH   8   9
ENDBRANCH   7   8
BRANCH   7  15
HETATM   15  C   UNL     1     -11.873  13.265  66.786  1.00  0.00    -0.394 C  
HETATM   16  O   UNL     1     -12.641  14.119  66.365  1.00  0.00    -0.427 OA 
BRANCH  15  17
HETATM   17  O   UNL     1     -11.700  12.029  66.238  1.00  0.00    -0.504 OA 
BRANCH  17  18
HETATM   18  C   UNL     1     -11.400  12.025  64.837  1.00  0.00    -0.310 C  
HETATM   19  C   UNL     1     -10.465  10.861  64.564  1.00  0.00    -0.393 C  
ENDBRANCH  17  18
ENDBRANCH  15  17
ENDBRANCH   7  15
ENDBRANCH   6   7
ENDBRANCH   4   6
ENDBRANCH   3   4
ENDBRANCH   2   3
TORSDOF 11
ENDMDL
MODEL      111
REMARK 921   NORMALIZED FREE ENERGY PREDICTED BY IDOCK:   -3.70 KCAL/MOL
REMARK 922        TOTAL FREE ENERGY PREDICTED BY IDOCK:   -6.77 KCAL/MOL
REMARK 923 INTER-LIGAND FREE ENERGY PREDICTED BY IDOCK:   -6.04 KCAL/MOL
REMARK 924 INTRA-LIGAND FREE ENERGY PREDICTED BY IDOCK:   -0.73 KCAL/MOL
REMARK 927      BINDING AFFINITY PREDICTED BY RF-SCORE:    0.00 PKD
ROOT
HETATM    1  C   UNL     1     -13.773   9.018  72.093  1.00  0.00    -0.536 C  
HETATM    2  C   UNL     1     -12.474   8.723  71.364  1.00  0.00    -0.303 C  
ENDROOT
BRANCH   2   3
HETATM    3  O   UNL     1     -11.648   9.889  71.463  1.00  0.00    -0.373 OA 
BRANCH   3   4
HETATM    4  C   UNL     1     -11.750  10.780  70.445  1.00  0.00    -0.351 C  
HETATM    5  O   UNL     1     -12.566  11.690  70.361  1.00  0.00    -0.224 OA 
BRANCH   4   6
HETATM    6  C   UNL     1     -10.584  10.619  69.514  1.00  0.00    -0.265 C  
BRANCH   6   7
HETATM    7  C   UNL     1     -11.050  10.416  68.078  1.00  0.00    -0.298 C  
BRANCH   7   8
HETATM    8  S   UNL     1     -10.422  11.704  66.920  1.00  0.00    -0.237 SA 
BRANCH   8   9
HETATM    9  P   UNL     1     -10.870  13.605  67.746  1.00  0.00    -0.264 P  
HETATM   10  S   UNL     1      -9.480  14.555  66.609  1.00  0.00    -0.293 S  
BRANCH   9  11
HETATM   11  O   UNL     1     -12.378  13.638  67.056  1.00  0.00    -0.355 OA 
HETATM   12  C   UNL     1     -12.577  13.733  65.652  1.00  0.00    -0.509 C  
ENDBRANCH   9  11
BRANCH   9  13
HETATM   13  O   UNL     1     -11.234  15.156  68.420  1.00  0.00    -0.270 OA 
HETATM   14  C   UNL     1     -11.929  15.132  69.651  1.00  0.00    -0.329 C  
ENDBRANCH   9  13
ENDBRANCH   8   9
ENDBRANCH   7   8
BRANCH   7  15
HETATM   15  C   UNL     1     -10.510   9.086  67.571  1.00  0.00    -0.272 C  
HETATM   16  O   UNL     1     -10.198   8.856  66.410  1.00  0.00    -0.283 OA 
BRANCH  15  17
HETATM   17  O   UNL     1     -10.525   8.163  68.575  1.00  0.00    -0.207 OA 
BRANCH  17  18
HETATM   18  C   UNL     1     -10.825   6.824  68.162  1.00  0.00    -0.228 C  
HETATM   19  C   UNL     1     -11.082   5.999  69.409  1.00  0.00    -0.445 C  
ENDBRANCH  17  18
ENDBRANCH  15  17
ENDBRANCH   7  15
ENDBRANCH   6   7
ENDBRANCH   4   6
ENDBRANCH   3   4
ENDBRANCH   2   3
TORSDOF 11
ENDMDL
MODEL      112
REMARK 921   NORMALIZED FREE ENERGY PREDICTED BY IDOCK:   -3.69 KCAL/MOL
REMARK 922        TOTAL FREE ENERGY PREDICTED BY IDOCK:   -6.77 KCAL/MOL
REMARK 923 INTER-LIGAND FREE ENERGY PREDICTED BY IDOCK:   -6.31 KCAL/MOL
REMARK 924 INTRA-LIGAND FREE ENERGY PREDICTED BY IDOCK:   -0.45 KCAL/MOL
REMARK 927      BINDING AFFINITY PREDICTED BY RF-SCORE:    0.00 PKD
ROOT
HETATM    1  C   UNL     1     -11.696   6.296  72.030  1.00  0.00    -0.374 C  
HETATM    2  C   UNL     1     -12.573   7.337  71.356  1.00  0.00    -0.388 C  
ENDROOT
BRANCH   2   3
HETATM    3  O   UNL     1     -12.461   8.549  72.111  1.00  0.00    -0.336 OA 
BRANCH   3   4
HETATM    4  C   UNL     1     -11.718   9.534  71.548  1.00  0.00    -0.402 C  
HETATM    5  O   UNL     1     -10.495   9.561  71.471  1.00  0.00    -0.302 OA 
BRANCH   4   6
HETATM    6  C   UNL     1     -12.617  10.509  70.846  1.00  0.00    -0.493 C  
BRANCH   6   7
HETATM    7  C   UNL     1     -11.817  11.628  70.195  1.00  0.00    -0.344 C  
BRANCH   7   8
HETATM    8  S   UNL     1     -11.893  11.602  68.354  1.00  0.00    -0.206 SA 
BRANCH   8   9
HETATM    9  P   UNL     1     -10.077  12.405  67.610  1.00  0.00    -0.206 P  
HETATM   10  S   UNL     1      -9.383  10.592  67.015  1.00  0.00    -0.156 S  
BRANCH   9  11
HETATM   11  O   UNL     1     -10.846  13.218  66.386  1.00  0.00    -0.285 OA 
HETATM   12  C   UNL     1     -11.945  14.089  66.615  1.00  0.00    -0.445 C  
ENDBRANCH   9  11
BRANCH   9  13
HETATM   13  O   UNL     1      -8.596  13.060  67.004  1.00  0.00    -0.200 OA 
HETATM   14  C   UNL     1      -7.442  12.748  67.760  1.00  0.00    -0.135 C  
ENDBRANCH   9  13
ENDBRANCH   8   9
ENDBRANCH   7   8
BRANCH   7  15
HETATM   15  C   UNL     1     -12.401  12.966  70.627  1.00  0.00    -0.302 C  
HETATM   16  O   UNL     1     -11.985  14.058  70.266  1.00  0.00    -0.305 OA 
BRANCH  15  17
HETATM   17  O   UNL     1     -13.382  12.769  71.553  1.00  0.00    -0.308 OA 
BRANCH  17  18
HETATM   18  C   UNL     1     -13.436  13.750  72.596  1.00  0.00    -0.530 C  
HETATM   19  C   UNL     1     -14.362  14.862  72.141  1.00  0.00    -0.598 C  
ENDBRANCH  17  18
ENDBRANCH  15  17
ENDBRANCH   7  15
ENDBRANCH   6   7
ENDBRANCH   4   6
ENDBRANCH   3   4
ENDBRANCH   2   3
TORSDOF 11
ENDMDL
MODEL      113
REMARK 921   NORMALIZED FREE ENERGY PREDICTED BY IDOCK:   -3.69 KCAL/MOL
REMARK 922        TOTAL FREE ENERGY PREDICTED BY IDOCK:   -6.77 KCAL/MOL
REMARK 923 INTER-LIGAND FREE ENERGY PREDICTED BY IDOCK:   -6.09 KCAL/MOL
REMARK 924 INTRA-LIGAND FREE ENERGY PREDICTED BY IDOCK:   -0.68 KCAL/MOL
REMARK 927      BINDING AFFINITY PREDICTED BY RF-SCORE:    0.00 PKD
ROOT
HETATM    1  C   UNL     1      -9.265   8.513  66.304  1.00  0.00    -0.262 C  
HETATM    2  C   UNL     1     -10.517   9.068  66.959  1.00  0.00    -0.246 C  
ENDROOT
BRANCH   2   3
HETATM    3  O   UNL     1     -10.127  10.203  67.741  1.00  0.00    -0.165 OA 
BRANCH   3   4
HETATM    4  C   UNL     1     -11.138  10.930  68.280  1.00  0.00    -0.266 C  
HETATM    5  O   UNL     1     -12.061  11.451  67.665  1.00  0.00    -0.630 OA 
BRANCH   4   6
HETATM    6  C   UNL     1     -11.079  10.846  69.778  1.00  0.00    -0.328 C  
BRANCH   6   7
HETATM    7  C   UNL     1     -12.468  10.661  70.374  1.00  0.00    -0.338 C  
BRANCH   7   8
HETATM    8  S   UNL     1     -12.601   9.186  71.468  1.00  0.00    -0.357 SA 
BRANCH   8   9
HETATM    9  P   UNL     1     -10.889   7.977  71.152  1.00  0.00    -0.250 P  
HETATM   10  S   UNL     1     -10.675   7.560  73.129  1.00  0.00    -0.378 S  
BRANCH   9  11
HETATM   11  O   UNL     1     -11.759   6.812  70.354  1.00  0.00    -0.361 OA 
HETATM   12  C   UNL     1     -11.255   6.119  69.221  1.00  0.00    -0.367 C  
ENDBRANCH   9  11
BRANCH   9  13
HETATM   13  O   UNL     1      -9.491   6.990  70.895  1.00  0.00    -0.161 OA 
HETATM   14  C   UNL     1      -8.273   7.694  70.752  1.00  0.00    -0.109 C  
ENDBRANCH   9  13
ENDBRANCH   8   9
ENDBRANCH   7   8
BRANCH   7  15
HETATM   15  C   UNL     1     -12.793  11.869  71.243  1.00  0.00    -0.290 C  
HETATM   16  O   UNL     1     -13.416  11.824  72.296  1.00  0.00    -0.423 OA 
BRANCH  15  17
HETATM   17  O   UNL     1     -12.379  13.013  70.626  1.00  0.00    -0.356 OA 
BRANCH  17  18
HETATM   18  C   UNL     1     -12.384  14.182  71.454  1.00  0.00    -0.344 C  
HETATM   19  C   UNL     1     -13.516  15.078  70.987  1.00  0.00    -0.461 C  
ENDBRANCH  17  18
ENDBRANCH  15  17
ENDBRANCH   7  15
ENDBRANCH   6   7
ENDBRANCH   4   6
ENDBRANCH   3   4
ENDBRANCH   2   3
TORSDOF 11
ENDMDL
MODEL      114
REMARK 921   NORMALIZED FREE ENERGY PREDICTED BY IDOCK:   -3.69 KCAL/MOL
REMARK 922        TOTAL FREE ENERGY PREDICTED BY IDOCK:   -6.75 KCAL/MOL
REMARK 923 INTER-LIGAND FREE ENERGY PREDICTED BY IDOCK:   -6.10 KCAL/MOL
REMARK 924 INTRA-LIGAND FREE ENERGY PREDICTED BY IDOCK:   -0.65 KCAL/MOL
REMARK 927      BINDING AFFINITY PREDICTED BY RF-SCORE:    0.00 PKD
ROOT
HETATM    1  C   UNL     1      -6.660  14.552  68.475  1.00  0.00    -0.093 C  
HETATM    2  C   UNL     1      -7.405  13.229  68.518  1.00  0.00    -0.115 C  
ENDROOT
BRANCH   2   3
HETATM    3  O   UNL     1      -8.310  13.208  67.409  1.00  0.00    -0.170 OA 
BRANCH   3   4
HETATM    4  C   UNL     1      -9.624  13.366  67.708  1.00  0.00    -0.213 C  
HETATM    5  O   UNL     1     -10.077  13.810  68.756  1.00  0.00    -0.214 OA 
BRANCH   4   6
HETATM    6  C   UNL     1     -10.457  13.102  66.488  1.00  0.00    -0.283 C  
BRANCH   6   7
HETATM    7  C   UNL     1     -11.189  14.359  66.038  1.00  0.00    -0.333 C  
BRANCH   7   8
HETATM    8  S   UNL     1     -10.080  15.614  65.272  1.00  0.00    -0.183 SA 
BRANCH   8   9
HETATM    9  P   UNL     1      -9.815  17.193  66.663  1.00  0.00    -0.314 P  
HETATM   10  S   UNL     1      -7.829  17.359  66.272  1.00  0.00    -0.275 S  
BRANCH   9  11
HETATM   11  O   UNL     1     -10.724  18.247  65.761  1.00  0.00    -0.468 OA 
HETATM   12  C   UNL     1     -10.518  19.653  65.785  1.00  0.00    -0.444 C  
ENDBRANCH   9  11
BRANCH   9  13
HETATM   13  O   UNL     1      -9.598  18.480  67.798  1.00  0.00    -0.280 OA 
HETATM   14  C   UNL     1      -8.333  18.524  68.428  1.00  0.00    -0.332 C  
ENDBRANCH   9  13
ENDBRANCH   8   9
ENDBRANCH   7   8
BRANCH   7  15
HETATM   15  C   UNL     1     -12.206  13.979  64.970  1.00  0.00    -0.433 C  
HETATM   16  O   UNL     1     -12.895  14.775  64.348  1.00  0.00    -0.534 OA 
BRANCH  15  17
HETATM   17  O   UNL     1     -12.307  12.621  64.885  1.00  0.00    -0.457 OA 
BRANCH  17  18
HETATM   18  C   UNL     1     -12.208  12.090  63.558  1.00  0.00    -0.547 C  
HETATM   19  C   UNL     1     -10.738  11.872  63.252  1.00  0.00    -0.415 C  
ENDBRANCH  17  18
ENDBRANCH  15  17
ENDBRANCH   7  15
ENDBRANCH   6   7
ENDBRANCH   4   6
ENDBRANCH   3   4
ENDBRANCH   2   3
TORSDOF 11
ENDMDL
MODEL      115
REMARK 921   NORMALIZED FREE ENERGY PREDICTED BY IDOCK:   -3.69 KCAL/MOL
REMARK 922        TOTAL FREE ENERGY PREDICTED BY IDOCK:   -6.75 KCAL/MOL
REMARK 923 INTER-LIGAND FREE ENERGY PREDICTED BY IDOCK:   -5.98 KCAL/MOL
REMARK 924 INTRA-LIGAND FREE ENERGY PREDICTED BY IDOCK:   -0.77 KCAL/MOL
REMARK 927      BINDING AFFINITY PREDICTED BY RF-SCORE:    0.00 PKD
ROOT
HETATM    1  C   UNL     1     -11.205  12.109  63.649  1.00  0.00    -0.540 C  
HETATM    2  C   UNL     1     -10.411  11.998  64.939  1.00  0.00    -0.285 C  
ENDROOT
BRANCH   2   3
HETATM    3  O   UNL     1     -11.342  11.741  65.997  1.00  0.00    -0.330 OA 
BRANCH   3   4
HETATM    4  C   UNL     1     -11.529  12.751  66.882  1.00  0.00    -0.340 C  
HETATM    5  O   UNL     1     -12.345  13.659  66.781  1.00  0.00    -0.387 OA 
BRANCH   4   6
HETATM    6  C   UNL     1     -10.723  12.493  68.122  1.00  0.00    -0.246 C  
BRANCH   6   7
HETATM    7  C   UNL     1     -11.172  11.214  68.815  1.00  0.00    -0.253 C  
BRANCH   7   8
HETATM    8  S   UNL     1      -9.772  10.206  69.463  1.00  0.00    -0.211 SA 
BRANCH   8   9
HETATM    9  P   UNL     1     -10.011   8.221  68.759  1.00  0.00    -0.190 P  
HETATM   10  S   UNL     1      -8.122   8.135  68.016  1.00  0.00    -0.130 S  
BRANCH   9  11
HETATM   11  O   UNL     1     -10.112   7.603  70.295  1.00  0.00    -0.195 OA 
HETATM   12  C   UNL     1     -11.300   7.017  70.809  1.00  0.00    -0.298 C  
ENDBRANCH   9  11
BRANCH   9  13
HETATM   13  O   UNL     1     -10.205   6.601  68.184  1.00  0.00    -0.150 OA 
HETATM   14  C   UNL     1     -10.915   6.473  66.968  1.00  0.00    -0.396 C  
ENDBRANCH   9  13
ENDBRANCH   8   9
ENDBRANCH   7   8
BRANCH   7  15
HETATM   15  C   UNL     1     -12.027  11.583  70.020  1.00  0.00    -0.357 C  
HETATM   16  O   UNL     1     -12.158  12.717  70.462  1.00  0.00    -0.363 OA 
BRANCH  15  17
HETATM   17  O   UNL     1     -12.537  10.455  70.593  1.00  0.00    -0.328 OA 
BRANCH  17  18
HETATM   18  C   UNL     1     -13.099  10.641  71.898  1.00  0.00    -0.458 C  
HETATM   19  C   UNL     1     -13.740   9.331  72.319  1.00  0.00    -0.527 C  
ENDBRANCH  17  18
ENDBRANCH  15  17
ENDBRANCH   7  15
ENDBRANCH   6   7
ENDBRANCH   4   6
ENDBRANCH   3   4
ENDBRANCH   2   3
TORSDOF 11
ENDMDL
MODEL      116
REMARK 921   NORMALIZED FREE ENERGY PREDICTED BY IDOCK:   -3.67 KCAL/MOL
REMARK 922        TOTAL FREE ENERGY PREDICTED BY IDOCK:   -6.73 KCAL/MOL
REMARK 923 INTER-LIGAND FREE ENERGY PREDICTED BY IDOCK:   -6.29 KCAL/MOL
REMARK 924 INTRA-LIGAND FREE ENERGY PREDICTED BY IDOCK:   -0.44 KCAL/MOL
REMARK 927      BINDING AFFINITY PREDICTED BY RF-SCORE:    0.00 PKD
ROOT
HETATM    1  C   UNL     1     -12.529  15.655  74.226  1.00  0.00    -0.804 C  
HETATM    2  C   UNL     1     -13.022  15.755  72.794  1.00  0.00    -0.490 C  
ENDROOT
BRANCH   2   3
HETATM    3  O   UNL     1     -11.896  16.082  71.971  1.00  0.00    -0.455 OA 
BRANCH   3   4
HETATM    4  C   UNL     1     -11.984  15.717  70.668  1.00  0.00    -0.402 C  
HETATM    5  O   UNL     1     -12.930  15.932  69.920  1.00  0.00    -0.081 OA 
BRANCH   4   6
HETATM    6  C   UNL     1     -10.663  15.176  70.204  1.00  0.00    -0.245 C  
BRANCH   6   7
HETATM    7  C   UNL     1     -10.294  15.724  68.832  1.00  0.00    -0.224 C  
BRANCH   7   8
HETATM    8  S   UNL     1      -8.572  16.372  68.745  1.00  0.00    -0.255 SA 
BRANCH   8   9
HETATM    9  P   UNL     1      -8.619  18.229  67.723  1.00  0.00    -0.264 P  
HETATM   10  S   UNL     1     -10.646  18.245  67.607  1.00  0.00    -0.353 S  
BRANCH   9  11
HETATM   11  O   UNL     1      -8.058  19.060  69.043  1.00  0.00    -0.300 OA 
HETATM   12  C   UNL     1      -6.796  19.715  69.058  1.00  0.00    -0.343 C  
ENDBRANCH   9  11
BRANCH   9  13
HETATM   13  O   UNL     1      -8.658  19.744  66.889  1.00  0.00    -0.302 OA 
HETATM   14  C   UNL     1      -7.674  19.907  65.887  1.00  0.00    -0.315 C  
ENDBRANCH   9  13
ENDBRANCH   8   9
ENDBRANCH   7   8
BRANCH   7  15
HETATM   15  C   UNL     1     -10.379  14.595  67.814  1.00  0.00    -0.237 C  
HETATM   16  O   UNL     1     -10.331  14.745  66.600  1.00  0.00    -0.265 OA 
BRANCH  15  17
HETATM   17  O   UNL     1     -10.618  13.412  68.448  1.00  0.00    -0.236 OA 
BRANCH  17  18
HETATM   18  C   UNL     1     -11.733  12.669  67.941  1.00  0.00    -0.358 C  
HETATM   19  C   UNL     1     -11.945  11.471  68.848  1.00  0.00    -0.364 C  
ENDBRANCH  17  18
ENDBRANCH  15  17
ENDBRANCH   7  15
ENDBRANCH   6   7
ENDBRANCH   4   6
ENDBRANCH   3   4
ENDBRANCH   2   3
TORSDOF 11
ENDMDL
MODEL      117
REMARK 921   NORMALIZED FREE ENERGY PREDICTED BY IDOCK:   -3.67 KCAL/MOL
REMARK 922        TOTAL FREE ENERGY PREDICTED BY IDOCK:   -6.72 KCAL/MOL
REMARK 923 INTER-LIGAND FREE ENERGY PREDICTED BY IDOCK:   -6.06 KCAL/MOL
REMARK 924 INTRA-LIGAND FREE ENERGY PREDICTED BY IDOCK:   -0.66 KCAL/MOL
REMARK 927      BINDING AFFINITY PREDICTED BY RF-SCORE:    0.00 PKD
ROOT
HETATM    1  C   UNL     1     -12.160  12.947  63.306  1.00  0.00    -0.520 C  
HETATM    2  C   UNL     1     -11.528  11.974  64.285  1.00  0.00    -0.361 C  
ENDROOT
BRANCH   2   3
HETATM    3  O   UNL     1     -12.062  12.261  65.583  1.00  0.00    -0.557 OA 
BRANCH   3   4
HETATM    4  C   UNL     1     -11.210  12.847  66.460  1.00  0.00    -0.302 C  
HETATM    5  O   UNL     1      -9.994  12.937  66.337  1.00  0.00    -0.255 OA 
BRANCH   4   6
HETATM    6  C   UNL     1     -11.991  13.556  67.528  1.00  0.00    -0.385 C  
BRANCH   6   7
HETATM    7  C   UNL     1     -11.252  13.536  68.858  1.00  0.00    -0.275 C  
BRANCH   7   8
HETATM    8  S   UNL     1     -10.941  15.217  69.545  1.00  0.00    -0.288 SA 
BRANCH   8   9
HETATM    9  P   UNL     1      -9.372  16.102  68.429  1.00  0.00    -0.220 P  
HETATM   10  S   UNL     1     -10.217  17.948  68.485  1.00  0.00    -0.375 S  
BRANCH   9  11
HETATM   11  O   UNL     1      -8.270  15.877  69.647  1.00  0.00    -0.154 OA 
HETATM   12  C   UNL     1      -6.875  15.746  69.406  1.00  0.00    -0.190 C  
ENDBRANCH   9  11
BRANCH   9  13
HETATM   13  O   UNL     1      -8.092  16.826  67.517  1.00  0.00    -0.168 OA 
HETATM   14  C   UNL     1      -8.216  16.720  66.112  1.00  0.00    -0.264 C  
ENDBRANCH   9  13
ENDBRANCH   8   9
ENDBRANCH   7   8
BRANCH   7  15
HETATM   15  C   UNL     1     -12.110  12.807  69.885  1.00  0.00    -0.259 C  
HETATM   16  O   UNL     1     -12.619  13.330  70.866  1.00  0.00    -0.345 OA 
BRANCH  15  17
HETATM   17  O   UNL     1     -12.138  11.472  69.605  1.00  0.00    -0.309 OA 
BRANCH  17  18
HETATM   18  C   UNL     1     -12.488  10.631  70.711  1.00  0.00    -0.385 C  
HETATM   19  C   UNL     1     -11.282   9.771  71.041  1.00  0.00    -0.451 C  
ENDBRANCH  17  18
ENDBRANCH  15  17
ENDBRANCH   7  15
ENDBRANCH   6   7
ENDBRANCH   4   6
ENDBRANCH   3   4
ENDBRANCH   2   3
TORSDOF 11
ENDMDL
MODEL      118
REMARK 921   NORMALIZED FREE ENERGY PREDICTED BY IDOCK:   -3.67 KCAL/MOL
REMARK 922        TOTAL FREE ENERGY PREDICTED BY IDOCK:   -6.72 KCAL/MOL
REMARK 923 INTER-LIGAND FREE ENERGY PREDICTED BY IDOCK:   -5.80 KCAL/MOL
REMARK 924 INTRA-LIGAND FREE ENERGY PREDICTED BY IDOCK:   -0.92 KCAL/MOL
REMARK 927      BINDING AFFINITY PREDICTED BY RF-SCORE:    0.00 PKD
ROOT
HETATM    1  C   UNL     1     -14.352  15.185  72.074  1.00  0.00    -0.682 C  
HETATM    2  C   UNL     1     -13.724  13.884  71.607  1.00  0.00    -0.316 C  
ENDROOT
BRANCH   2   3
HETATM    3  O   UNL     1     -12.306  14.077  71.573  1.00  0.00    -0.340 OA 
BRANCH   3   4
HETATM    4  C   UNL     1     -11.852  15.006  70.695  1.00  0.00    -0.313 C  
HETATM    5  O   UNL     1     -11.183  15.994  70.971  1.00  0.00    -0.361 OA 
BRANCH   4   6
HETATM    6  C   UNL     1     -12.120  14.549  69.291  1.00  0.00    -0.325 C  
BRANCH   6   7
HETATM    7  C   UNL     1     -11.063  13.559  68.822  1.00  0.00    -0.264 C  
BRANCH   7   8
HETATM    8  S   UNL     1     -11.630  12.489  67.434  1.00  0.00    -0.370 SA 
BRANCH   8   9
HETATM    9  P   UNL     1     -10.662  10.611  67.615  1.00  0.00    -0.304 P  
HETATM   10  S   UNL     1      -9.137  11.149  66.385  1.00  0.00    -0.192 S  
BRANCH   9  11
HETATM   11  O   UNL     1     -10.300  10.862  69.214  1.00  0.00    -0.220 OA 
HETATM   12  C   UNL     1     -10.600   9.910  70.226  1.00  0.00    -0.301 C  
ENDBRANCH   9  11
BRANCH   9  13
HETATM   13  O   UNL     1      -9.872   9.079  67.761  1.00  0.00    -0.154 OA 
HETATM   14  C   UNL     1     -10.435   8.033  66.993  1.00  0.00    -0.340 C  
ENDBRANCH   9  13
ENDBRANCH   8   9
ENDBRANCH   7   8
BRANCH   7  15
HETATM   15  C   UNL     1      -9.861  14.336  68.299  1.00  0.00    -0.235 C  
HETATM   16  O   UNL     1      -8.696  14.087  68.575  1.00  0.00    -0.181 OA 
BRANCH  15  17
HETATM   17  O   UNL     1     -10.282  15.406  67.566  1.00  0.00    -0.239 OA 
BRANCH  17  18
HETATM   18  C   UNL     1      -9.482  15.702  66.414  1.00  0.00    -0.292 C  
HETATM   19  C   UNL     1     -10.248  15.245  65.186  1.00  0.00    -0.374 C  
ENDBRANCH  17  18
ENDBRANCH  15  17
ENDBRANCH   7  15
ENDBRANCH   6   7
ENDBRANCH   4   6
ENDBRANCH   3   4
ENDBRANCH   2   3
TORSDOF 11
ENDMDL
MODEL      119
REMARK 921   NORMALIZED FREE ENERGY PREDICTED BY IDOCK:   -3.66 KCAL/MOL
REMARK 922        TOTAL FREE ENERGY PREDICTED BY IDOCK:   -6.71 KCAL/MOL
REMARK 923 INTER-LIGAND FREE ENERGY PREDICTED BY IDOCK:   -5.93 KCAL/MOL
REMARK 924 INTRA-LIGAND FREE ENERGY PREDICTED BY IDOCK:   -0.78 KCAL/MOL
REMARK 927      BINDING AFFINITY PREDICTED BY RF-SCORE:    0.00 PKD
ROOT
HETATM    1  C   UNL     1      -8.477   9.965  69.688  1.00  0.00    -0.198 C  
HETATM    2  C   UNL     1      -9.949   9.941  70.061  1.00  0.00    -0.254 C  
ENDROOT
BRANCH   2   3
HETATM    3  O   UNL     1     -10.567  11.082  69.453  1.00  0.00    -0.223 OA 
BRANCH   3   4
HETATM    4  C   UNL     1     -11.673  11.561  70.073  1.00  0.00    -0.332 C  
HETATM    5  O   UNL     1     -12.174  11.119  71.100  1.00  0.00    -0.338 OA 
BRANCH   4   6
HETATM    6  C   UNL     1     -12.097  12.849  69.429  1.00  0.00    -0.254 C  
BRANCH   6   7
HETATM    7  C   UNL     1     -11.437  14.045  70.101  1.00  0.00    -0.133 C  
BRANCH   7   8
HETATM    8  S   UNL     1     -10.283  14.959  68.993  1.00  0.00    -0.240 SA 
BRANCH   8   9
HETATM    9  P   UNL     1     -10.929  14.675  66.994  1.00  0.00    -0.331 P  
HETATM   10  S   UNL     1     -10.121  16.427  66.361  1.00  0.00    -0.331 S  
BRANCH   9  11
HETATM   11  O   UNL     1      -9.907  13.390  66.761  1.00  0.00    -0.250 OA 
HETATM   12  C   UNL     1      -8.560  13.389  67.215  1.00  0.00    -0.213 C  
ENDBRANCH   9  11
BRANCH   9  13
HETATM   13  O   UNL     1     -11.457  14.444  65.363  1.00  0.00    -0.327 OA 
HETATM   14  C   UNL     1     -12.760  13.914  65.218  1.00  0.00    -0.449 C  
ENDBRANCH   9  13
ENDBRANCH   8   9
ENDBRANCH   7   8
BRANCH   7  15
HETATM   15  C   UNL     1     -12.517  15.039  70.506  1.00  0.00    -0.371 C  
HETATM   16  O   UNL     1     -12.667  16.147  70.011  1.00  0.00    -0.090 OA 
BRANCH  15  17
HETATM   17  O   UNL     1     -13.223  14.553  71.567  1.00  0.00    -0.325 OA 
BRANCH  17  18
HETATM   18  C   UNL     1     -13.831  15.551  72.396  1.00  0.00    -0.568 C  
HETATM   19  C   UNL     1     -12.883  15.842  73.546  1.00  0.00    -0.702 C  
ENDBRANCH  17  18
ENDBRANCH  15  17
ENDBRANCH   7  15
ENDBRANCH   6   7
ENDBRANCH   4   6
ENDBRANCH   3   4
ENDBRANCH   2   3
TORSDOF 11
ENDMDL
MODEL      120
REMARK 921   NORMALIZED FREE ENERGY PREDICTED BY IDOCK:   -3.66 KCAL/MOL
REMARK 922        TOTAL FREE ENERGY PREDICTED BY IDOCK:   -6.71 KCAL/MOL
REMARK 923 INTER-LIGAND FREE ENERGY PREDICTED BY IDOCK:   -5.99 KCAL/MOL
REMARK 924 INTRA-LIGAND FREE ENERGY PREDICTED BY IDOCK:   -0.73 KCAL/MOL
REMARK 927      BINDING AFFINITY PREDICTED BY RF-SCORE:    0.00 PKD
ROOT
HETATM    1  C   UNL     1      -9.442   9.229  65.885  1.00  0.00    -0.325 C  
HETATM    2  C   UNL     1      -8.707  10.439  65.335  1.00  0.00    -0.180 C  
ENDROOT
BRANCH   2   3
HETATM    3  O   UNL     1      -8.083  11.104  66.439  1.00  0.00    -0.163 OA 
BRANCH   3   4
HETATM    4  C   UNL     1      -8.824  12.058  67.055  1.00  0.00    -0.197 C  
HETATM    5  O   UNL     1      -8.945  12.210  68.264  1.00  0.00    -0.189 OA 
BRANCH   4   6
HETATM    6  C   UNL     1      -9.329  13.041  66.039  1.00  0.00    -0.024 C  
BRANCH   6   7
HETATM    7  C   UNL     1     -10.117  14.163  66.701  1.00  0.00    -0.275 C  
BRANCH   7   8
HETATM    8  S   UNL     1      -9.820  15.812  65.935  1.00  0.00    -0.361 SA 
BRANCH   8   9
HETATM    9  P   UNL     1      -9.736  17.253  67.487  1.00  0.00    -0.280 P  
HETATM   10  S   UNL     1     -10.390  18.755  66.287  1.00  0.00    -0.443 S  
BRANCH   9  11
HETATM   11  O   UNL     1     -10.973  16.536  68.329  1.00  0.00    -0.337 OA 
HETATM   12  C   UNL     1     -10.881  16.227  69.713  1.00  0.00    -0.356 C  
ENDBRANCH   9  11
BRANCH   9  13
HETATM   13  O   UNL     1      -9.667  18.429  68.754  1.00  0.00    -0.348 OA 
HETATM   14  C   UNL     1     -10.040  19.741  68.382  1.00  0.00    -0.454 C  
ENDBRANCH   9  13
ENDBRANCH   8   9
ENDBRANCH   7   8
BRANCH   7  15
HETATM   15  C   UNL     1     -11.604  13.879  66.541  1.00  0.00    -0.369 C  
HETATM   16  O   UNL     1     -12.353  13.545  67.450  1.00  0.00    -0.278 OA 
BRANCH  15  17
HETATM   17  O   UNL     1     -11.954  13.950  65.225  1.00  0.00    -0.341 OA 
BRANCH  17  18
HETATM   18  C   UNL     1     -12.654  12.805  64.722  1.00  0.00    -0.446 C  
HETATM   19  C   UNL     1     -12.118  12.504  63.335  1.00  0.00    -0.621 C  
ENDBRANCH  17  18
ENDBRANCH  15  17
ENDBRANCH   7  15
ENDBRANCH   6   7
ENDBRANCH   4   6
ENDBRANCH   3   4
ENDBRANCH   2   3
TORSDOF 11
ENDMDL
MODEL      121
REMARK 921   NORMALIZED FREE ENERGY PREDICTED BY IDOCK:   -3.65 KCAL/MOL
REMARK 922        TOTAL FREE ENERGY PREDICTED BY IDOCK:   -6.69 KCAL/MOL
REMARK 923 INTER-LIGAND FREE ENERGY PREDICTED BY IDOCK:   -5.77 KCAL/MOL
REMARK 924 INTRA-LIGAND FREE ENERGY PREDICTED BY IDOCK:   -0.92 KCAL/MOL
REMARK 927      BINDING AFFINITY PREDICTED BY RF-SCORE:    0.00 PKD
ROOT
HETATM    1  C   UNL     1     -13.524   8.894  72.333  1.00  0.00    -0.499 C  
HETATM    2  C   UNL     1     -12.305   8.891  71.427  1.00  0.00    -0.313 C  
ENDROOT
BRANCH   2   3
HETATM    3  O   UNL     1     -11.707  10.191  71.504  1.00  0.00    -0.343 OA 
BRANCH   3   4
HETATM    4  C   UNL     1     -12.374  11.190  70.875  1.00  0.00    -0.399 C  
HETATM    5  O   UNL     1     -12.919  12.146  71.414  1.00  0.00    -0.368 OA 
BRANCH   4   6
HETATM    6  C   UNL     1     -12.182  11.071  69.391  1.00  0.00    -0.329 C  
BRANCH   6   7
HETATM    7  C   UNL     1     -11.135  12.056  68.890  1.00  0.00    -0.247 C  
BRANCH   7   8
HETATM    8  S   UNL     1      -9.631  11.237  68.210  1.00  0.00    -0.198 SA 
BRANCH   8   9
HETATM    9  P   UNL     1     -10.177   9.295  67.559  1.00  0.00    -0.274 P  
HETATM   10  S   UNL     1      -9.617   9.656  65.640  1.00  0.00    -0.280 S  
BRANCH   9  11
HETATM   11  O   UNL     1      -8.972   8.573  68.441  1.00  0.00    -0.139 OA 
HETATM   12  C   UNL     1      -8.842   8.745  69.846  1.00  0.00    -0.143 C  
ENDBRANCH   9  11
BRANCH   9  13
HETATM   13  O   UNL     1     -10.623   7.711  67.026  1.00  0.00    -0.329 OA 
HETATM   14  C   UNL     1      -9.547   6.874  66.651  1.00  0.00    -0.168 C  
ENDBRANCH   9  13
ENDBRANCH   8   9
ENDBRANCH   7   8
BRANCH   7  15
HETATM   15  C   UNL     1     -11.732  12.868  67.748  1.00  0.00    -0.362 C  
HETATM   16  O   UNL     1     -12.249  12.390  66.747  1.00  0.00    -0.551 OA 
BRANCH  15  17
HETATM   17  O   UNL     1     -11.512  14.197  67.957  1.00  0.00    -0.279 OA 
BRANCH  17  18
HETATM   18  C   UNL     1     -12.061  14.717  69.173  1.00  0.00    -0.248 C  
HETATM   19  C   UNL     1     -11.033  15.648  69.788  1.00  0.00    -0.307 C  
ENDBRANCH  17  18
ENDBRANCH  15  17
ENDBRANCH   7  15
ENDBRANCH   6   7
ENDBRANCH   4   6
ENDBRANCH   3   4
ENDBRANCH   2   3
TORSDOF 11
ENDMDL
MODEL      122
REMARK 921   NORMALIZED FREE ENERGY PREDICTED BY IDOCK:   -3.65 KCAL/MOL
REMARK 922        TOTAL FREE ENERGY PREDICTED BY IDOCK:   -6.69 KCAL/MOL
REMARK 923 INTER-LIGAND FREE ENERGY PREDICTED BY IDOCK:   -5.93 KCAL/MOL
REMARK 924 INTRA-LIGAND FREE ENERGY PREDICTED BY IDOCK:   -0.76 KCAL/MOL
REMARK 927      BINDING AFFINITY PREDICTED BY RF-SCORE:    0.00 PKD
ROOT
HETATM    1  C   UNL     1      -9.734  11.117  62.998  1.00  0.00    -0.384 C  
HETATM    2  C   UNL     1     -10.082  11.392  64.450  1.00  0.00    -0.291 C  
ENDROOT
BRANCH   2   3
HETATM    3  O   UNL     1     -10.100  10.134  65.135  1.00  0.00    -0.326 OA 
BRANCH   3   4
HETATM    4  C   UNL     1      -9.817  10.174  66.461  1.00  0.00    -0.212 C  
HETATM    5  O   UNL     1      -8.712  10.022  66.968  1.00  0.00    -0.131 OA 
BRANCH   4   6
HETATM    6  C   UNL     1     -11.027  10.632  67.223  1.00  0.00    -0.348 C  
BRANCH   6   7
HETATM    7  C   UNL     1     -10.641  11.578  68.351  1.00  0.00    -0.201 C  
BRANCH   7   8
HETATM    8  S   UNL     1     -11.672  13.104  68.407  1.00  0.00    -0.359 SA 
BRANCH   8   9
HETATM    9  P   UNL     1     -10.975  14.423  66.902  1.00  0.00    -0.323 P  
HETATM   10  S   UNL     1     -12.507  13.984  65.644  1.00  0.00    -0.483 S  
BRANCH   9  11
HETATM   11  O   UNL     1     -11.283  15.766  67.824  1.00  0.00    -0.336 OA 
HETATM   12  C   UNL     1     -11.791  15.687  69.149  1.00  0.00    -0.362 C  
ENDBRANCH   9  11
BRANCH   9  13
HETATM   13  O   UNL     1     -10.405  15.499  65.673  1.00  0.00    -0.328 OA 
HETATM   14  C   UNL     1      -9.297  16.299  66.035  1.00  0.00    -0.326 C  
ENDBRANCH   9  13
ENDBRANCH   8   9
ENDBRANCH   7   8
BRANCH   7  15
HETATM   15  C   UNL     1     -10.857  10.868  69.682  1.00  0.00    -0.216 C  
HETATM   16  O   UNL     1     -10.129   9.993  70.132  1.00  0.00    -0.255 OA 
BRANCH  15  17
HETATM   17  O   UNL     1     -12.030  11.277  70.244  1.00  0.00    -0.325 OA 
BRANCH  17  18
HETATM   18  C   UNL     1     -12.986  10.235  70.472  1.00  0.00    -0.186 C  
HETATM   19  C   UNL     1     -13.194  10.114  71.970  1.00  0.00    -0.534 C  
ENDBRANCH  17  18
ENDBRANCH  15  17
ENDBRANCH   7  15
ENDBRANCH   6   7
ENDBRANCH   4   6
ENDBRANCH   3   4
ENDBRANCH   2   3
TORSDOF 11
ENDMDL
MODEL      123
REMARK 921   NORMALIZED FREE ENERGY PREDICTED BY IDOCK:   -3.64 KCAL/MOL
REMARK 922        TOTAL FREE ENERGY PREDICTED BY IDOCK:   -6.68 KCAL/MOL
REMARK 923 INTER-LIGAND FREE ENERGY PREDICTED BY IDOCK:   -5.87 KCAL/MOL
REMARK 924 INTRA-LIGAND FREE ENERGY PREDICTED BY IDOCK:   -0.81 KCAL/MOL
REMARK 927      BINDING AFFINITY PREDICTED BY RF-SCORE:    0.00 PKD
ROOT
HETATM    1  C   UNL     1     -14.163   7.354  71.647  1.00  0.00    -0.583 C  
HETATM    2  C   UNL     1     -13.994   8.855  71.804  1.00  0.00    -0.393 C  
ENDROOT
BRANCH   2   3
HETATM    3  O   UNL     1     -12.694   9.087  72.359  1.00  0.00    -0.392 OA 
BRANCH   3   4
HETATM    4  C   UNL     1     -11.750   9.537  71.496  1.00  0.00    -0.402 C  
HETATM    5  O   UNL     1     -10.569   9.211  71.483  1.00  0.00    -0.314 OA 
BRANCH   4   6
HETATM    6  C   UNL     1     -12.399  10.353  70.416  1.00  0.00    -0.370 C  
BRANCH   6   7
HETATM    7  C   UNL     1     -11.373  11.193  69.668  1.00  0.00    -0.294 C  
BRANCH   7   8
HETATM    8  S   UNL     1     -11.337  10.855  67.857  1.00  0.00    -0.270 SA 
BRANCH   8   9
HETATM    9  P   UNL     1      -9.601   9.715  67.435  1.00  0.00    -0.160 P  
HETATM   10  S   UNL     1      -8.454  10.765  68.743  1.00  0.00    -0.146 S  
BRANCH   9  11
HETATM   11  O   UNL     1     -10.238   8.344  68.117  1.00  0.00    -0.194 OA 
HETATM   12  C   UNL     1     -10.288   7.100  67.433  1.00  0.00    -0.254 C  
ENDBRANCH   9  11
BRANCH   9  13
HETATM   13  O   UNL     1      -8.183   8.786  67.091  1.00  0.00    -0.103 OA 
HETATM   14  C   UNL     1      -7.270   9.386  66.193  1.00  0.00    -0.092 C  
ENDBRANCH   9  13
ENDBRANCH   8   9
ENDBRANCH   7   8
BRANCH   7  15
HETATM   15  C   UNL     1     -11.737  12.664  69.821  1.00  0.00    -0.284 C  
HETATM   16  O   UNL     1     -11.319  13.564  69.106  1.00  0.00    -0.260 OA 
BRANCH  15  17
HETATM   17  O   UNL     1     -12.510  12.840  70.931  1.00  0.00    -0.367 OA 
BRANCH  17  18
HETATM   18  C   UNL     1     -12.734  14.205  71.301  1.00  0.00    -0.361 C  
HETATM   19  C   UNL     1     -13.534  14.213  72.591  1.00  0.00    -0.634 C  
ENDBRANCH  17  18
ENDBRANCH  15  17
ENDBRANCH   7  15
ENDBRANCH   6   7
ENDBRANCH   4   6
ENDBRANCH   3   4
ENDBRANCH   2   3
TORSDOF 11
ENDMDL
MODEL      124
REMARK 921   NORMALIZED FREE ENERGY PREDICTED BY IDOCK:   -3.64 KCAL/MOL
REMARK 922        TOTAL FREE ENERGY PREDICTED BY IDOCK:   -6.67 KCAL/MOL
REMARK 923 INTER-LIGAND FREE ENERGY PREDICTED BY IDOCK:   -5.80 KCAL/MOL
REMARK 924 INTRA-LIGAND FREE ENERGY PREDICTED BY IDOCK:   -0.87 KCAL/MOL
REMARK 927      BINDING AFFINITY PREDICTED BY RF-SCORE:    0.00 PKD
ROOT
HETATM    1  C   UNL     1     -13.273  10.955  71.930  1.00  0.00    -0.508 C  
HETATM    2  C   UNL     1     -12.628  10.686  70.582  1.00  0.00    -0.365 C  
ENDROOT
BRANCH   2   3
HETATM    3  O   UNL     1     -11.641  11.702  70.365  1.00  0.00    -0.257 OA 
BRANCH   3   4
HETATM    4  C   UNL     1     -11.961  12.658  69.458  1.00  0.00    -0.270 C  
HETATM    5  O   UNL     1     -12.210  13.832  69.704  1.00  0.00    -0.332 OA 
BRANCH   4   6
HETATM    6  C   UNL     1     -11.773  12.121  68.069  1.00  0.00    -0.409 C  
BRANCH   6   7
HETATM    7  C   UNL     1     -10.878  13.033  67.242  1.00  0.00    -0.252 C  
BRANCH   7   8
HETATM    8  S   UNL     1      -9.316  12.222  66.696  1.00  0.00    -0.229 SA 
BRANCH   8   9
HETATM    9  P   UNL     1      -9.183  10.339  67.659  1.00  0.00    -0.145 P  
HETATM   10  S   UNL     1      -9.566   9.308  65.952  1.00  0.00    -0.268 S  
BRANCH   9  11
HETATM   11  O   UNL     1      -7.557  10.508  67.941  1.00  0.00    -0.090 OA 
HETATM   12  C   UNL     1      -7.033  11.448  68.870  1.00  0.00    -0.098 C  
ENDBRANCH   9  11
BRANCH   9  13
HETATM   13  O   UNL     1      -9.074   8.801  68.445  1.00  0.00    -0.140 OA 
HETATM   14  C   UNL     1     -10.258   8.028  68.427  1.00  0.00    -0.207 C  
ENDBRANCH   9  13
ENDBRANCH   8   9
ENDBRANCH   7   8
BRANCH   7  15
HETATM   15  C   UNL     1     -11.620  13.430  65.972  1.00  0.00    -0.344 C  
HETATM   16  O   UNL     1     -11.670  14.565  65.519  1.00  0.00    -0.347 OA 
BRANCH  15  17
HETATM   17  O   UNL     1     -12.302  12.358  65.477  1.00  0.00    -0.621 OA 
BRANCH  17  18
HETATM   18  C   UNL     1     -12.454  12.344  64.052  1.00  0.00    -0.459 C  
HETATM   19  C   UNL     1     -11.226  11.676  63.460  1.00  0.00    -0.462 C  
ENDBRANCH  17  18
ENDBRANCH  15  17
ENDBRANCH   7  15
ENDBRANCH   6   7
ENDBRANCH   4   6
ENDBRANCH   3   4
ENDBRANCH   2   3
TORSDOF 11
ENDMDL
MODEL      125
REMARK 921   NORMALIZED FREE ENERGY PREDICTED BY IDOCK:   -3.63 KCAL/MOL
REMARK 922        TOTAL FREE ENERGY PREDICTED BY IDOCK:   -6.66 KCAL/MOL
REMARK 923 INTER-LIGAND FREE ENERGY PREDICTED BY IDOCK:   -5.86 KCAL/MOL
REMARK 924 INTRA-LIGAND FREE ENERGY PREDICTED BY IDOCK:   -0.81 KCAL/MOL
REMARK 927      BINDING AFFINITY PREDICTED BY RF-SCORE:    0.00 PKD
ROOT
HETATM    1  C   UNL     1     -12.932  10.145  70.776  1.00  0.00    -0.380 C  
HETATM    2  C   UNL     1     -12.036  11.168  70.099  1.00  0.00    -0.362 C  
ENDROOT
BRANCH   2   3
HETATM    3  O   UNL     1     -12.309  11.117  68.694  1.00  0.00    -0.549 OA 
BRANCH   3   4
HETATM    4  C   UNL     1     -11.804  12.135  67.953  1.00  0.00    -0.269 C  
HETATM    5  O   UNL     1     -12.154  12.447  66.821  1.00  0.00    -0.578 OA 
BRANCH   4   6
HETATM    6  C   UNL     1     -10.880  12.965  68.796  1.00  0.00    -0.277 C  
BRANCH   6   7
HETATM    7  C   UNL     1      -9.997  13.855  67.932  1.00  0.00    -0.242 C  
BRANCH   7   8
HETATM    8  S   UNL     1      -9.739  15.535  68.643  1.00  0.00    -0.217 SA 
BRANCH   8   9
HETATM    9  P   UNL     1      -9.824  16.939  67.057  1.00  0.00    -0.291 P  
HETATM   10  S   UNL     1      -7.895  17.522  67.315  1.00  0.00    -0.209 S  
BRANCH   9  11
HETATM   11  O   UNL     1      -9.975  15.753  65.908  1.00  0.00    -0.301 OA 
HETATM   12  C   UNL     1     -10.971  15.788  64.895  1.00  0.00    -0.427 C  
ENDBRANCH   9  11
BRANCH   9  13
HETATM   13  O   UNL     1      -9.893  18.086  65.763  1.00  0.00    -0.539 OA 
HETATM   14  C   UNL     1     -10.422  19.352  66.105  1.00  0.00    -0.508 C  
ENDBRANCH   9  13
ENDBRANCH   8   9
ENDBRANCH   7   8
BRANCH   7  15
HETATM   15  C   UNL     1      -8.617  13.220  67.826  1.00  0.00    -0.184 C  
HETATM   16  O   UNL     1      -8.401  12.081  67.434  1.00  0.00    -0.154 OA 
BRANCH  15  17
HETATM   17  O   UNL     1      -7.673  14.068  68.326  1.00  0.00    -0.121 OA 
BRANCH  17  18
HETATM   18  C   UNL     1      -6.373  13.941  67.737  1.00  0.00    -0.158 C  
HETATM   19  C   UNL     1      -5.356  14.455  68.739  1.00  0.00    -0.088 C  
ENDBRANCH  17  18
ENDBRANCH  15  17
ENDBRANCH   7  15
ENDBRANCH   6   7
ENDBRANCH   4   6
ENDBRANCH   3   4
ENDBRANCH   2   3
TORSDOF 11
ENDMDL
MODEL      126
REMARK 921   NORMALIZED FREE ENERGY PREDICTED BY IDOCK:   -3.62 KCAL/MOL
REMARK 922        TOTAL FREE ENERGY PREDICTED BY IDOCK:   -6.65 KCAL/MOL
REMARK 923 INTER-LIGAND FREE ENERGY PREDICTED BY IDOCK:   -5.92 KCAL/MOL
REMARK 924 INTRA-LIGAND FREE ENERGY PREDICTED BY IDOCK:   -0.73 KCAL/MOL
REMARK 927      BINDING AFFINITY PREDICTED BY RF-SCORE:    0.00 PKD
ROOT
HETATM    1  C   UNL     1     -10.478  15.335  65.251  1.00  0.00    -0.436 C  
HETATM    2  C   UNL     1     -10.862  15.098  66.701  1.00  0.00    -0.318 C  
ENDROOT
BRANCH   2   3
HETATM    3  O   UNL     1     -12.111  14.396  66.708  1.00  0.00    -0.424 OA 
BRANCH   3   4
HETATM    4  C   UNL     1     -12.033  13.045  66.799  1.00  0.00    -0.369 C  
HETATM    5  O   UNL     1     -12.411  12.241  65.955  1.00  0.00    -0.609 OA 
BRANCH   4   6
HETATM    6  C   UNL     1     -11.228  12.665  68.008  1.00  0.00    -0.308 C  
BRANCH   6   7
HETATM    7  C   UNL     1     -11.684  11.327  68.575  1.00  0.00    -0.308 C  
BRANCH   7   8
HETATM    8  S   UNL     1     -10.314  10.109  68.759  1.00  0.00    -0.207 SA 
BRANCH   8   9
HETATM    9  P   UNL     1      -9.653   9.566  66.819  1.00  0.00    -0.205 P  
HETATM   10  S   UNL     1      -7.696   9.851  67.281  1.00  0.00    -0.095 S  
BRANCH   9  11
HETATM   11  O   UNL     1     -10.123   7.988  67.014  1.00  0.00    -0.222 OA 
HETATM   12  C   UNL     1      -9.290   6.891  66.663  1.00  0.00    -0.163 C  
ENDBRANCH   9  11
BRANCH   9  13
HETATM   13  O   UNL     1      -9.113   9.124  65.236  1.00  0.00    -0.209 OA 
HETATM   14  C   UNL     1      -9.522   9.989  64.195  1.00  0.00    -0.252 C  
ENDBRANCH   9  13
ENDBRANCH   8   9
ENDBRANCH   7   8
BRANCH   7  15
HETATM   15  C   UNL     1     -12.246  11.553  69.973  1.00  0.00    -0.278 C  
HETATM   16  O   UNL     1     -12.015  12.533  70.668  1.00  0.00    -0.305 OA 
BRANCH  15  17
HETATM   17  O   UNL     1     -12.955  10.458  70.372  1.00  0.00    -0.303 OA 
BRANCH  17  18
HETATM   18  C   UNL     1     -13.037  10.276  71.791  1.00  0.00    -0.465 C  
HETATM   19  C   UNL     1     -12.348   8.969  72.134  1.00  0.00    -0.442 C  
ENDBRANCH  17  18
ENDBRANCH  15  17
ENDBRANCH   7  15
ENDBRANCH   6   7
ENDBRANCH   4   6
ENDBRANCH   3   4
ENDBRANCH   2   3
TORSDOF 11
ENDMDL
MODEL      127
REMARK 921   NORMALIZED FREE ENERGY PREDICTED BY IDOCK:   -3.62 KCAL/MOL
REMARK 922        TOTAL FREE ENERGY PREDICTED BY IDOCK:   -6.65 KCAL/MOL
REMARK 923 INTER-LIGAND FREE ENERGY PREDICTED BY IDOCK:   -6.50 KCAL/MOL
REMARK 924 INTRA-LIGAND FREE ENERGY PREDICTED BY IDOCK:   -0.15 KCAL/MOL
REMARK 927      BINDING AFFINITY PREDICTED BY RF-SCORE:    0.00 PKD
ROOT
HETATM    1  C   UNL     1     -10.574  19.302  66.222  1.00  0.00    -0.545 C  
HETATM    2  C   UNL     1     -10.477  17.797  66.041  1.00  0.00    -0.286 C  
ENDROOT
BRANCH   2   3
HETATM    3  O   UNL     1     -11.038  17.480  64.762  1.00  0.00    -0.959 OA 
BRANCH   3   4
HETATM    4  C   UNL     1     -11.641  16.269  64.660  1.00  0.00    -0.067 C  
HETATM    5  O   UNL     1     -12.295  15.866  63.706  1.00  0.00    -0.791 OA 
BRANCH   4   6
HETATM    6  C   UNL     1     -11.227  15.400  65.812  1.00  0.00    -0.196 C  
BRANCH   6   7
HETATM    7  C   UNL     1     -10.224  14.343  65.373  1.00  0.00    -0.382 C  
BRANCH   7   8
HETATM    8  S   UNL     1      -9.217  13.673  66.762  1.00  0.00    -0.212 SA 
BRANCH   8   9
HETATM    9  P   UNL     1      -9.888  11.703  67.169  1.00  0.00    -0.191 P  
HETATM   10  S   UNL     1      -8.001  10.960  67.282  1.00  0.00    -0.127 S  
BRANCH   9  11
HETATM   11  O   UNL     1     -10.487  12.129  68.656  1.00  0.00    -0.228 OA 
HETATM   12  C   UNL     1     -11.879  12.220  68.924  1.00  0.00    -0.303 C  
ENDBRANCH   9  11
BRANCH   9  13
HETATM   13  O   UNL     1     -10.435  10.096  67.500  1.00  0.00    -0.217 OA 
HETATM   14  C   UNL     1      -9.425   9.178  67.870  1.00  0.00    -0.141 C  
ENDBRANCH   9  13
ENDBRANCH   8   9
ENDBRANCH   7   8
BRANCH   7  15
HETATM   15  C   UNL     1     -10.982  13.160  64.785  1.00  0.00    -0.336 C  
HETATM   16  O   UNL     1     -12.075  12.771  65.171  1.00  0.00    -0.396 OA 
BRANCH  15  17
HETATM   17  O   UNL     1     -10.219  12.541  63.839  1.00  0.00    -0.408 OA 
BRANCH  17  18
HETATM   18  C   UNL     1     -10.652  11.223  63.481  1.00  0.00    -0.369 C  
HETATM   19  C   UNL     1      -9.480  10.279  63.675  1.00  0.00    -0.348 C  
ENDBRANCH  17  18
ENDBRANCH  15  17
ENDBRANCH   7  15
ENDBRANCH   6   7
ENDBRANCH   4   6
ENDBRANCH   3   4
ENDBRANCH   2   3
TORSDOF 11
ENDMDL
MODEL      128
REMARK 921   NORMALIZED FREE ENERGY PREDICTED BY IDOCK:   -3.62 KCAL/MOL
REMARK 922        TOTAL FREE ENERGY PREDICTED BY IDOCK:   -6.64 KCAL/MOL
REMARK 923 INTER-LIGAND FREE ENERGY PREDICTED BY IDOCK:   -5.65 KCAL/MOL
REMARK 924 INTRA-LIGAND FREE ENERGY PREDICTED BY IDOCK:   -0.99 KCAL/MOL
REMARK 927      BINDING AFFINITY PREDICTED BY RF-SCORE:    0.00 PKD
ROOT
HETATM    1  C   UNL     1     -10.684  15.152  65.107  1.00  0.00    -0.442 C  
HETATM    2  C   UNL     1     -11.082  15.174  66.572  1.00  0.00    -0.305 C  
ENDROOT
BRANCH   2   3
HETATM    3  O   UNL     1     -12.284  14.406  66.704  1.00  0.00    -0.424 OA 
BRANCH   3   4
HETATM    4  C   UNL     1     -12.122  13.098  67.026  1.00  0.00    -0.307 C  
HETATM    5  O   UNL     1     -12.216  12.148  66.259  1.00  0.00    -0.604 OA 
BRANCH   4   6
HETATM    6  C   UNL     1     -11.611  12.983  68.433  1.00  0.00    -0.370 C  
BRANCH   6   7
HETATM    7  C   UNL     1     -11.421  11.527  68.833  1.00  0.00    -0.289 C  
BRANCH   7   8
HETATM    8  S   UNL     1      -9.660  11.076  69.129  1.00  0.00     0.019 SA 
BRANCH   8   9
HETATM    9  P   UNL     1      -8.875  10.277  67.329  1.00  0.00    -0.130 P  
HETATM   10  S   UNL     1     -10.526   9.148  66.975  1.00  0.00    -0.205 S  
BRANCH   9  11
HETATM   11  O   UNL     1      -8.938  11.743  66.557  1.00  0.00    -0.191 OA 
HETATM   12  C   UNL     1      -8.198  12.874  66.997  1.00  0.00    -0.080 C  
ENDBRANCH   9  11
BRANCH   9  13
HETATM   13  O   UNL     1      -8.235   9.623  65.861  1.00  0.00    -0.116 OA 
HETATM   14  C   UNL     1      -8.517   8.256  65.635  1.00  0.00    -0.158 C  
ENDBRANCH   9  13
ENDBRANCH   8   9
ENDBRANCH   7   8
BRANCH   7  15
HETATM   15  C   UNL     1     -12.152  11.280  70.147  1.00  0.00    -0.366 C  
HETATM   16  O   UNL     1     -12.618  10.203  70.494  1.00  0.00    -0.281 OA 
BRANCH  15  17
HETATM   17  O   UNL     1     -12.299  12.453  70.826  1.00  0.00    -0.377 OA 
BRANCH  17  18
HETATM   18  C   UNL     1     -13.259  12.419  71.889  1.00  0.00    -0.382 C  
HETATM   19  C   UNL     1     -13.629  13.852  72.227  1.00  0.00    -0.642 C  
ENDBRANCH  17  18
ENDBRANCH  15  17
ENDBRANCH   7  15
ENDBRANCH   6   7
ENDBRANCH   4   6
ENDBRANCH   3   4
ENDBRANCH   2   3
TORSDOF 11
ENDMDL
MODEL      129
REMARK 921   NORMALIZED FREE ENERGY PREDICTED BY IDOCK:   -3.61 KCAL/MOL
REMARK 922        TOTAL FREE ENERGY PREDICTED BY IDOCK:   -6.62 KCAL/MOL
REMARK 923 INTER-LIGAND FREE ENERGY PREDICTED BY IDOCK:   -5.92 KCAL/MOL
REMARK 924 INTRA-LIGAND FREE ENERGY PREDICTED BY IDOCK:   -0.70 KCAL/MOL
REMARK 927      BINDING AFFINITY PREDICTED BY RF-SCORE:    0.00 PKD
ROOT
HETATM    1  C   UNL     1     -10.518   7.264  68.195  1.00  0.00    -0.244 C  
HETATM    2  C   UNL     1     -10.639   8.427  69.164  1.00  0.00    -0.163 C  
ENDROOT
BRANCH   2   3
HETATM    3  O   UNL     1      -9.865   9.510  68.636  1.00  0.00    -0.155 OA 
BRANCH   3   4
HETATM    4  C   UNL     1     -10.399  10.160  67.573  1.00  0.00    -0.230 C  
HETATM    5  O   UNL     1     -10.064  10.027  66.402  1.00  0.00    -0.227 OA 
BRANCH   4   6
HETATM    6  C   UNL     1     -11.610  10.934  68.008  1.00  0.00    -0.295 C  
BRANCH   6   7
HETATM    7  C   UNL     1     -11.217  12.178  68.791  1.00  0.00    -0.264 C  
BRANCH   7   8
HETATM    8  S   UNL     1     -11.601  13.748  67.907  1.00  0.00    -0.361 SA 
BRANCH   8   9
HETATM    9  P   UNL     1     -10.900  13.567  65.914  1.00  0.00    -0.281 P  
HETATM   10  S   UNL     1     -12.776  13.470  65.141  1.00  0.00    -0.327 S  
BRANCH   9  11
HETATM   11  O   UNL     1     -10.294  15.111  65.903  1.00  0.00    -0.288 OA 
HETATM   12  C   UNL     1      -9.346  15.570  66.856  1.00  0.00    -0.233 C  
ENDBRANCH   9  11
BRANCH   9  13
HETATM   13  O   UNL     1     -10.329  13.419  64.288  1.00  0.00    -0.420 OA 
HETATM   14  C   UNL     1     -10.506  12.146  63.698  1.00  0.00    -0.460 C  
ENDBRANCH   9  13
ENDBRANCH   8   9
ENDBRANCH   7   8
BRANCH   7  15
HETATM   15  C   UNL     1     -12.013  12.213  70.089  1.00  0.00    -0.314 C  
HETATM   16  O   UNL     1     -12.205  13.216  70.763  1.00  0.00    -0.361 OA 
BRANCH  15  17
HETATM   17  O   UNL     1     -12.390  10.950  70.439  1.00  0.00    -0.307 OA 
BRANCH  17  18
HETATM   18  C   UNL     1     -12.912  10.821  71.767  1.00  0.00    -0.463 C  
HETATM   19  C   UNL     1     -13.173   9.348  72.024  1.00  0.00    -0.529 C  
ENDBRANCH  17  18
ENDBRANCH  15  17
ENDBRANCH   7  15
ENDBRANCH   6   7
ENDBRANCH   4   6
ENDBRANCH   3   4
ENDBRANCH   2   3
TORSDOF 11
ENDMDL
MODEL      130
REMARK 921   NORMALIZED FREE ENERGY PREDICTED BY IDOCK:   -3.60 KCAL/MOL
REMARK 922        TOTAL FREE ENERGY PREDICTED BY IDOCK:   -6.61 KCAL/MOL
REMARK 923 INTER-LIGAND FREE ENERGY PREDICTED BY IDOCK:   -5.86 KCAL/MOL
REMARK 924 INTRA-LIGAND FREE ENERGY PREDICTED BY IDOCK:   -0.75 KCAL/MOL
REMARK 927      BINDING AFFINITY PREDICTED BY RF-SCORE:    0.00 PKD
ROOT
HETATM    1  C   UNL     1     -10.538   5.582  66.711  1.00  0.00    -0.360 C  
HETATM    2  C   UNL     1      -9.796   6.837  67.135  1.00  0.00    -0.161 C  
ENDROOT
BRANCH   2   3
HETATM    3  O   UNL     1     -10.750   7.905  67.187  1.00  0.00    -0.326 OA 
BRANCH   3   4
HETATM    4  C   UNL     1     -10.291   9.131  66.833  1.00  0.00    -0.251 C  
HETATM    5  O   UNL     1     -10.275   9.596  65.700  1.00  0.00    -0.253 OA 
BRANCH   4   6
HETATM    6  C   UNL     1      -9.980   9.930  68.065  1.00  0.00    -0.179 C  
BRANCH   6   7
HETATM    7  C   UNL     1     -11.119   9.855  69.072  1.00  0.00    -0.146 C  
BRANCH   7   8
HETATM    8  S   UNL     1     -10.551   9.513  70.791  1.00  0.00    -0.327 SA 
BRANCH   8   9
HETATM    9  P   UNL     1     -11.589   7.806  71.499  1.00  0.00    -0.293 P  
HETATM   10  S   UNL     1     -10.225   7.437  72.957  1.00  0.00    -0.320 S  
BRANCH   9  11
HETATM   11  O   UNL     1     -12.867   8.711  72.047  1.00  0.00    -0.336 OA 
HETATM   12  C   UNL     1     -14.218   8.395  71.740  1.00  0.00    -0.458 C  
ENDBRANCH   9  11
BRANCH   9  13
HETATM   13  O   UNL     1     -12.436   6.412  72.077  1.00  0.00    -0.333 OA 
HETATM   14  C   UNL     1     -11.643   5.466  72.766  1.00  0.00    -0.226 C  
ENDBRANCH   9  13
ENDBRANCH   8   9
ENDBRANCH   7   8
BRANCH   7  15
HETATM   15  C   UNL     1     -11.825  11.204  69.116  1.00  0.00    -0.350 C  
HETATM   16  O   UNL     1     -12.146  11.791  70.141  1.00  0.00    -0.320 OA 
BRANCH  15  17
HETATM   17  O   UNL     1     -12.137  11.609  67.852  1.00  0.00    -0.613 OA 
BRANCH  17  18
HETATM   18  C   UNL     1     -11.973  13.011  67.608  1.00  0.00    -0.301 C  
HETATM   19  C   UNL     1     -11.158  13.171  66.338  1.00  0.00    -0.311 C  
ENDBRANCH  17  18
ENDBRANCH  15  17
ENDBRANCH   7  15
ENDBRANCH   6   7
ENDBRANCH   4   6
ENDBRANCH   3   4
ENDBRANCH   2   3
TORSDOF 11
ENDMDL
MODEL      131
REMARK 921   NORMALIZED FREE ENERGY PREDICTED BY IDOCK:   -3.60 KCAL/MOL
REMARK 922        TOTAL FREE ENERGY PREDICTED BY IDOCK:   -6.61 KCAL/MOL
REMARK 923 INTER-LIGAND FREE ENERGY PREDICTED BY IDOCK:   -5.77 KCAL/MOL
REMARK 924 INTRA-LIGAND FREE ENERGY PREDICTED BY IDOCK:   -0.84 KCAL/MOL
REMARK 927      BINDING AFFINITY PREDICTED BY RF-SCORE:    0.00 PKD
ROOT
HETATM    1  C   UNL     1      -9.150   7.460  66.649  1.00  0.00    -0.184 C  
HETATM    2  C   UNL     1     -10.404   8.238  67.006  1.00  0.00    -0.323 C  
ENDROOT
BRANCH   2   3
HETATM    3  O   UNL     1     -10.090   9.069  68.130  1.00  0.00    -0.175 OA 
BRANCH   3   4
HETATM    4  C   UNL     1     -10.894  10.145  68.317  1.00  0.00    -0.252 C  
HETATM    5  O   UNL     1     -11.679  10.611  67.500  1.00  0.00    -0.445 OA 
BRANCH   4   6
HETATM    6  C   UNL     1     -10.834  10.578  69.753  1.00  0.00    -0.335 C  
BRANCH   6   7
HETATM    7  C   UNL     1     -11.501   9.557  70.664  1.00  0.00    -0.297 C  
BRANCH   7   8
HETATM    8  S   UNL     1     -10.366   8.868  71.941  1.00  0.00    -0.282 SA 
BRANCH   8   9
HETATM    9  P   UNL     1     -10.796   6.803  72.157  1.00  0.00    -0.246 P  
HETATM   10  S   UNL     1     -11.604   6.659  70.299  1.00  0.00    -0.361 S  
BRANCH   9  11
HETATM   11  O   UNL     1      -9.190   6.389  72.179  1.00  0.00    -0.142 OA 
HETATM   12  C   UNL     1      -8.220   7.039  71.369  1.00  0.00    -0.109 C  
ENDBRANCH   9  11
BRANCH   9  13
HETATM   13  O   UNL     1     -11.148   5.118  72.332  1.00  0.00    -0.216 OA 
HETATM   14  C   UNL     1     -10.957   4.593  73.631  1.00  0.00    -0.316 C  
ENDBRANCH   9  13
ENDBRANCH   8   9
ENDBRANCH   7   8
BRANCH   7  15
HETATM   15  C   UNL     1     -12.632  10.241  71.422  1.00  0.00    -0.434 C  
HETATM   16  O   UNL     1     -13.375   9.684  72.219  1.00  0.00    -0.438 OA 
BRANCH  15  17
HETATM   17  O   UNL     1     -12.759  11.533  71.005  1.00  0.00    -0.371 OA 
BRANCH  17  18
HETATM   18  C   UNL     1     -13.273  12.438  71.989  1.00  0.00    -0.409 C  
HETATM   19  C   UNL     1     -12.829  13.839  71.610  1.00  0.00    -0.438 C  
ENDBRANCH  17  18
ENDBRANCH  15  17
ENDBRANCH   7  15
ENDBRANCH   6   7
ENDBRANCH   4   6
ENDBRANCH   3   4
ENDBRANCH   2   3
TORSDOF 11
ENDMDL
MODEL      132
REMARK 921   NORMALIZED FREE ENERGY PREDICTED BY IDOCK:   -3.60 KCAL/MOL
REMARK 922        TOTAL FREE ENERGY PREDICTED BY IDOCK:   -6.61 KCAL/MOL
REMARK 923 INTER-LIGAND FREE ENERGY PREDICTED BY IDOCK:   -5.71 KCAL/MOL
REMARK 924 INTRA-LIGAND FREE ENERGY PREDICTED BY IDOCK:   -0.90 KCAL/MOL
REMARK 927      BINDING AFFINITY PREDICTED BY RF-SCORE:    0.00 PKD
ROOT
HETATM    1  C   UNL     1     -12.242   8.109  71.502  1.00  0.00    -0.332 C  
HETATM    2  C   UNL     1     -11.353   9.339  71.530  1.00  0.00    -0.385 C  
ENDROOT
BRANCH   2   3
HETATM    3  O   UNL     1     -11.318   9.876  70.202  1.00  0.00    -0.253 OA 
BRANCH   3   4
HETATM    4  C   UNL     1     -11.862  11.108  70.044  1.00  0.00    -0.361 C  
HETATM    5  O   UNL     1     -12.283  11.832  70.938  1.00  0.00    -0.362 OA 
BRANCH   4   6
HETATM    6  C   UNL     1     -11.696  11.555  68.620  1.00  0.00    -0.389 C  
BRANCH   6   7
HETATM    7  C   UNL     1     -10.929  12.867  68.540  1.00  0.00    -0.259 C  
BRANCH   7   8
HETATM    8  S   UNL     1      -9.590  12.853  67.275  1.00  0.00    -0.227 SA 
BRANCH   8   9
HETATM    9  P   UNL     1      -9.737  11.042  66.184  1.00  0.00    -0.240 P  
HETATM   10  S   UNL     1     -10.501  11.959  64.540  1.00  0.00    -0.318 S  
BRANCH   9  11
HETATM   11  O   UNL     1      -8.090  10.866  66.098  1.00  0.00    -0.161 OA 
HETATM   12  C   UNL     1      -7.197  11.588  66.936  1.00  0.00    -0.137 C  
ENDBRANCH   9  11
BRANCH   9  13
HETATM   13  O   UNL     1      -9.857   9.564  65.293  1.00  0.00    -0.282 OA 
HETATM   14  C   UNL     1      -8.988   8.531  65.715  1.00  0.00    -0.182 C  
ENDBRANCH   9  13
ENDBRANCH   8   9
ENDBRANCH   7   8
BRANCH   7  15
HETATM   15  C   UNL     1     -11.892  13.974  68.131  1.00  0.00    -0.367 C  
HETATM   16  O   UNL     1     -12.220  14.223  66.979  1.00  0.00    -0.424 OA 
BRANCH  15  17
HETATM   17  O   UNL     1     -12.249  14.709  69.223  1.00  0.00    -0.288 OA 
BRANCH  17  18
HETATM   18  C   UNL     1     -11.155  15.270  69.959  1.00  0.00    -0.287 C  
HETATM   19  C   UNL     1     -11.597  15.425  71.403  1.00  0.00    -0.461 C  
ENDBRANCH  17  18
ENDBRANCH  15  17
ENDBRANCH   7  15
ENDBRANCH   6   7
ENDBRANCH   4   6
ENDBRANCH   3   4
ENDBRANCH   2   3
TORSDOF 11
ENDMDL
MODEL      133
REMARK 921   NORMALIZED FREE ENERGY PREDICTED BY IDOCK:   -3.59 KCAL/MOL
REMARK 922        TOTAL FREE ENERGY PREDICTED BY IDOCK:   -6.60 KCAL/MOL
REMARK 923 INTER-LIGAND FREE ENERGY PREDICTED BY IDOCK:   -5.88 KCAL/MOL
REMARK 924 INTRA-LIGAND FREE ENERGY PREDICTED BY IDOCK:   -0.72 KCAL/MOL
REMARK 927      BINDING AFFINITY PREDICTED BY RF-SCORE:    0.00 PKD
ROOT
HETATM    1  C   UNL     1     -10.656   7.588  67.151  1.00  0.00    -0.415 C  
HETATM    2  C   UNL     1     -10.475   9.025  67.608  1.00  0.00    -0.260 C  
ENDROOT
BRANCH   2   3
HETATM    3  O   UNL     1     -10.169   9.810  66.451  1.00  0.00    -0.242 OA 
BRANCH   3   4
HETATM    4  C   UNL     1     -10.164  11.155  66.628  1.00  0.00    -0.232 C  
HETATM    5  O   UNL     1      -9.369  11.946  66.135  1.00  0.00    -0.224 OA 
BRANCH   4   6
HETATM    6  C   UNL     1     -11.404  11.573  67.364  1.00  0.00    -0.367 C  
BRANCH   6   7
HETATM    7  C   UNL     1     -11.198  12.899  68.082  1.00  0.00    -0.270 C  
BRANCH   7   8
HETATM    8  S   UNL     1     -11.889  14.339  67.164  1.00  0.00    -0.421 SA 
BRANCH   8   9
HETATM    9  P   UNL     1     -10.582  15.985  67.444  1.00  0.00    -0.279 P  
HETATM   10  S   UNL     1      -9.025  14.803  67.996  1.00  0.00    -0.180 S  
BRANCH   9  11
HETATM   11  O   UNL     1     -10.557  16.343  65.825  1.00  0.00    -0.350 OA 
HETATM   12  C   UNL     1     -11.052  15.452  64.835  1.00  0.00    -0.423 C  
ENDBRANCH   9  11
BRANCH   9  13
HETATM   13  O   UNL     1      -9.515  17.327  67.673  1.00  0.00    -0.241 OA 
HETATM   14  C   UNL     1      -8.312  17.033  68.355  1.00  0.00    -0.241 C  
ENDBRANCH   9  13
ENDBRANCH   8   9
ENDBRANCH   7   8
BRANCH   7  15
HETATM   15  C   UNL     1     -11.929  12.853  69.418  1.00  0.00    -0.269 C  
HETATM   16  O   UNL     1     -12.468  13.813  69.952  1.00  0.00    -0.299 OA 
BRANCH  15  17
HETATM   17  O   UNL     1     -11.805  11.614  69.974  1.00  0.00    -0.320 OA 
BRANCH  17  18
HETATM   18  C   UNL     1     -12.724  11.335  71.038  1.00  0.00    -0.359 C  
HETATM   19  C   UNL     1     -12.372   9.974  71.611  1.00  0.00    -0.486 C  
ENDBRANCH  17  18
ENDBRANCH  15  17
ENDBRANCH   7  15
ENDBRANCH   6   7
ENDBRANCH   4   6
ENDBRANCH   3   4
ENDBRANCH   2   3
TORSDOF 11
ENDMDL
MODEL      134
REMARK 921   NORMALIZED FREE ENERGY PREDICTED BY IDOCK:   -3.59 KCAL/MOL
REMARK 922        TOTAL FREE ENERGY PREDICTED BY IDOCK:   -6.60 KCAL/MOL
REMARK 923 INTER-LIGAND FREE ENERGY PREDICTED BY IDOCK:   -5.93 KCAL/MOL
REMARK 924 INTRA-LIGAND FREE ENERGY PREDICTED BY IDOCK:   -0.67 KCAL/MOL
REMARK 927      BINDING AFFINITY PREDICTED BY RF-SCORE:    0.00 PKD
ROOT
HETATM    1  C   UNL     1     -10.580  19.413  66.487  1.00  0.00    -0.554 C  
HETATM    2  C   UNL     1      -9.982  18.027  66.653  1.00  0.00    -0.362 C  
ENDROOT
BRANCH   2   3
HETATM    3  O   UNL     1     -10.440  17.226  65.557  1.00  0.00    -0.609 OA 
BRANCH   3   4
HETATM    4  C   UNL     1     -10.900  15.990  65.874  1.00  0.00    -0.207 C  
HETATM    5  O   UNL     1     -11.217  15.112  65.082  1.00  0.00    -0.366 OA 
BRANCH   4   6
HETATM    6  C   UNL     1     -10.779  15.771  67.355  1.00  0.00    -0.317 C  
BRANCH   6   7
HETATM    7  C   UNL     1     -11.144  14.342  67.731  1.00  0.00    -0.280 C  
BRANCH   7   8
HETATM    8  S   UNL     1      -9.683  13.228  67.867  1.00  0.00    -0.230 SA 
BRANCH   8   9
HETATM    9  P   UNL     1     -10.347  11.235  67.576  1.00  0.00    -0.213 P  
HETATM   10  S   UNL     1      -9.562  11.124  65.706  1.00  0.00    -0.231 S  
BRANCH   9  11
HETATM   11  O   UNL     1      -9.315  10.639  68.729  1.00  0.00    -0.165 OA 
HETATM   12  C   UNL     1      -7.953  11.035  68.819  1.00  0.00    -0.144 C  
ENDBRANCH   9  11
BRANCH   9  13
HETATM   13  O   UNL     1     -10.889   9.610  67.338  1.00  0.00    -0.274 OA 
HETATM   14  C   UNL     1     -10.084   8.823  66.482  1.00  0.00    -0.279 C  
ENDBRANCH   9  13
ENDBRANCH   8   9
ENDBRANCH   7   8
BRANCH   7  15
HETATM   15  C   UNL     1     -11.805  14.349  69.104  1.00  0.00    -0.323 C  
HETATM   16  O   UNL     1     -12.523  13.459  69.537  1.00  0.00    -0.175 OA 
BRANCH  15  17
HETATM   17  O   UNL     1     -11.561  15.535  69.731  1.00  0.00    -0.285 OA 
BRANCH  17  18
HETATM   18  C   UNL     1     -11.171  15.423  71.105  1.00  0.00    -0.361 C  
HETATM   19  C   UNL     1     -12.286  16.005  71.955  1.00  0.00    -0.560 C  
ENDBRANCH  17  18
ENDBRANCH  15  17
ENDBRANCH   7  15
ENDBRANCH   6   7
ENDBRANCH   4   6
ENDBRANCH   3   4
ENDBRANCH   2   3
TORSDOF 11
ENDMDL
MODEL      135
REMARK 921   NORMALIZED FREE ENERGY PREDICTED BY IDOCK:   -3.59 KCAL/MOL
REMARK 922        TOTAL FREE ENERGY PREDICTED BY IDOCK:   -6.60 KCAL/MOL
REMARK 923 INTER-LIGAND FREE ENERGY PREDICTED BY IDOCK:   -5.89 KCAL/MOL
REMARK 924 INTRA-LIGAND FREE ENERGY PREDICTED BY IDOCK:   -0.71 KCAL/MOL
REMARK 927      BINDING AFFINITY PREDICTED BY RF-SCORE:    0.00 PKD
ROOT
HETATM    1  C   UNL     1     -10.028  18.880  68.679  1.00  0.00    -0.470 C  
HETATM    2  C   UNL     1     -10.520  17.779  67.757  1.00  0.00    -0.397 C  
ENDROOT
BRANCH   2   3
HETATM    3  O   UNL     1      -9.648  16.654  67.923  1.00  0.00    -0.229 OA 
BRANCH   3   4
HETATM    4  C   UNL     1     -10.095  15.670  68.742  1.00  0.00    -0.211 C  
HETATM    5  O   UNL     1      -9.781  15.508  69.915  1.00  0.00    -0.290 OA 
BRANCH   4   6
HETATM    6  C   UNL     1     -11.197  14.909  68.064  1.00  0.00    -0.318 C  
BRANCH   6   7
HETATM    7  C   UNL     1     -10.717  13.541  67.598  1.00  0.00    -0.248 C  
BRANCH   7   8
HETATM    8  S   UNL     1     -11.760  12.154  68.215  1.00  0.00    -0.317 SA 
BRANCH   8   9
HETATM    9  P   UNL     1     -10.473  10.570  68.790  1.00  0.00    -0.227 P  
HETATM   10  S   UNL     1      -8.792  11.639  68.398  1.00  0.00    -0.138 S  
BRANCH   9  11
HETATM   11  O   UNL     1     -10.928  10.672  70.381  1.00  0.00    -0.256 OA 
HETATM   12  C   UNL     1     -12.288  10.738  70.788  1.00  0.00    -0.383 C  
ENDBRANCH   9  11
BRANCH   9  13
HETATM   13  O   UNL     1      -9.423   9.277  69.258  1.00  0.00    -0.153 OA 
HETATM   14  C   UNL     1      -9.962   7.978  69.113  1.00  0.00    -0.188 C  
ENDBRANCH   9  13
ENDBRANCH   8   9
ENDBRANCH   7   8
BRANCH   7  15
HETATM   15  C   UNL     1     -10.789  13.487  66.078  1.00  0.00    -0.278 C  
HETATM   16  O   UNL     1     -10.204  14.253  65.324  1.00  0.00    -0.353 OA 
BRANCH  15  17
HETATM   17  O   UNL     1     -11.679  12.530  65.687  1.00  0.00    -0.381 OA 
BRANCH  17  18
HETATM   18  C   UNL     1     -12.560  12.921  64.628  1.00  0.00    -0.391 C  
HETATM   19  C   UNL     1     -12.325  11.984  63.457  1.00  0.00    -0.661 C  
ENDBRANCH  17  18
ENDBRANCH  15  17
ENDBRANCH   7  15
ENDBRANCH   6   7
ENDBRANCH   4   6
ENDBRANCH   3   4
ENDBRANCH   2   3
TORSDOF 11
ENDMDL
MODEL      136
REMARK 921   NORMALIZED FREE ENERGY PREDICTED BY IDOCK:   -3.59 KCAL/MOL
REMARK 922        TOTAL FREE ENERGY PREDICTED BY IDOCK:   -6.60 KCAL/MOL
REMARK 923 INTER-LIGAND FREE ENERGY PREDICTED BY IDOCK:   -5.74 KCAL/MOL
REMARK 924 INTRA-LIGAND FREE ENERGY PREDICTED BY IDOCK:   -0.86 KCAL/MOL
REMARK 927      BINDING AFFINITY PREDICTED BY RF-SCORE:    0.00 PKD
ROOT
HETATM    1  C   UNL     1     -12.866  10.238  71.341  1.00  0.00    -0.544 C  
HETATM    2  C   UNL     1     -11.754  10.717  70.425  1.00  0.00    -0.351 C  
ENDROOT
BRANCH   2   3
HETATM    3  O   UNL     1     -12.347  11.050  69.165  1.00  0.00    -0.451 OA 
BRANCH   3   4
HETATM    4  C   UNL     1     -11.571  11.764  68.312  1.00  0.00    -0.308 C  
HETATM    5  O   UNL     1     -11.096  12.873  68.524  1.00  0.00    -0.240 OA 
BRANCH   4   6
HETATM    6  C   UNL     1     -11.203  10.914  67.130  1.00  0.00    -0.258 C  
BRANCH   6   7
HETATM    7  C   UNL     1      -9.726  11.052  66.790  1.00  0.00    -0.193 C  
BRANCH   7   8
HETATM    8  S   UNL     1      -8.739   9.553  67.205  1.00  0.00    -0.128 SA 
BRANCH   8   9
HETATM    9  P   UNL     1     -10.046   7.884  67.199  1.00  0.00    -0.311 P  
HETATM   10  S   UNL     1      -8.582   6.593  66.638  1.00  0.00    -0.127 S  
BRANCH   9  11
HETATM   11  O   UNL     1     -10.246   7.932  68.844  1.00  0.00    -0.197 OA 
HETATM   12  C   UNL     1      -9.166   8.146  69.742  1.00  0.00    -0.151 C  
ENDBRANCH   9  11
BRANCH   9  13
HETATM   13  O   UNL     1     -11.112   6.521  67.192  1.00  0.00    -0.390 OA 
HETATM   14  C   UNL     1     -10.632   5.381  66.508  1.00  0.00    -0.289 C  
ENDBRANCH   9  13
ENDBRANCH   8   9
ENDBRANCH   7   8
BRANCH   7  15
HETATM   15  C   UNL     1      -9.585  11.253  65.287  1.00  0.00    -0.232 C  
HETATM   16  O   UNL     1      -8.839  10.608  64.563  1.00  0.00    -0.190 OA 
BRANCH  15  17
HETATM   17  O   UNL     1     -10.333  12.321  64.887  1.00  0.00    -0.276 OA 
BRANCH  17  18
HETATM   18  C   UNL     1     -10.774  12.275  63.525  1.00  0.00    -0.451 C  
HETATM   19  C   UNL     1     -12.277  12.487  63.516  1.00  0.00    -0.652 C  
ENDBRANCH  17  18
ENDBRANCH  15  17
ENDBRANCH   7  15
ENDBRANCH   6   7
ENDBRANCH   4   6
ENDBRANCH   3   4
ENDBRANCH   2   3
TORSDOF 11
ENDMDL
MODEL      137
REMARK 921   NORMALIZED FREE ENERGY PREDICTED BY IDOCK:   -3.59 KCAL/MOL
REMARK 922        TOTAL FREE ENERGY PREDICTED BY IDOCK:   -6.59 KCAL/MOL
REMARK 923 INTER-LIGAND FREE ENERGY PREDICTED BY IDOCK:   -5.86 KCAL/MOL
REMARK 924 INTRA-LIGAND FREE ENERGY PREDICTED BY IDOCK:   -0.73 KCAL/MOL
REMARK 927      BINDING AFFINITY PREDICTED BY RF-SCORE:    0.00 PKD
ROOT
HETATM    1  C   UNL     1     -14.003   7.545  71.343  1.00  0.00    -0.468 C  
HETATM    2  C   UNL     1     -13.535   8.812  72.038  1.00  0.00    -0.418 C  
ENDROOT
BRANCH   2   3
HETATM    3  O   UNL     1     -12.291   9.196  71.441  1.00  0.00    -0.308 OA 
BRANCH   3   4
HETATM    4  C   UNL     1     -11.170   8.759  72.067  1.00  0.00    -0.373 C  
HETATM    5  O   UNL     1     -11.130   8.062  73.074  1.00  0.00    -0.382 OA 
BRANCH   4   6
HETATM    6  C   UNL     1      -9.965   9.086  71.234  1.00  0.00    -0.381 C  
BRANCH   6   7
HETATM    7  C   UNL     1     -10.338   9.252  69.767  1.00  0.00    -0.218 C  
BRANCH   7   8
HETATM    8  S   UNL     1      -9.702  10.815  69.027  1.00  0.00    -0.154 SA 
BRANCH   8   9
HETATM    9  P   UNL     1     -11.091  11.459  67.560  1.00  0.00    -0.295 P  
HETATM   10  S   UNL     1     -11.620  13.109  68.620  1.00  0.00    -0.343 S  
BRANCH   9  11
HETATM   11  O   UNL     1      -9.898  11.778  66.454  1.00  0.00    -0.204 OA 
HETATM   12  C   UNL     1      -9.068  10.762  65.907  1.00  0.00    -0.188 C  
ENDBRANCH   9  11
BRANCH   9  13
HETATM   13  O   UNL     1     -12.225  11.985  66.365  1.00  0.00    -0.551 OA 
HETATM   14  C   UNL     1     -12.178  13.363  66.051  1.00  0.00    -0.437 C  
ENDBRANCH   9  13
ENDBRANCH   8   9
ENDBRANCH   7   8
BRANCH   7  15
HETATM   15  C   UNL     1      -9.711   8.116  68.969  1.00  0.00    -0.163 C  
HETATM   16  O   UNL     1      -8.513   7.990  68.757  1.00  0.00    -0.126 OA 
BRANCH  15  17
HETATM   17  O   UNL     1     -10.687   7.322  68.443  1.00  0.00    -0.189 OA 
BRANCH  17  18
HETATM   18  C   UNL     1     -11.254   6.375  69.357  1.00  0.00    -0.394 C  
HETATM   19  C   UNL     1     -10.319   5.183  69.432  1.00  0.00    -0.265 C  
ENDBRANCH  17  18
ENDBRANCH  15  17
ENDBRANCH   7  15
ENDBRANCH   6   7
ENDBRANCH   4   6
ENDBRANCH   3   4
ENDBRANCH   2   3
TORSDOF 11
ENDMDL
MODEL      138
REMARK 921   NORMALIZED FREE ENERGY PREDICTED BY IDOCK:   -3.57 KCAL/MOL
REMARK 922        TOTAL FREE ENERGY PREDICTED BY IDOCK:   -6.57 KCAL/MOL
REMARK 923 INTER-LIGAND FREE ENERGY PREDICTED BY IDOCK:   -5.98 KCAL/MOL
REMARK 924 INTRA-LIGAND FREE ENERGY PREDICTED BY IDOCK:   -0.58 KCAL/MOL
REMARK 927      BINDING AFFINITY PREDICTED BY RF-SCORE:    0.00 PKD
ROOT
HETATM    1  C   UNL     1     -13.438  15.572  72.660  1.00  0.00    -0.642 C  
HETATM    2  C   UNL     1     -12.076  15.699  72.000  1.00  0.00    -0.443 C  
ENDROOT
BRANCH   2   3
HETATM    3  O   UNL     1     -12.292  16.092  70.639  1.00  0.00    -0.341 OA 
BRANCH   3   4
HETATM    4  C   UNL     1     -11.709  15.312  69.695  1.00  0.00    -0.334 C  
HETATM    5  O   UNL     1     -11.351  14.149  69.839  1.00  0.00    -0.244 OA 
BRANCH   4   6
HETATM    6  C   UNL     1     -11.740  16.014  68.369  1.00  0.00    -0.196 C  
BRANCH   6   7
HETATM    7  C   UNL     1     -10.627  15.518  67.456  1.00  0.00    -0.297 C  
BRANCH   7   8
HETATM    8  S   UNL     1     -11.134  14.103  66.392  1.00  0.00    -0.327 SA 
BRANCH   8   9
HETATM    9  P   UNL     1      -9.892  12.450  66.860  1.00  0.00    -0.223 P  
HETATM   10  S   UNL     1     -11.388  11.442  67.794  1.00  0.00    -0.280 S  
BRANCH   9  11
HETATM   11  O   UNL     1      -9.736  12.013  65.268  1.00  0.00    -0.235 OA 
HETATM   12  C   UNL     1     -10.453  10.927  64.697  1.00  0.00    -0.314 C  
ENDBRANCH   9  11
BRANCH   9  13
HETATM   13  O   UNL     1      -8.878  11.102  67.243  1.00  0.00    -0.142 OA 
HETATM   14  C   UNL     1      -8.725  10.833  68.623  1.00  0.00    -0.152 C  
ENDBRANCH   9  13
ENDBRANCH   8   9
ENDBRANCH   7   8
BRANCH   7  15
HETATM   15  C   UNL     1     -10.230  16.644  66.510  1.00  0.00    -0.310 C  
HETATM   16  O   UNL     1      -9.685  16.485  65.426  1.00  0.00    -0.496 OA 
BRANCH  15  17
HETATM   17  O   UNL     1     -10.477  17.852  67.092  1.00  0.00    -0.360 OA 
BRANCH  17  18
HETATM   18  C   UNL     1      -9.479  18.852  66.856  1.00  0.00    -0.317 C  
HETATM   19  C   UNL     1      -8.581  18.913  68.078  1.00  0.00    -0.330 C  
ENDBRANCH  17  18
ENDBRANCH  15  17
ENDBRANCH   7  15
ENDBRANCH   6   7
ENDBRANCH   4   6
ENDBRANCH   3   4
ENDBRANCH   2   3
TORSDOF 11
ENDMDL
MODEL      139
REMARK 921   NORMALIZED FREE ENERGY PREDICTED BY IDOCK:   -3.57 KCAL/MOL
REMARK 922        TOTAL FREE ENERGY PREDICTED BY IDOCK:   -6.56 KCAL/MOL
REMARK 923 INTER-LIGAND FREE ENERGY PREDICTED BY IDOCK:   -5.97 KCAL/MOL
REMARK 924 INTRA-LIGAND FREE ENERGY PREDICTED BY IDOCK:   -0.59 KCAL/MOL
REMARK 927      BINDING AFFINITY PREDICTED BY RF-SCORE:    0.00 PKD
ROOT
HETATM    1  C   UNL     1     -10.627   7.705  67.032  1.00  0.00    -0.406 C  
HETATM    2  C   UNL     1     -10.605   9.164  67.453  1.00  0.00    -0.244 C  
ENDROOT
BRANCH   2   3
HETATM    3  O   UNL     1     -10.251   9.940  66.302  1.00  0.00    -0.243 OA 
BRANCH   3   4
HETATM    4  C   UNL     1     -10.542  11.263  66.364  1.00  0.00    -0.266 C  
HETATM    5  O   UNL     1     -10.149  12.126  65.588  1.00  0.00    -0.239 OA 
BRANCH   4   6
HETATM    6  C   UNL     1     -11.586  11.503  67.415  1.00  0.00    -0.307 C  
BRANCH   6   7
HETATM    7  C   UNL     1     -11.201  12.666  68.319  1.00  0.00    -0.272 C  
BRANCH   7   8
HETATM    8  S   UNL     1     -11.787  14.298  67.696  1.00  0.00    -0.367 SA 
BRANCH   8   9
HETATM    9  P   UNL     1     -10.117  15.598  67.589  1.00  0.00    -0.256 P  
HETATM   10  S   UNL     1     -10.265  15.812  65.575  1.00  0.00    -0.357 S  
BRANCH   9  11
HETATM   11  O   UNL     1     -10.903  16.806  68.409  1.00  0.00    -0.343 OA 
HETATM   12  C   UNL     1     -10.287  18.048  68.722  1.00  0.00    -0.284 C  
ENDBRANCH   9  11
BRANCH   9  13
HETATM   13  O   UNL     1      -8.753  16.659  67.501  1.00  0.00    -0.188 OA 
HETATM   14  C   UNL     1      -8.151  16.765  66.225  1.00  0.00    -0.330 C  
ENDBRANCH   9  13
ENDBRANCH   8   9
ENDBRANCH   7   8
BRANCH   7  15
HETATM   15  C   UNL     1     -11.857  12.468  69.679  1.00  0.00    -0.314 C  
HETATM   16  O   UNL     1     -12.023  11.384  70.223  1.00  0.00    -0.327 OA 
BRANCH  15  17
HETATM   17  O   UNL     1     -12.321  13.660  70.151  1.00  0.00    -0.331 OA 
BRANCH  17  18
HETATM   18  C   UNL     1     -12.848  13.619  71.483  1.00  0.00    -0.359 C  
HETATM   19  C   UNL     1     -13.812  14.781  71.638  1.00  0.00    -0.535 C  
ENDBRANCH  17  18
ENDBRANCH  15  17
ENDBRANCH   7  15
ENDBRANCH   6   7
ENDBRANCH   4   6
ENDBRANCH   3   4
ENDBRANCH   2   3
TORSDOF 11
ENDMDL
MODEL      140
REMARK 921   NORMALIZED FREE ENERGY PREDICTED BY IDOCK:   -3.56 KCAL/MOL
REMARK 922        TOTAL FREE ENERGY PREDICTED BY IDOCK:   -6.55 KCAL/MOL
REMARK 923 INTER-LIGAND FREE ENERGY PREDICTED BY IDOCK:   -5.77 KCAL/MOL
REMARK 924 INTRA-LIGAND FREE ENERGY PREDICTED BY IDOCK:   -0.78 KCAL/MOL
REMARK 927      BINDING AFFINITY PREDICTED BY RF-SCORE:    0.00 PKD
ROOT
HETATM    1  C   UNL     1     -13.839  13.230  72.307  1.00  0.00    -0.637 C  
HETATM    2  C   UNL     1     -12.809  12.798  71.278  1.00  0.00    -0.262 C  
ENDROOT
BRANCH   2   3
HETATM    3  O   UNL     1     -11.929  13.906  71.057  1.00  0.00    -0.314 OA 
BRANCH   3   4
HETATM    4  C   UNL     1     -12.222  14.697  69.995  1.00  0.00    -0.333 C  
HETATM    5  O   UNL     1     -12.431  15.904  70.029  1.00  0.00    -0.296 OA 
BRANCH   4   6
HETATM    6  C   UNL     1     -12.062  13.917  68.723  1.00  0.00    -0.344 C  
BRANCH   6   7
HETATM    7  C   UNL     1     -11.220  14.680  67.711  1.00  0.00    -0.308 C  
BRANCH   7   8
HETATM    8  S   UNL     1      -9.446  14.810  68.189  1.00  0.00    -0.214 SA 
BRANCH   8   9
HETATM    9  P   UNL     1      -8.511  16.191  66.880  1.00  0.00    -0.288 P  
HETATM   10  S   UNL     1      -9.937  17.608  67.170  1.00  0.00    -0.330 S  
BRANCH   9  11
HETATM   11  O   UNL     1      -7.211  16.391  67.889  1.00  0.00    -0.130 OA 
HETATM   12  C   UNL     1      -7.327  16.361  69.305  1.00  0.00    -0.211 C  
ENDBRANCH   9  11
BRANCH   9  13
HETATM   13  O   UNL     1      -7.750  17.318  65.811  1.00  0.00    -0.470 OA 
HETATM   14  C   UNL     1      -7.602  18.629  66.320  1.00  0.00    -0.263 C  
ENDBRANCH   9  13
ENDBRANCH   8   9
ENDBRANCH   7   8
BRANCH   7  15
HETATM   15  C   UNL     1     -11.250  13.932  66.384  1.00  0.00    -0.315 C  
HETATM   16  O   UNL     1     -11.618  14.413  65.320  1.00  0.00    -0.333 OA 
BRANCH  15  17
HETATM   17  O   UNL     1     -10.909  12.626  66.576  1.00  0.00    -0.251 OA 
BRANCH  17  18
HETATM   18  C   UNL     1     -10.257  12.002  65.464  1.00  0.00    -0.258 C  
HETATM   19  C   UNL     1      -9.318  10.942  66.011  1.00  0.00    -0.215 C  
ENDBRANCH  17  18
ENDBRANCH  15  17
ENDBRANCH   7  15
ENDBRANCH   6   7
ENDBRANCH   4   6
ENDBRANCH   3   4
ENDBRANCH   2   3
TORSDOF 11
ENDMDL
MODEL      141
REMARK 921   NORMALIZED FREE ENERGY PREDICTED BY IDOCK:   -3.56 KCAL/MOL
REMARK 922        TOTAL FREE ENERGY PREDICTED BY IDOCK:   -6.55 KCAL/MOL
REMARK 923 INTER-LIGAND FREE ENERGY PREDICTED BY IDOCK:   -5.77 KCAL/MOL
REMARK 924 INTRA-LIGAND FREE ENERGY PREDICTED BY IDOCK:   -0.78 KCAL/MOL
REMARK 927      BINDING AFFINITY PREDICTED BY RF-SCORE:    0.00 PKD
ROOT
HETATM    1  C   UNL     1     -10.188  10.807  66.033  1.00  0.00    -0.310 C  
HETATM    2  C   UNL     1     -10.403  11.880  64.980  1.00  0.00    -0.289 C  
ENDROOT
BRANCH   2   3
HETATM    3  O   UNL     1     -10.159  13.148  65.601  1.00  0.00    -0.284 OA 
BRANCH   3   4
HETATM    4  C   UNL     1     -10.985  14.159  65.235  1.00  0.00    -0.337 C  
HETATM    5  O   UNL     1     -11.861  14.103  64.380  1.00  0.00    -0.415 OA 
BRANCH   4   6
HETATM    6  C   UNL     1     -10.810  15.319  66.171  1.00  0.00    -0.320 C  
BRANCH   6   7
HETATM    7  C   UNL     1     -10.109  14.892  67.453  1.00  0.00    -0.228 C  
BRANCH   7   8
HETATM    8  S   UNL     1      -8.882  16.126  68.058  1.00  0.00    -0.182 SA 
BRANCH   8   9
HETATM    9  P   UNL     1      -9.084  17.882  66.888  1.00  0.00    -0.273 P  
HETATM   10  S   UNL     1      -9.540  19.039  68.495  1.00  0.00    -0.407 S  
BRANCH   9  11
HETATM   11  O   UNL     1      -7.467  17.921  66.523  1.00  0.00    -0.210 OA 
HETATM   12  C   UNL     1      -6.588  16.844  66.818  1.00  0.00    -0.225 C  
ENDBRANCH   9  11
BRANCH   9  13
HETATM   13  O   UNL     1      -9.250  19.316  65.934  1.00  0.00    -0.424 OA 
HETATM   14  C   UNL     1     -10.580  19.707  65.657  1.00  0.00    -0.364 C  
ENDBRANCH   9  13
ENDBRANCH   8   9
ENDBRANCH   7   8
BRANCH   7  15
HETATM   15  C   UNL     1     -11.149  14.748  68.557  1.00  0.00    -0.264 C  
HETATM   16  O   UNL     1     -11.983  15.595  68.845  1.00  0.00    -0.367 OA 
BRANCH  15  17
HETATM   17  O   UNL     1     -10.947  13.585  69.239  1.00  0.00    -0.216 OA 
BRANCH  17  18
HETATM   18  C   UNL     1     -11.883  12.540  68.945  1.00  0.00    -0.301 C  
HETATM   19  C   UNL     1     -12.249  11.862  70.253  1.00  0.00    -0.353 C  
ENDBRANCH  17  18
ENDBRANCH  15  17
ENDBRANCH   7  15
ENDBRANCH   6   7
ENDBRANCH   4   6
ENDBRANCH   3   4
ENDBRANCH   2   3
TORSDOF 11
ENDMDL
MODEL      142
REMARK 921   NORMALIZED FREE ENERGY PREDICTED BY IDOCK:   -3.55 KCAL/MOL
REMARK 922        TOTAL FREE ENERGY PREDICTED BY IDOCK:   -6.54 KCAL/MOL
REMARK 923 INTER-LIGAND FREE ENERGY PREDICTED BY IDOCK:   -5.88 KCAL/MOL
REMARK 924 INTRA-LIGAND FREE ENERGY PREDICTED BY IDOCK:   -0.65 KCAL/MOL
REMARK 927      BINDING AFFINITY PREDICTED BY RF-SCORE:    0.00 PKD
ROOT
HETATM    1  C   UNL     1     -13.635  14.324  71.883  1.00  0.00    -0.501 C  
HETATM    2  C   UNL     1     -12.926  13.102  71.326  1.00  0.00    -0.254 C  
ENDROOT
BRANCH   2   3
HETATM    3  O   UNL     1     -13.333  11.974  72.108  1.00  0.00    -0.510 OA 
BRANCH   3   4
HETATM    4  C   UNL     1     -12.999  10.755  71.614  1.00  0.00    -0.476 C  
HETATM    5  O   UNL     1     -13.619   9.713  71.782  1.00  0.00    -0.379 OA 
BRANCH   4   6
HETATM    6  C   UNL     1     -11.854  10.896  70.653  1.00  0.00    -0.453 C  
BRANCH   6   7
HETATM    7  C   UNL     1     -11.423   9.542  70.107  1.00  0.00    -0.162 C  
BRANCH   7   8
HETATM    8  S   UNL     1     -10.620   9.645  68.452  1.00  0.00    -0.211 SA 
BRANCH   8   9
HETATM    9  P   UNL     1     -10.200  11.684  68.052  1.00  0.00    -0.203 P  
HETATM   10  S   UNL     1      -8.780  11.240  66.669  1.00  0.00    -0.178 S  
BRANCH   9  11
HETATM   11  O   UNL     1     -11.688  11.939  67.366  1.00  0.00    -0.503 OA 
HETATM   12  C   UNL     1     -12.016  13.130  66.665  1.00  0.00    -0.389 C  
ENDBRANCH   9  11
BRANCH   9  13
HETATM   13  O   UNL     1      -9.857  13.348  67.725  1.00  0.00    -0.221 OA 
HETATM   14  C   UNL     1      -8.591  13.801  68.163  1.00  0.00    -0.175 C  
ENDBRANCH   9  13
ENDBRANCH   8   9
ENDBRANCH   7   8
BRANCH   7  15
HETATM   15  C   UNL     1     -10.387   8.940  71.048  1.00  0.00    -0.253 C  
HETATM   16  O   UNL     1      -9.356   9.497  71.399  1.00  0.00    -0.224 OA 
BRANCH  15  17
HETATM   17  O   UNL     1     -10.728   7.656  71.357  1.00  0.00    -0.222 OA 
BRANCH  17  18
HETATM   18  C   UNL     1      -9.850   7.004  72.283  1.00  0.00    -0.153 C  
HETATM   19  C   UNL     1     -10.522   7.010  73.644  1.00  0.00    -0.414 C  
ENDBRANCH  17  18
ENDBRANCH  15  17
ENDBRANCH   7  15
ENDBRANCH   6   7
ENDBRANCH   4   6
ENDBRANCH   3   4
ENDBRANCH   2   3
TORSDOF 11
ENDMDL
MODEL      143
REMARK 921   NORMALIZED FREE ENERGY PREDICTED BY IDOCK:   -3.54 KCAL/MOL
REMARK 922        TOTAL FREE ENERGY PREDICTED BY IDOCK:   -6.52 KCAL/MOL
REMARK 923 INTER-LIGAND FREE ENERGY PREDICTED BY IDOCK:   -5.79 KCAL/MOL
REMARK 924 INTRA-LIGAND FREE ENERGY PREDICTED BY IDOCK:   -0.73 KCAL/MOL
REMARK 927      BINDING AFFINITY PREDICTED BY RF-SCORE:    0.00 PKD
ROOT
HETATM    1  C   UNL     1      -8.147   5.070  67.777  1.00  0.00    -0.098 C  
HETATM    2  C   UNL     1      -8.566   6.457  68.229  1.00  0.00    -0.114 C  
ENDROOT
BRANCH   2   3
HETATM    3  O   UNL     1      -8.742   7.259  67.055  1.00  0.00    -0.119 OA 
BRANCH   3   4
HETATM    4  C   UNL     1      -9.986   7.762  66.859  1.00  0.00    -0.261 C  
HETATM    5  O   UNL     1     -11.036   7.131  66.901  1.00  0.00    -0.363 OA 
BRANCH   4   6
HETATM    6  C   UNL     1      -9.919   9.260  66.778  1.00  0.00    -0.312 C  
BRANCH   6   7
HETATM    7  C   UNL     1     -10.827   9.910  67.813  1.00  0.00    -0.264 C  
BRANCH   7   8
HETATM    8  S   UNL     1      -9.972  10.279  69.402  1.00  0.00    -0.225 SA 
BRANCH   8   9
HETATM    9  P   UNL     1     -11.069   9.361  70.967  1.00  0.00    -0.401 P  
HETATM   10  S   UNL     1     -12.505  10.797  70.959  1.00  0.00    -0.442 S  
BRANCH   9  11
HETATM   11  O   UNL     1     -11.477   8.058  70.025  1.00  0.00    -0.108 OA 
HETATM   12  C   UNL     1     -11.612   6.745  70.549  1.00  0.00    -0.372 C  
ENDBRANCH   9  11
BRANCH   9  13
HETATM   13  O   UNL     1     -11.965   8.613  72.244  1.00  0.00    -0.364 OA 
HETATM   14  C   UNL     1     -13.272   9.116  72.441  1.00  0.00    -0.444 C  
ENDBRANCH   9  13
ENDBRANCH   8   9
ENDBRANCH   7   8
BRANCH   7  15
HETATM   15  C   UNL     1     -11.313  11.246  67.268  1.00  0.00    -0.255 C  
HETATM   16  O   UNL     1     -12.146  11.959  67.811  1.00  0.00    -0.564 OA 
BRANCH  15  17
HETATM   17  O   UNL     1     -10.763  11.478  66.042  1.00  0.00    -0.268 OA 
BRANCH  17  18
HETATM   18  C   UNL     1     -11.483  12.408  65.223  1.00  0.00    -0.344 C  
HETATM   19  C   UNL     1     -10.756  12.517  63.895  1.00  0.00    -0.473 C  
ENDBRANCH  17  18
ENDBRANCH  15  17
ENDBRANCH   7  15
ENDBRANCH   6   7
ENDBRANCH   4   6
ENDBRANCH   3   4
ENDBRANCH   2   3
TORSDOF 11
ENDMDL
MODEL      144
REMARK 921   NORMALIZED FREE ENERGY PREDICTED BY IDOCK:   -3.54 KCAL/MOL
REMARK 922        TOTAL FREE ENERGY PREDICTED BY IDOCK:   -6.51 KCAL/MOL
REMARK 923 INTER-LIGAND FREE ENERGY PREDICTED BY IDOCK:   -6.03 KCAL/MOL
REMARK 924 INTRA-LIGAND FREE ENERGY PREDICTED BY IDOCK:   -0.48 KCAL/MOL
REMARK 927      BINDING AFFINITY PREDICTED BY RF-SCORE:    0.00 PKD
ROOT
HETATM    1  C   UNL     1      -5.700  15.176  69.483  1.00  0.00    -0.102 C  
HETATM    2  C   UNL     1      -6.965  15.936  69.122  1.00  0.00    -0.176 C  
ENDROOT
BRANCH   2   3
HETATM    3  O   UNL     1      -8.038  14.989  69.074  1.00  0.00    -0.157 OA 
BRANCH   3   4
HETATM    4  C   UNL     1      -8.192  14.322  67.903  1.00  0.00    -0.156 C  
HETATM    5  O   UNL     1      -8.221  13.105  67.764  1.00  0.00    -0.141 OA 
BRANCH   4   6
HETATM    6  C   UNL     1      -8.523  15.293  66.808  1.00  0.00    -0.290 C  
BRANCH   6   7
HETATM    7  C   UNL     1     -10.006  15.637  66.806  1.00  0.00    -0.250 C  
BRANCH   7   8
HETATM    8  S   UNL     1     -11.052  14.358  67.619  1.00  0.00    -0.313 SA 
BRANCH   8   9
HETATM    9  P   UNL     1     -12.113  13.318  66.107  1.00  0.00    -0.371 P  
HETATM   10  S   UNL     1     -11.817  14.783  64.731  1.00  0.00    -0.395 S  
BRANCH   9  11
HETATM   11  O   UNL     1     -10.967  12.124  66.011  1.00  0.00    -0.271 OA 
HETATM   12  C   UNL     1     -10.924  11.028  66.915  1.00  0.00    -0.249 C  
ENDBRANCH   9  11
BRANCH   9  13
HETATM   13  O   UNL     1     -12.980  12.471  64.872  1.00  0.00    -0.821 OA 
HETATM   14  C   UNL     1     -12.242  12.193  63.698  1.00  0.00    -0.562 C  
ENDBRANCH   9  13
ENDBRANCH   8   9
ENDBRANCH   7   8
BRANCH   7  15
HETATM   15  C   UNL     1     -10.212  16.923  67.596  1.00  0.00    -0.306 C  
HETATM   16  O   UNL     1     -11.141  17.128  68.365  1.00  0.00    -0.291 OA 
BRANCH  15  17
HETATM   17  O   UNL     1      -9.271  17.844  67.242  1.00  0.00    -0.249 OA 
BRANCH  17  18
HETATM   18  C   UNL     1      -9.717  18.838  66.311  1.00  0.00    -0.330 C  
HETATM   19  C   UNL     1      -9.982  20.115  67.086  1.00  0.00    -0.595 C  
ENDBRANCH  17  18
ENDBRANCH  15  17
ENDBRANCH   7  15
ENDBRANCH   6   7
ENDBRANCH   4   6
ENDBRANCH   3   4
ENDBRANCH   2   3
TORSDOF 11
ENDMDL
MODEL      145
REMARK 921   NORMALIZED FREE ENERGY PREDICTED BY IDOCK:   -3.53 KCAL/MOL
REMARK 922        TOTAL FREE ENERGY PREDICTED BY IDOCK:   -6.50 KCAL/MOL
REMARK 923 INTER-LIGAND FREE ENERGY PREDICTED BY IDOCK:   -5.69 KCAL/MOL
REMARK 924 INTRA-LIGAND FREE ENERGY PREDICTED BY IDOCK:   -0.81 KCAL/MOL
REMARK 927      BINDING AFFINITY PREDICTED BY RF-SCORE:    0.00 PKD
ROOT
HETATM    1  C   UNL     1     -11.454  16.174  64.325  1.00  0.00    -0.099 C  
HETATM    2  C   UNL     1     -10.820  14.974  65.006  1.00  0.00    -0.422 C  
ENDROOT
BRANCH   2   3
HETATM    3  O   UNL     1     -11.773  13.905  64.973  1.00  0.00    -0.331 OA 
BRANCH   3   4
HETATM    4  C   UNL     1     -12.042  13.310  66.161  1.00  0.00    -0.421 C  
HETATM    5  O   UNL     1     -12.226  12.113  66.344  1.00  0.00    -0.592 OA 
BRANCH   4   6
HETATM    6  C   UNL     1     -11.885  14.307  67.273  1.00  0.00    -0.444 C  
BRANCH   6   7
HETATM    7  C   UNL     1     -11.157  13.697  68.462  1.00  0.00    -0.275 C  
BRANCH   7   8
HETATM    8  S   UNL     1      -9.323  13.759  68.304  1.00  0.00    -0.198 SA 
BRANCH   8   9
HETATM    9  P   UNL     1      -8.633  11.799  67.883  1.00  0.00    -0.171 P  
HETATM   10  S   UNL     1     -10.188  10.919  68.850  1.00  0.00    -0.195 S  
BRANCH   9  11
HETATM   11  O   UNL     1      -8.915  11.963  66.257  1.00  0.00    -0.207 OA 
HETATM   12  C   UNL     1      -9.149  10.851  65.403  1.00  0.00    -0.198 C  
ENDBRANCH   9  11
BRANCH   9  13
HETATM   13  O   UNL     1      -8.071  10.199  67.541  1.00  0.00    -0.112 OA 
HETATM   14  C   UNL     1      -7.481   9.519  68.631  1.00  0.00    -0.079 C  
ENDBRANCH   9  13
ENDBRANCH   8   9
ENDBRANCH   7   8
BRANCH   7  15
HETATM   15  C   UNL     1     -11.505  14.494  69.713  1.00  0.00    -0.279 C  
HETATM   16  O   UNL     1     -10.808  15.377  70.193  1.00  0.00    -0.273 OA 
BRANCH  15  17
HETATM   17  O   UNL     1     -12.651  14.009  70.271  1.00  0.00    -0.342 OA 
BRANCH  17  18
HETATM   18  C   UNL     1     -13.147  14.763  71.384  1.00  0.00    -0.354 C  
HETATM   19  C   UNL     1     -13.679  13.780  72.411  1.00  0.00    -0.692 C  
ENDBRANCH  17  18
ENDBRANCH  15  17
ENDBRANCH   7  15
ENDBRANCH   6   7
ENDBRANCH   4   6
ENDBRANCH   3   4
ENDBRANCH   2   3
TORSDOF 11
ENDMDL
MODEL      146
REMARK 921   NORMALIZED FREE ENERGY PREDICTED BY IDOCK:   -3.52 KCAL/MOL
REMARK 922        TOTAL FREE ENERGY PREDICTED BY IDOCK:   -6.48 KCAL/MOL
REMARK 923 INTER-LIGAND FREE ENERGY PREDICTED BY IDOCK:   -5.72 KCAL/MOL
REMARK 924 INTRA-LIGAND FREE ENERGY PREDICTED BY IDOCK:   -0.76 KCAL/MOL
REMARK 927      BINDING AFFINITY PREDICTED BY RF-SCORE:    0.00 PKD
ROOT
HETATM    1  C   UNL     1      -9.690   7.114  66.710  1.00  0.00    -0.252 C  
HETATM    2  C   UNL     1     -10.580   8.208  67.273  1.00  0.00    -0.273 C  
ENDROOT
BRANCH   2   3
HETATM    3  O   UNL     1     -10.215   9.434  66.629  1.00  0.00    -0.252 OA 
BRANCH   3   4
HETATM    4  C   UNL     1     -10.129  10.525  67.431  1.00  0.00    -0.197 C  
HETATM    5  O   UNL     1      -9.211  11.335  67.452  1.00  0.00    -0.159 OA 
BRANCH   4   6
HETATM    6  C   UNL     1     -11.425  10.717  68.164  1.00  0.00    -0.346 C  
BRANCH   6   7
HETATM    7  C   UNL     1     -11.220  11.509  69.447  1.00  0.00    -0.259 C  
BRANCH   7   8
HETATM    8  S   UNL     1     -12.117  13.118  69.462  1.00  0.00    -0.183 SA 
BRANCH   8   9
HETATM    9  P   UNL     1     -10.942  14.535  68.410  1.00  0.00    -0.268 P  
HETATM   10  S   UNL     1     -11.862  14.155  66.639  1.00  0.00    -0.438 S  
BRANCH   9  11
HETATM   11  O   UNL     1     -11.625  15.816  69.212  1.00  0.00    -0.333 OA 
HETATM   12  C   UNL     1     -12.310  15.670  70.448  1.00  0.00    -0.391 C  
ENDBRANCH   9  11
BRANCH   9  13
HETATM   13  O   UNL     1      -9.984  15.690  67.551  1.00  0.00    -0.228 OA 
HETATM   14  C   UNL     1     -10.434  17.028  67.631  1.00  0.00    -0.343 C  
ENDBRANCH   9  13
ENDBRANCH   8   9
ENDBRANCH   7   8
BRANCH   7  15
HETATM   15  C   UNL     1     -11.771  10.702  70.615  1.00  0.00    -0.356 C  
HETATM   16  O   UNL     1     -12.821  10.942  71.196  1.00  0.00    -0.376 OA 
BRANCH  15  17
HETATM   17  O   UNL     1     -10.876   9.741  70.982  1.00  0.00    -0.326 OA 
BRANCH  17  18
HETATM   18  C   UNL     1     -11.419   8.420  71.097  1.00  0.00    -0.274 C  
HETATM   19  C   UNL     1     -11.391   8.032  72.564  1.00  0.00    -0.469 C  
ENDBRANCH  17  18
ENDBRANCH  15  17
ENDBRANCH   7  15
ENDBRANCH   6   7
ENDBRANCH   4   6
ENDBRANCH   3   4
ENDBRANCH   2   3
TORSDOF 11
ENDMDL
MODEL      147
REMARK 921   NORMALIZED FREE ENERGY PREDICTED BY IDOCK:   -3.52 KCAL/MOL
REMARK 922        TOTAL FREE ENERGY PREDICTED BY IDOCK:   -6.48 KCAL/MOL
REMARK 923 INTER-LIGAND FREE ENERGY PREDICTED BY IDOCK:   -5.70 KCAL/MOL
REMARK 924 INTRA-LIGAND FREE ENERGY PREDICTED BY IDOCK:   -0.78 KCAL/MOL
REMARK 927      BINDING AFFINITY PREDICTED BY RF-SCORE:    0.00 PKD
ROOT
HETATM    1  C   UNL     1      -5.649  13.825  70.213  1.00  0.00    -0.131 C  
HETATM    2  C   UNL     1      -6.044  13.679  68.754  1.00  0.00    -0.086 C  
ENDROOT
BRANCH   2   3
HETATM    3  O   UNL     1      -7.148  14.561  68.515  1.00  0.00    -0.101 OA 
BRANCH   3   4
HETATM    4  C   UNL     1      -6.885  15.652  67.755  1.00  0.00    -0.159 C  
HETATM    5  O   UNL     1      -5.939  15.788  66.989  1.00  0.00    -0.317 OA 
BRANCH   4   6
HETATM    6  C   UNL     1      -8.037  16.612  67.833  1.00  0.00    -0.177 C  
BRANCH   6   7
HETATM    7  C   UNL     1      -9.362  15.904  67.588  1.00  0.00    -0.217 C  
BRANCH   7   8
HETATM    8  S   UNL     1     -10.644  16.302  68.850  1.00  0.00    -0.307 SA 
BRANCH   8   9
HETATM    9  P   UNL     1     -11.411  14.475  69.605  1.00  0.00    -0.247 P  
HETATM   10  S   UNL     1     -12.772  15.403  70.792  1.00  0.00    -0.449 S  
BRANCH   9  11
HETATM   11  O   UNL     1     -12.048  14.043  68.136  1.00  0.00    -0.355 OA 
HETATM   12  C   UNL     1     -11.570  12.932  67.390  1.00  0.00    -0.360 C  
ENDBRANCH   9  11
BRANCH   9  13
HETATM   13  O   UNL     1     -12.037  12.985  70.221  1.00  0.00    -0.348 OA 
HETATM   14  C   UNL     1     -12.895  13.106  71.339  1.00  0.00    -0.311 C  
ENDBRANCH   9  13
ENDBRANCH   8   9
ENDBRANCH   7   8
BRANCH   7  15
HETATM   15  C   UNL     1      -9.924  16.364  66.249  1.00  0.00    -0.323 C  
HETATM   16  O   UNL     1     -10.583  15.664  65.492  1.00  0.00    -0.353 OA 
BRANCH  15  17
HETATM   17  O   UNL     1      -9.498  17.630  65.974  1.00  0.00    -0.490 OA 
BRANCH  17  18
HETATM   18  C   UNL     1     -10.512  18.639  66.051  1.00  0.00    -0.414 C  
HETATM   19  C   UNL     1      -9.823  19.990  66.087  1.00  0.00    -0.553 C  
ENDBRANCH  17  18
ENDBRANCH  15  17
ENDBRANCH   7  15
ENDBRANCH   6   7
ENDBRANCH   4   6
ENDBRANCH   3   4
ENDBRANCH   2   3
TORSDOF 11
ENDMDL
MODEL      148
REMARK 921   NORMALIZED FREE ENERGY PREDICTED BY IDOCK:   -3.51 KCAL/MOL
REMARK 922        TOTAL FREE ENERGY PREDICTED BY IDOCK:   -6.46 KCAL/MOL
REMARK 923 INTER-LIGAND FREE ENERGY PREDICTED BY IDOCK:   -5.62 KCAL/MOL
REMARK 924 INTRA-LIGAND FREE ENERGY PREDICTED BY IDOCK:   -0.84 KCAL/MOL
REMARK 927      BINDING AFFINITY PREDICTED BY RF-SCORE:    0.00 PKD
ROOT
HETATM    1  C   UNL     1      -7.600   9.846  68.692  1.00  0.00    -0.080 C  
HETATM    2  C   UNL     1      -8.873   9.871  67.865  1.00  0.00    -0.129 C  
ENDROOT
BRANCH   2   3
HETATM    3  O   UNL     1      -9.250  11.242  67.696  1.00  0.00    -0.153 OA 
BRANCH   3   4
HETATM    4  C   UNL     1      -9.212  11.718  66.426  1.00  0.00    -0.217 C  
HETATM    5  O   UNL     1      -8.901  11.082  65.426  1.00  0.00    -0.192 OA 
BRANCH   4   6
HETATM    6  C   UNL     1      -9.800  13.099  66.385  1.00  0.00    -0.279 C  
BRANCH   6   7
HETATM    7  C   UNL     1     -11.282  13.077  66.730  1.00  0.00    -0.298 C  
BRANCH   7   8
HETATM    8  S   UNL     1     -11.691  14.033  68.250  1.00  0.00    -0.370 SA 
BRANCH   8   9
HETATM    9  P   UNL     1     -10.012  15.229  68.745  1.00  0.00    -0.232 P  
HETATM   10  S   UNL     1     -10.715  16.841  67.728  1.00  0.00    -0.284 S  
BRANCH   9  11
HETATM   11  O   UNL     1     -10.417  15.274  70.353  1.00  0.00    -0.258 OA 
HETATM   12  C   UNL     1     -11.670  15.759  70.815  1.00  0.00    -0.399 C  
ENDBRANCH   9  11
BRANCH   9  13
HETATM   13  O   UNL     1      -8.642  16.206  69.148  1.00  0.00    -0.244 OA 
HETATM   14  C   UNL     1      -8.697  17.542  68.689  1.00  0.00    -0.258 C  
ENDBRANCH   9  13
ENDBRANCH   8   9
ENDBRANCH   7   8
BRANCH   7  15
HETATM   15  C   UNL     1     -12.060  13.728  65.594  1.00  0.00    -0.418 C  
HETATM   16  O   UNL     1     -13.191  14.185  65.694  1.00  0.00    -0.615 OA 
BRANCH  15  17
HETATM   17  O   UNL     1     -11.355  13.632  64.431  1.00  0.00    -0.369 OA 
BRANCH  17  18
HETATM   18  C   UNL     1     -12.130  13.271  63.281  1.00  0.00    -0.337 C  
HETATM   19  C   UNL     1     -12.425  11.785  63.366  1.00  0.00    -0.490 C  
ENDBRANCH  17  18
ENDBRANCH  15  17
ENDBRANCH   7  15
ENDBRANCH   6   7
ENDBRANCH   4   6
ENDBRANCH   3   4
ENDBRANCH   2   3
TORSDOF 11
ENDMDL
MODEL      149
REMARK 921   NORMALIZED FREE ENERGY PREDICTED BY IDOCK:   -3.50 KCAL/MOL
REMARK 922        TOTAL FREE ENERGY PREDICTED BY IDOCK:   -6.46 KCAL/MOL
REMARK 923 INTER-LIGAND FREE ENERGY PREDICTED BY IDOCK:   -5.67 KCAL/MOL
REMARK 924 INTRA-LIGAND FREE ENERGY PREDICTED BY IDOCK:   -0.78 KCAL/MOL
REMARK 927      BINDING AFFINITY PREDICTED BY RF-SCORE:    0.00 PKD
ROOT
HETATM    1  C   UNL     1     -10.822   8.448  72.266  1.00  0.00    -0.422 C  
HETATM    2  C   UNL     1     -11.836   9.332  71.562  1.00  0.00    -0.374 C  
ENDROOT
BRANCH   2   3
HETATM    3  O   UNL     1     -11.113  10.197  70.677  1.00  0.00    -0.307 OA 
BRANCH   3   4
HETATM    4  C   UNL     1     -11.830  11.193  70.101  1.00  0.00    -0.365 C  
HETATM    5  O   UNL     1     -12.275  12.184  70.669  1.00  0.00    -0.372 OA 
BRANCH   4   6
HETATM    6  C   UNL     1     -11.838  11.015  68.611  1.00  0.00    -0.318 C  
BRANCH   6   7
HETATM    7  C   UNL     1     -10.942  12.039  67.928  1.00  0.00    -0.220 C  
BRANCH   7   8
HETATM    8  S   UNL     1      -9.810  11.299  66.678  1.00  0.00    -0.211 SA 
BRANCH   8   9
HETATM    9  P   UNL     1      -7.832  11.412  67.434  1.00  0.00    -0.151 P  
HETATM   10  S   UNL     1      -7.885  13.436  67.591  1.00  0.00    -0.186 S  
BRANCH   9  11
HETATM   11  O   UNL     1      -8.245  10.659  68.852  1.00  0.00    -0.128 OA 
HETATM   12  C   UNL     1      -7.342  10.526  69.941  1.00  0.00    -0.108 C  
ENDBRANCH   9  11
BRANCH   9  13
HETATM   13  O   UNL     1      -6.218  11.506  68.049  1.00  0.00    -0.046 OA 
HETATM   14  C   UNL     1      -5.206  11.653  67.073  1.00  0.00    -0.112 C  
ENDBRANCH   9  13
ENDBRANCH   8   9
ENDBRANCH   7   8
BRANCH   7  15
HETATM   15  C   UNL     1     -11.817  13.033  67.176  1.00  0.00    -0.373 C  
HETATM   16  O   UNL     1     -12.110  14.150  67.580  1.00  0.00    -0.378 OA 
BRANCH  15  17
HETATM   17  O   UNL     1     -12.308  12.457  66.042  1.00  0.00    -0.627 OA 
BRANCH  17  18
HETATM   18  C   UNL     1     -12.551  13.364  64.960  1.00  0.00    -0.403 C  
HETATM   19  C   UNL     1     -11.844  12.823  63.731  1.00  0.00    -0.572 C  
ENDBRANCH  17  18
ENDBRANCH  15  17
ENDBRANCH   7  15
ENDBRANCH   6   7
ENDBRANCH   4   6
ENDBRANCH   3   4
ENDBRANCH   2   3
TORSDOF 11
ENDMDL
MODEL      150
REMARK 921   NORMALIZED FREE ENERGY PREDICTED BY IDOCK:   -3.50 KCAL/MOL
REMARK 922        TOTAL FREE ENERGY PREDICTED BY IDOCK:   -6.45 KCAL/MOL
REMARK 923 INTER-LIGAND FREE ENERGY PREDICTED BY IDOCK:   -5.71 KCAL/MOL
REMARK 924 INTRA-LIGAND FREE ENERGY PREDICTED BY IDOCK:   -0.75 KCAL/MOL
REMARK 927      BINDING AFFINITY PREDICTED BY RF-SCORE:    0.00 PKD
ROOT
HETATM    1  C   UNL     1     -12.490  11.972  63.542  1.00  0.00    -0.654 C  
HETATM    2  C   UNL     1     -11.018  11.608  63.464  1.00  0.00    -0.407 C  
ENDROOT
BRANCH   2   3
HETATM    3  O   UNL     1     -10.396  12.068  64.670  1.00  0.00    -0.266 OA 
BRANCH   3   4
HETATM    4  C   UNL     1     -10.453  11.223  65.729  1.00  0.00    -0.254 C  
HETATM    5  O   UNL     1     -10.302  10.008  65.693  1.00  0.00    -0.233 OA 
BRANCH   4   6
HETATM    6  C   UNL     1     -10.534  12.013  67.003  1.00  0.00    -0.248 C  
BRANCH   6   7
HETATM    7  C   UNL     1     -10.967  11.136  68.169  1.00  0.00    -0.238 C  
BRANCH   7   8
HETATM    8  S   UNL     1      -9.551  10.438  69.120  1.00  0.00    -0.203 SA 
BRANCH   8   9
HETATM    9  P   UNL     1     -10.133   8.542  69.868  1.00  0.00    -0.205 P  
HETATM   10  S   UNL     1      -8.308   7.718  69.525  1.00  0.00    -0.130 S  
BRANCH   9  11
HETATM   11  O   UNL     1     -10.285   9.111  71.419  1.00  0.00    -0.302 OA 
HETATM   12  C   UNL     1     -10.774   8.309  72.485  1.00  0.00    -0.341 C  
ENDBRANCH   9  11
BRANCH   9  13
HETATM   13  O   UNL     1     -10.607   6.994  70.478  1.00  0.00    -0.216 OA 
HETATM   14  C   UNL     1     -11.138   6.103  69.517  1.00  0.00    -0.420 C  
ENDBRANCH   9  13
ENDBRANCH   8   9
ENDBRANCH   7   8
BRANCH   7  15
HETATM   15  C   UNL     1     -11.765  11.983  69.151  1.00  0.00    -0.330 C  
HETATM   16  O   UNL     1     -12.188  11.589  70.230  1.00  0.00    -0.330 OA 
BRANCH  15  17
HETATM   17  O   UNL     1     -12.026  13.206  68.607  1.00  0.00    -0.328 OA 
BRANCH  17  18
HETATM   18  C   UNL     1     -12.132  14.278  69.551  1.00  0.00    -0.330 C  
HETATM   19  C   UNL     1     -10.834  15.062  69.513  1.00  0.00    -0.272 C  
ENDBRANCH  17  18
ENDBRANCH  15  17
ENDBRANCH   7  15
ENDBRANCH   6   7
ENDBRANCH   4   6
ENDBRANCH   3   4
ENDBRANCH   2   3
TORSDOF 11
ENDMDL
MODEL      151
REMARK 921   NORMALIZED FREE ENERGY PREDICTED BY IDOCK:   -3.50 KCAL/MOL
REMARK 922        TOTAL FREE ENERGY PREDICTED BY IDOCK:   -6.44 KCAL/MOL
REMARK 923 INTER-LIGAND FREE ENERGY PREDICTED BY IDOCK:   -5.55 KCAL/MOL
REMARK 924 INTRA-LIGAND FREE ENERGY PREDICTED BY IDOCK:   -0.89 KCAL/MOL
REMARK 927      BINDING AFFINITY PREDICTED BY RF-SCORE:    0.00 PKD
ROOT
HETATM    1  C   UNL     1      -7.027   8.544  65.546  1.00  0.00    -0.074 C  
HETATM    2  C   UNL     1      -8.309   8.251  64.788  1.00  0.00    -0.119 C  
ENDROOT
BRANCH   2   3
HETATM    3  O   UNL     1      -9.366   8.970  65.434  1.00  0.00    -0.218 OA 
BRANCH   3   4
HETATM    4  C   UNL     1      -9.687  10.171  64.893  1.00  0.00    -0.324 C  
HETATM    5  O   UNL     1     -10.123  10.362  63.764  1.00  0.00    -0.274 OA 
BRANCH   4   6
HETATM    6  C   UNL     1      -9.618  11.236  65.949  1.00  0.00    -0.249 C  
BRANCH   6   7
HETATM    7  C   UNL     1     -10.666  11.009  67.030  1.00  0.00    -0.270 C  
BRANCH   7   8
HETATM    8  S   UNL     1      -9.946  10.836  68.717  1.00  0.00    -0.199 SA 
BRANCH   8   9
HETATM    9  P   UNL     1     -10.629   9.004  69.538  1.00  0.00    -0.172 P  
HETATM   10  S   UNL     1      -8.945   8.003  69.004  1.00  0.00    -0.144 S  
BRANCH   9  11
HETATM   11  O   UNL     1     -10.554   9.580  71.091  1.00  0.00    -0.319 OA 
HETATM   12  C   UNL     1     -10.245   8.750  72.202  1.00  0.00    -0.301 C  
ENDBRANCH   9  11
BRANCH   9  13
HETATM   13  O   UNL     1     -11.187   7.509  70.206  1.00  0.00    -0.272 OA 
HETATM   14  C   UNL     1     -10.924   6.362  69.424  1.00  0.00    -0.359 C  
ENDBRANCH   9  13
ENDBRANCH   8   9
ENDBRANCH   7   8
BRANCH   7  15
HETATM   15  C   UNL     1     -11.589  12.219  67.081  1.00  0.00    -0.353 C  
HETATM   16  O   UNL     1     -11.665  12.999  68.021  1.00  0.00    -0.319 OA 
BRANCH  15  17
HETATM   17  O   UNL     1     -12.386  12.245  65.975  1.00  0.00    -0.609 OA 
BRANCH  17  18
HETATM   18  C   UNL     1     -12.460  13.513  65.312  1.00  0.00    -0.482 C  
HETATM   19  C   UNL     1     -12.178  13.285  63.839  1.00  0.00    -0.491 C  
ENDBRANCH  17  18
ENDBRANCH  15  17
ENDBRANCH   7  15
ENDBRANCH   6   7
ENDBRANCH   4   6
ENDBRANCH   3   4
ENDBRANCH   2   3
TORSDOF 11
ENDMDL
MODEL      152
REMARK 921   NORMALIZED FREE ENERGY PREDICTED BY IDOCK:   -3.49 KCAL/MOL
REMARK 922        TOTAL FREE ENERGY PREDICTED BY IDOCK:   -6.44 KCAL/MOL
REMARK 923 INTER-LIGAND FREE ENERGY PREDICTED BY IDOCK:   -5.63 KCAL/MOL
REMARK 924 INTRA-LIGAND FREE ENERGY PREDICTED BY IDOCK:   -0.80 KCAL/MOL
REMARK 927      BINDING AFFINITY PREDICTED BY RF-SCORE:    0.00 PKD
ROOT
HETATM    1  C   UNL     1     -12.199  12.136  63.723  1.00  0.00    -0.630 C  
HETATM    2  C   UNL     1     -12.533  13.515  64.263  1.00  0.00    -0.252 C  
ENDROOT
BRANCH   2   3
HETATM    3  O   UNL     1     -11.356  14.322  64.143  1.00  0.00    -0.240 OA 
BRANCH   3   4
HETATM    4  C   UNL     1     -11.355  15.482  64.847  1.00  0.00    -0.335 C  
HETATM    5  O   UNL     1     -11.602  16.596  64.403  1.00  0.00    -0.852 OA 
BRANCH   4   6
HETATM    6  C   UNL     1     -11.199  15.185  66.310  1.00  0.00    -0.273 C  
BRANCH   6   7
HETATM    7  C   UNL     1      -9.767  14.793  66.644  1.00  0.00    -0.267 C  
BRANCH   7   8
HETATM    8  S   UNL     1      -9.110  15.638  68.144  1.00  0.00    -0.182 SA 
BRANCH   8   9
HETATM    9  P   UNL     1      -8.540  17.604  67.593  1.00  0.00    -0.230 P  
HETATM   10  S   UNL     1     -10.266  18.422  68.284  1.00  0.00    -0.368 S  
BRANCH   9  11
HETATM   11  O   UNL     1      -7.324  17.653  68.720  1.00  0.00    -0.251 OA 
HETATM   12  C   UNL     1      -6.692  18.863  69.114  1.00  0.00    -0.297 C  
ENDBRANCH   9  11
BRANCH   9  13
HETATM   13  O   UNL     1      -8.075  19.209  67.143  1.00  0.00    -0.255 OA 
HETATM   14  C   UNL     1      -8.977  19.881  66.285  1.00  0.00    -0.353 C  
ENDBRANCH   9  13
ENDBRANCH   8   9
ENDBRANCH   7   8
BRANCH   7  15
HETATM   15  C   UNL     1      -9.723  13.300  66.942  1.00  0.00    -0.248 C  
HETATM   16  O   UNL     1     -10.686  12.629  67.288  1.00  0.00    -0.232 OA 
BRANCH  15  17
HETATM   17  O   UNL     1      -8.439  12.846  66.867  1.00  0.00    -0.174 OA 
BRANCH  17  18
HETATM   18  C   UNL     1      -8.149  11.715  67.697  1.00  0.00    -0.140 C  
HETATM   19  C   UNL     1      -7.410  12.216  68.924  1.00  0.00    -0.054 C  
ENDBRANCH  17  18
ENDBRANCH  15  17
ENDBRANCH   7  15
ENDBRANCH   6   7
ENDBRANCH   4   6
ENDBRANCH   3   4
ENDBRANCH   2   3
TORSDOF 11
ENDMDL
MODEL      153
REMARK 921   NORMALIZED FREE ENERGY PREDICTED BY IDOCK:   -3.49 KCAL/MOL
REMARK 922        TOTAL FREE ENERGY PREDICTED BY IDOCK:   -6.43 KCAL/MOL
REMARK 923 INTER-LIGAND FREE ENERGY PREDICTED BY IDOCK:   -6.02 KCAL/MOL
REMARK 924 INTRA-LIGAND FREE ENERGY PREDICTED BY IDOCK:   -0.41 KCAL/MOL
REMARK 927      BINDING AFFINITY PREDICTED BY RF-SCORE:    0.00 PKD
ROOT
HETATM    1  C   UNL     1     -13.537  15.797  72.925  1.00  0.00    -0.660 C  
HETATM    2  C   UNL     1     -14.217  15.158  71.726  1.00  0.00    -0.578 C  
ENDROOT
BRANCH   2   3
HETATM    3  O   UNL     1     -13.236  15.031  70.691  1.00  0.00    -0.361 OA 
BRANCH   3   4
HETATM    4  C   UNL     1     -12.554  13.860  70.657  1.00  0.00    -0.335 C  
HETATM    5  O   UNL     1     -12.825  12.848  71.292  1.00  0.00    -0.356 OA 
BRANCH   4   6
HETATM    6  C   UNL     1     -11.519  13.907  69.570  1.00  0.00    -0.332 C  
BRANCH   6   7
HETATM    7  C   UNL     1     -11.944  13.076  68.368  1.00  0.00    -0.271 C  
BRANCH   7   8
HETATM    8  S   UNL     1     -11.094  13.564  66.808  1.00  0.00    -0.305 SA 
BRANCH   8   9
HETATM    9  P   UNL     1     -10.619  11.796  65.738  1.00  0.00    -0.284 P  
HETATM   10  S   UNL     1     -11.322  12.533  63.981  1.00  0.00    -0.444 S  
BRANCH   9  11
HETATM   11  O   UNL     1      -8.987  12.034  65.913  1.00  0.00    -0.110 OA 
HETATM   12  C   UNL     1      -8.440  12.921  66.879  1.00  0.00    -0.086 C  
ENDBRANCH   9  11
BRANCH   9  13
HETATM   13  O   UNL     1     -10.233  10.354  64.865  1.00  0.00    -0.338 OA 
HETATM   14  C   UNL     1      -8.862  10.180  64.562  1.00  0.00    -0.204 C  
ENDBRANCH   9  13
ENDBRANCH   8   9
ENDBRANCH   7   8
BRANCH   7  15
HETATM   15  C   UNL     1     -11.572  11.621  68.621  1.00  0.00    -0.312 C  
HETATM   16  O   UNL     1     -12.274  10.661  68.334  1.00  0.00    -0.372 OA 
BRANCH  15  17
HETATM   17  O   UNL     1     -10.394  11.554  69.304  1.00  0.00    -0.120 OA 
BRANCH  17  18
HETATM   18  C   UNL     1      -9.724  10.289  69.230  1.00  0.00    -0.225 C  
HETATM   19  C   UNL     1      -9.909   9.586  70.562  1.00  0.00    -0.331 C  
ENDBRANCH  17  18
ENDBRANCH  15  17
ENDBRANCH   7  15
ENDBRANCH   6   7
ENDBRANCH   4   6
ENDBRANCH   3   4
ENDBRANCH   2   3
TORSDOF 11
ENDMDL
MODEL      154
REMARK 921   NORMALIZED FREE ENERGY PREDICTED BY IDOCK:   -3.49 KCAL/MOL
REMARK 922        TOTAL FREE ENERGY PREDICTED BY IDOCK:   -6.42 KCAL/MOL
REMARK 923 INTER-LIGAND FREE ENERGY PREDICTED BY IDOCK:   -5.66 KCAL/MOL
REMARK 924 INTRA-LIGAND FREE ENERGY PREDICTED BY IDOCK:   -0.76 KCAL/MOL
REMARK 927      BINDING AFFINITY PREDICTED BY RF-SCORE:    0.00 PKD
ROOT
HETATM    1  C   UNL     1     -14.059  14.855  72.211  1.00  0.00    -0.600 C  
HETATM    2  C   UNL     1     -12.618  14.551  71.839  1.00  0.00    -0.341 C  
ENDROOT
BRANCH   2   3
HETATM    3  O   UNL     1     -12.642  13.623  70.748  1.00  0.00    -0.338 OA 
BRANCH   3   4
HETATM    4  C   UNL     1     -12.080  14.051  69.590  1.00  0.00    -0.355 C  
HETATM    5  O   UNL     1     -11.666  15.182  69.363  1.00  0.00    -0.295 OA 
BRANCH   4   6
HETATM    6  C   UNL     1     -11.852  12.883  68.676  1.00  0.00    -0.347 C  
BRANCH   6   7
HETATM    7  C   UNL     1     -10.924  13.254  67.528  1.00  0.00    -0.263 C  
BRANCH   7   8
HETATM    8  S   UNL     1      -9.142  13.009  67.922  1.00  0.00    -0.215 SA 
BRANCH   8   9
HETATM    9  P   UNL     1      -8.100  14.774  67.380  1.00  0.00    -0.202 P  
HETATM   10  S   UNL     1      -9.709  15.570  66.430  1.00  0.00    -0.308 S  
BRANCH   9  11
HETATM   11  O   UNL     1      -7.982  15.284  68.953  1.00  0.00    -0.148 OA 
HETATM   12  C   UNL     1      -6.914  14.897  69.807  1.00  0.00    -0.175 C  
ENDBRANCH   9  11
BRANCH   9  13
HETATM   13  O   UNL     1      -7.250  16.214  66.936  1.00  0.00    -0.216 OA 
HETATM   14  C   UNL     1      -7.914  17.425  67.240  1.00  0.00    -0.200 C  
ENDBRANCH   9  13
ENDBRANCH   8   9
ENDBRANCH   7   8
BRANCH   7  15
HETATM   15  C   UNL     1     -11.227  12.350  66.340  1.00  0.00    -0.319 C  
HETATM   16  O   UNL     1     -12.345  12.140  65.890  1.00  0.00    -0.561 OA 
BRANCH  15  17
HETATM   17  O   UNL     1     -10.086  11.731  65.922  1.00  0.00    -0.219 OA 
BRANCH  17  18
HETATM   18  C   UNL     1     -10.255  10.374  65.495  1.00  0.00    -0.246 C  
HETATM   19  C   UNL     1     -10.259   9.494  66.731  1.00  0.00    -0.313 C  
ENDBRANCH  17  18
ENDBRANCH  15  17
ENDBRANCH   7  15
ENDBRANCH   6   7
ENDBRANCH   4   6
ENDBRANCH   3   4
ENDBRANCH   2   3
TORSDOF 11
ENDMDL
MODEL      155
REMARK 921   NORMALIZED FREE ENERGY PREDICTED BY IDOCK:   -3.49 KCAL/MOL
REMARK 922        TOTAL FREE ENERGY PREDICTED BY IDOCK:   -6.42 KCAL/MOL
REMARK 923 INTER-LIGAND FREE ENERGY PREDICTED BY IDOCK:   -5.50 KCAL/MOL
REMARK 924 INTRA-LIGAND FREE ENERGY PREDICTED BY IDOCK:   -0.92 KCAL/MOL
REMARK 927      BINDING AFFINITY PREDICTED BY RF-SCORE:    0.00 PKD
ROOT
HETATM    1  C   UNL     1      -9.114  10.852  62.550  1.00  0.00    -0.361 C  
HETATM    2  C   UNL     1      -9.150  10.577  64.043  1.00  0.00    -0.231 C  
ENDROOT
BRANCH   2   3
HETATM    3  O   UNL     1     -10.526  10.529  64.439  1.00  0.00    -0.304 OA 
BRANCH   3   4
HETATM    4  C   UNL     1     -11.130  11.726  64.639  1.00  0.00    -0.303 C  
HETATM    5  O   UNL     1     -12.100  12.157  64.027  1.00  0.00    -0.414 OA 
BRANCH   4   6
HETATM    6  C   UNL     1     -10.563  12.381  65.865  1.00  0.00    -0.289 C  
BRANCH   6   7
HETATM    7  C   UNL     1     -10.785  11.521  67.102  1.00  0.00    -0.254 C  
BRANCH   7   8
HETATM    8  S   UNL     1      -9.258  11.277  68.103  1.00  0.00    -0.176 SA 
BRANCH   8   9
HETATM    9  P   UNL     1      -8.912   9.192  68.276  1.00  0.00    -0.127 P  
HETATM   10  S   UNL     1      -9.055   9.219  70.302  1.00  0.00    -0.254 S  
BRANCH   9  11
HETATM   11  O   UNL     1     -10.353   8.812  67.548  1.00  0.00    -0.234 OA 
HETATM   12  C   UNL     1     -10.587   7.560  66.918  1.00  0.00    -0.297 C  
ENDBRANCH   9  11
BRANCH   9  13
HETATM   13  O   UNL     1      -8.629   7.492  68.418  1.00  0.00    -0.125 OA 
HETATM   14  C   UNL     1      -7.896   7.094  69.560  1.00  0.00    -0.119 C  
ENDBRANCH   9  13
ENDBRANCH   8   9
ENDBRANCH   7   8
BRANCH   7  15
HETATM   15  C   UNL     1     -11.785  12.220  68.013  1.00  0.00    -0.356 C  
HETATM   16  O   UNL     1     -12.031  13.419  67.989  1.00  0.00    -0.350 OA 
BRANCH  15  17
HETATM   17  O   UNL     1     -12.286  11.335  68.921  1.00  0.00    -0.494 OA 
BRANCH  17  18
HETATM   18  C   UNL     1     -12.215  11.766  70.286  1.00  0.00    -0.299 C  
HETATM   19  C   UNL     1     -12.465  10.556  71.169  1.00  0.00    -0.517 C  
ENDBRANCH  17  18
ENDBRANCH  15  17
ENDBRANCH   7  15
ENDBRANCH   6   7
ENDBRANCH   4   6
ENDBRANCH   3   4
ENDBRANCH   2   3
TORSDOF 11
ENDMDL
MODEL      156
REMARK 921   NORMALIZED FREE ENERGY PREDICTED BY IDOCK:   -3.48 KCAL/MOL
REMARK 922        TOTAL FREE ENERGY PREDICTED BY IDOCK:   -6.42 KCAL/MOL
REMARK 923 INTER-LIGAND FREE ENERGY PREDICTED BY IDOCK:   -5.55 KCAL/MOL
REMARK 924 INTRA-LIGAND FREE ENERGY PREDICTED BY IDOCK:   -0.87 KCAL/MOL
REMARK 927      BINDING AFFINITY PREDICTED BY RF-SCORE:    0.00 PKD
ROOT
HETATM    1  C   UNL     1     -12.225  13.483  63.477  1.00  0.00    -0.410 C  
HETATM    2  C   UNL     1     -12.031  11.985  63.630  1.00  0.00    -0.515 C  
ENDROOT
BRANCH   2   3
HETATM    3  O   UNL     1     -10.634  11.712  63.467  1.00  0.00    -0.372 OA 
BRANCH   3   4
HETATM    4  C   UNL     1     -10.042  11.018  64.471  1.00  0.00    -0.321 C  
HETATM    5  O   UNL     1      -9.572   9.890  64.390  1.00  0.00    -0.294 OA 
BRANCH   4   6
HETATM    6  C   UNL     1      -9.861  11.911  65.665  1.00  0.00    -0.266 C  
BRANCH   6   7
HETATM    7  C   UNL     1     -10.186  11.175  66.957  1.00  0.00    -0.215 C  
BRANCH   7   8
HETATM    8  S   UNL     1      -8.897  11.382  68.257  1.00  0.00    -0.171 SA 
BRANCH   8   9
HETATM    9  P   UNL     1      -9.026   9.731  69.580  1.00  0.00    -0.225 P  
HETATM   10  S   UNL     1      -9.162   8.382  68.068  1.00  0.00    -0.136 S  
BRANCH   9  11
HETATM   11  O   UNL     1      -7.466   9.930  70.108  1.00  0.00    -0.145 OA 
HETATM   12  C   UNL     1      -6.506  10.695  69.392  1.00  0.00    -0.067 C  
ENDBRANCH   9  11
BRANCH   9  13
HETATM   13  O   UNL     1      -9.132   8.383  70.659  1.00  0.00    -0.145 OA 
HETATM   14  C   UNL     1      -9.889   8.606  71.832  1.00  0.00    -0.314 C  
ENDBRANCH   9  13
ENDBRANCH   8   9
ENDBRANCH   7   8
BRANCH   7  15
HETATM   15  C   UNL     1     -11.473  11.745  67.537  1.00  0.00    -0.303 C  
HETATM   16  O   UNL     1     -12.231  11.140  68.283  1.00  0.00    -0.613 OA 
BRANCH  15  17
HETATM   17  O   UNL     1     -11.707  12.986  67.022  1.00  0.00    -0.345 OA 
BRANCH  17  18
HETATM   18  C   UNL     1     -11.793  14.037  67.992  1.00  0.00    -0.368 C  
HETATM   19  C   UNL     1     -11.069  15.248  67.432  1.00  0.00    -0.326 C  
ENDBRANCH  17  18
ENDBRANCH  15  17
ENDBRANCH   7  15
ENDBRANCH   6   7
ENDBRANCH   4   6
ENDBRANCH   3   4
ENDBRANCH   2   3
TORSDOF 11
ENDMDL
MODEL      157
REMARK 921   NORMALIZED FREE ENERGY PREDICTED BY IDOCK:   -3.48 KCAL/MOL
REMARK 922        TOTAL FREE ENERGY PREDICTED BY IDOCK:   -6.41 KCAL/MOL
REMARK 923 INTER-LIGAND FREE ENERGY PREDICTED BY IDOCK:   -5.82 KCAL/MOL
REMARK 924 INTRA-LIGAND FREE ENERGY PREDICTED BY IDOCK:   -0.59 KCAL/MOL
REMARK 927      BINDING AFFINITY PREDICTED BY RF-SCORE:    0.00 PKD
ROOT
HETATM    1  C   UNL     1     -12.099  13.770  63.736  1.00  0.00    -0.385 C  
HETATM    2  C   UNL     1     -12.358  12.280  63.882  1.00  0.00    -0.509 C  
ENDROOT
BRANCH   2   3
HETATM    3  O   UNL     1     -11.185  11.593  63.432  1.00  0.00    -0.396 OA 
BRANCH   3   4
HETATM    4  C   UNL     1     -10.435  11.002  64.395  1.00  0.00    -0.354 C  
HETATM    5  O   UNL     1      -9.440  10.310  64.214  1.00  0.00    -0.262 OA 
BRANCH   4   6
HETATM    6  C   UNL     1     -10.880  11.479  65.747  1.00  0.00    -0.319 C  
BRANCH   6   7
HETATM    7  C   UNL     1     -10.065  10.831  66.857  1.00  0.00    -0.212 C  
BRANCH   7   8
HETATM    8  S   UNL     1      -9.201  12.051  67.934  1.00  0.00    -0.196 SA 
BRANCH   8   9
HETATM    9  P   UNL     1      -9.991  13.973  67.516  1.00  0.00    -0.243 P  
HETATM   10  S   UNL     1     -11.370  13.856  69.002  1.00  0.00    -0.300 S  
BRANCH   9  11
HETATM   11  O   UNL     1      -8.603  14.738  68.003  1.00  0.00    -0.155 OA 
HETATM   12  C   UNL     1      -8.490  15.396  69.258  1.00  0.00    -0.258 C  
ENDBRANCH   9  11
BRANCH   9  13
HETATM   13  O   UNL     1     -10.637  15.541  67.174  1.00  0.00    -0.289 OA 
HETATM   14  C   UNL     1     -10.214  16.116  65.953  1.00  0.00    -0.360 C  
ENDBRANCH   9  13
ENDBRANCH   8   9
ENDBRANCH   7   8
BRANCH   7  15
HETATM   15  C   UNL     1     -11.005  10.050  67.765  1.00  0.00    -0.249 C  
HETATM   16  O   UNL     1     -12.017  10.507  68.281  1.00  0.00    -0.377 OA 
BRANCH  15  17
HETATM   17  O   UNL     1     -10.500   8.806  68.001  1.00  0.00    -0.223 OA 
BRANCH  17  18
HETATM   18  C   UNL     1     -10.333   7.990  66.835  1.00  0.00    -0.338 C  
HETATM   19  C   UNL     1     -11.099   6.699  67.057  1.00  0.00    -0.395 C  
ENDBRANCH  17  18
ENDBRANCH  15  17
ENDBRANCH   7  15
ENDBRANCH   6   7
ENDBRANCH   4   6
ENDBRANCH   3   4
ENDBRANCH   2   3
TORSDOF 11
ENDMDL
MODEL      158
REMARK 921   NORMALIZED FREE ENERGY PREDICTED BY IDOCK:   -3.48 KCAL/MOL
REMARK 922        TOTAL FREE ENERGY PREDICTED BY IDOCK:   -6.41 KCAL/MOL
REMARK 923 INTER-LIGAND FREE ENERGY PREDICTED BY IDOCK:   -6.15 KCAL/MOL
REMARK 924 INTRA-LIGAND FREE ENERGY PREDICTED BY IDOCK:   -0.26 KCAL/MOL
REMARK 927      BINDING AFFINITY PREDICTED BY RF-SCORE:    0.00 PKD
ROOT
HETATM    1  C   UNL     1      -7.806  19.481  66.326  1.00  0.00    -0.328 C  
HETATM    2  C   UNL     1      -9.276  19.100  66.290  1.00  0.00    -0.313 C  
ENDROOT
BRANCH   2   3
HETATM    3  O   UNL     1      -9.358  17.736  65.861  1.00  0.00    -0.514 OA 
BRANCH   3   4
HETATM    4  C   UNL     1     -10.346  16.995  66.419  1.00  0.00    -0.303 C  
HETATM    5  O   UNL     1     -10.791  15.939  65.985  1.00  0.00    -0.305 OA 
BRANCH   4   6
HETATM    6  C   UNL     1     -10.695  17.551  67.770  1.00  0.00    -0.333 C  
BRANCH   6   7
HETATM    7  C   UNL     1     -10.295  16.590  68.881  1.00  0.00    -0.292 C  
BRANCH   7   8
HETATM    8  S   UNL     1     -11.180  14.976  68.802  1.00  0.00    -0.295 SA 
BRANCH   8   9
HETATM    9  P   UNL     1     -12.497  14.867  70.459  1.00  0.00    -0.376 P  
HETATM   10  S   UNL     1     -12.347  12.845  70.592  1.00  0.00    -0.207 S  
BRANCH   9  11
HETATM   11  O   UNL     1     -11.429  15.644  71.461  1.00  0.00    -0.368 OA 
HETATM   12  C   UNL     1     -11.840  16.329  72.636  1.00  0.00    -0.497 C  
ENDBRANCH   9  11
BRANCH   9  13
HETATM   13  O   UNL     1     -13.573  14.776  71.811  1.00  0.00    -0.338 OA 
HETATM   14  C   UNL     1     -13.823  13.473  72.298  1.00  0.00    -0.581 C  
ENDBRANCH   9  13
ENDBRANCH   8   9
ENDBRANCH   7   8
BRANCH   7  15
HETATM   15  C   UNL     1      -8.812  16.272  68.745  1.00  0.00    -0.243 C  
HETATM   16  O   UNL     1      -8.354  15.157  68.535  1.00  0.00    -0.144 OA 
BRANCH  15  17
HETATM   17  O   UNL     1      -8.071  17.389  68.995  1.00  0.00    -0.212 OA 
BRANCH  17  18
HETATM   18  C   UNL     1      -6.665  17.159  69.151  1.00  0.00    -0.238 C  
HETATM   19  C   UNL     1      -6.030  18.459  69.611  1.00  0.00    -0.261 C  
ENDBRANCH  17  18
ENDBRANCH  15  17
ENDBRANCH   7  15
ENDBRANCH   6   7
ENDBRANCH   4   6
ENDBRANCH   3   4
ENDBRANCH   2   3
TORSDOF 11
ENDMDL
MODEL      159
REMARK 921   NORMALIZED FREE ENERGY PREDICTED BY IDOCK:   -3.47 KCAL/MOL
REMARK 922        TOTAL FREE ENERGY PREDICTED BY IDOCK:   -6.40 KCAL/MOL
REMARK 923 INTER-LIGAND FREE ENERGY PREDICTED BY IDOCK:   -5.37 KCAL/MOL
REMARK 924 INTRA-LIGAND FREE ENERGY PREDICTED BY IDOCK:   -1.02 KCAL/MOL
REMARK 927      BINDING AFFINITY PREDICTED BY RF-SCORE:    0.00 PKD
ROOT
HETATM    1  C   UNL     1      -7.864  19.090  67.221  1.00  0.00    -0.263 C  
HETATM    2  C   UNL     1      -8.085  18.105  66.088  1.00  0.00    -0.163 C  
ENDROOT
BRANCH   2   3
HETATM    3  O   UNL     1      -9.493  17.856  66.002  1.00  0.00    -0.504 OA 
BRANCH   3   4
HETATM    4  C   UNL     1      -9.856  16.580  65.716  1.00  0.00    -0.243 C  
HETATM    5  O   UNL     1     -10.687  16.235  64.885  1.00  0.00    -0.646 OA 
BRANCH   4   6
HETATM    6  C   UNL     1      -8.944  15.623  66.428  1.00  0.00    -0.362 C  
BRANCH   6   7
HETATM    7  C   UNL     1      -9.612  15.046  67.668  1.00  0.00    -0.203 C  
BRANCH   7   8
HETATM    8  S   UNL     1      -9.083  13.321  68.044  1.00  0.00    -0.206 SA 
BRANCH   8   9
HETATM    9  P   UNL     1     -10.820  12.177  68.455  1.00  0.00    -0.250 P  
HETATM   10  S   UNL     1     -11.449  12.225  66.524  1.00  0.00    -0.379 S  
BRANCH   9  11
HETATM   11  O   UNL     1      -9.938  10.814  68.795  1.00  0.00    -0.178 OA 
HETATM   12  C   UNL     1      -9.194  10.115  67.807  1.00  0.00    -0.137 C  
ENDBRANCH   9  11
BRANCH   9  13
HETATM   13  O   UNL     1     -12.238  11.243  68.789  1.00  0.00    -0.532 OA 
HETATM   14  C   UNL     1     -12.302  10.687  70.088  1.00  0.00    -0.295 C  
ENDBRANCH   9  13
ENDBRANCH   8   9
ENDBRANCH   7   8
BRANCH   7  15
HETATM   15  C   UNL     1      -9.217  15.886  68.875  1.00  0.00    -0.232 C  
HETATM   16  O   UNL     1      -9.804  16.893  69.247  1.00  0.00    -0.237 OA 
BRANCH  15  17
HETATM   17  O   UNL     1      -8.057  15.412  69.413  1.00  0.00    -0.232 OA 
BRANCH  17  18
HETATM   18  C   UNL     1      -6.953  16.325  69.368  1.00  0.00    -0.212 C  
HETATM   19  C   UNL     1      -5.884  15.719  68.476  1.00  0.00    -0.100 C  
ENDBRANCH  17  18
ENDBRANCH  15  17
ENDBRANCH   7  15
ENDBRANCH   6   7
ENDBRANCH   4   6
ENDBRANCH   3   4
ENDBRANCH   2   3
TORSDOF 11
ENDMDL
MODEL      160
REMARK 921   NORMALIZED FREE ENERGY PREDICTED BY IDOCK:   -3.46 KCAL/MOL
REMARK 922        TOTAL FREE ENERGY PREDICTED BY IDOCK:   -6.38 KCAL/MOL
REMARK 923 INTER-LIGAND FREE ENERGY PREDICTED BY IDOCK:   -5.55 KCAL/MOL
REMARK 924 INTRA-LIGAND FREE ENERGY PREDICTED BY IDOCK:   -0.82 KCAL/MOL
REMARK 927      BINDING AFFINITY PREDICTED BY RF-SCORE:    0.00 PKD
ROOT
HETATM    1  C   UNL     1     -10.235  14.931  67.564  1.00  0.00    -0.233 C  
HETATM    2  C   UNL     1     -10.370  13.734  68.489  1.00  0.00    -0.244 C  
ENDROOT
BRANCH   2   3
HETATM    3  O   UNL     1     -10.180  12.555  67.699  1.00  0.00    -0.213 OA 
BRANCH   3   4
HETATM    4  C   UNL     1     -11.292  11.819  67.450  1.00  0.00    -0.311 C  
HETATM    5  O   UNL     1     -12.109  12.024  66.561  1.00  0.00    -0.617 OA 
BRANCH   4   6
HETATM    6  C   UNL     1     -11.283  10.584  68.303  1.00  0.00    -0.354 C  
BRANCH   6   7
HETATM    7  C   UNL     1     -10.041   9.743  68.042  1.00  0.00    -0.171 C  
BRANCH   7   8
HETATM    8  S   UNL     1      -9.568   8.679  69.470  1.00  0.00    -0.172 SA 
BRANCH   8   9
HETATM    9  P   UNL     1     -11.264   8.473  70.725  1.00  0.00    -0.237 P  
HETATM   10  S   UNL     1     -11.464   6.492  70.323  1.00  0.00    -0.397 S  
BRANCH   9  11
HETATM   11  O   UNL     1     -10.379   8.749  72.100  1.00  0.00    -0.331 OA 
HETATM   12  C   UNL     1     -10.197   7.763  73.107  1.00  0.00    -0.335 C  
ENDBRANCH   9  11
BRANCH   9  13
HETATM   13  O   UNL     1     -12.648   8.303  71.749  1.00  0.00    -0.308 OA 
HETATM   14  C   UNL     1     -13.436   9.468  71.898  1.00  0.00    -0.424 C  
ENDBRANCH   9  13
ENDBRANCH   8   9
ENDBRANCH   7   8
BRANCH   7  15
HETATM   15  C   UNL     1     -10.323   8.799  66.881  1.00  0.00    -0.274 C  
HETATM   16  O   UNL     1     -10.803   7.679  66.992  1.00  0.00    -0.334 OA 
BRANCH  15  17
HETATM   17  O   UNL     1      -9.868   9.343  65.716  1.00  0.00    -0.297 OA 
BRANCH  17  18
HETATM   18  C   UNL     1      -8.552   9.907  65.786  1.00  0.00    -0.139 C  
HETATM   19  C   UNL     1      -8.065  10.130  64.366  1.00  0.00    -0.163 C  
ENDBRANCH  17  18
ENDBRANCH  15  17
ENDBRANCH   7  15
ENDBRANCH   6   7
ENDBRANCH   4   6
ENDBRANCH   3   4
ENDBRANCH   2   3
TORSDOF 11
ENDMDL
MODEL      161
REMARK 921   NORMALIZED FREE ENERGY PREDICTED BY IDOCK:   -3.44 KCAL/MOL
REMARK 922        TOTAL FREE ENERGY PREDICTED BY IDOCK:   -6.35 KCAL/MOL
REMARK 923 INTER-LIGAND FREE ENERGY PREDICTED BY IDOCK:   -5.59 KCAL/MOL
REMARK 924 INTRA-LIGAND FREE ENERGY PREDICTED BY IDOCK:   -0.76 KCAL/MOL
REMARK 927      BINDING AFFINITY PREDICTED BY RF-SCORE:    0.00 PKD
ROOT
HETATM    1  C   UNL     1     -10.559   5.610  69.639  1.00  0.00    -0.401 C  
HETATM    2  C   UNL     1     -10.711   7.120  69.699  1.00  0.00    -0.239 C  
ENDROOT
BRANCH   2   3
HETATM    3  O   UNL     1      -9.416   7.693  69.478  1.00  0.00    -0.153 OA 
BRANCH   3   4
HETATM    4  C   UNL     1      -9.397   9.001  69.123  1.00  0.00    -0.148 C  
HETATM    5  O   UNL     1      -8.404   9.656  68.832  1.00  0.00    -0.108 OA 
BRANCH   4   6
HETATM    6  C   UNL     1     -10.803   9.497  68.940  1.00  0.00    -0.177 C  
BRANCH   6   7
HETATM    7  C   UNL     1     -10.961  10.914  69.473  1.00  0.00    -0.253 C  
BRANCH   7   8
HETATM    8  S   UNL     1     -11.761  12.059  68.271  1.00  0.00    -0.307 SA 
BRANCH   8   9
HETATM    9  P   UNL     1     -10.243  13.241  67.380  1.00  0.00    -0.232 P  
HETATM   10  S   UNL     1      -9.748  11.800  66.037  1.00  0.00    -0.235 S  
BRANCH   9  11
HETATM   11  O   UNL     1     -11.337  14.325  66.766  1.00  0.00    -0.324 OA 
HETATM   12  C   UNL     1     -12.464  13.926  65.998  1.00  0.00    -0.461 C  
ENDBRANCH   9  11
BRANCH   9  13
HETATM   13  O   UNL     1      -9.004  14.205  66.653  1.00  0.00    -0.238 OA 
HETATM   14  C   UNL     1      -8.180  14.913  67.558  1.00  0.00    -0.182 C  
ENDBRANCH   9  13
ENDBRANCH   8   9
ENDBRANCH   7   8
BRANCH   7  15
HETATM   15  C   UNL     1     -11.866  10.880  70.697  1.00  0.00    -0.352 C  
HETATM   16  O   UNL     1     -12.091   9.884  71.371  1.00  0.00    -0.360 OA 
BRANCH  15  17
HETATM   17  O   UNL     1     -12.465  12.093  70.868  1.00  0.00    -0.368 OA 
BRANCH  17  18
HETATM   18  C   UNL     1     -13.318  12.190  72.015  1.00  0.00    -0.365 C  
HETATM   19  C   UNL     1     -13.419  13.655  72.398  1.00  0.00    -0.685 C  
ENDBRANCH  17  18
ENDBRANCH  15  17
ENDBRANCH   7  15
ENDBRANCH   6   7
ENDBRANCH   4   6
ENDBRANCH   3   4
ENDBRANCH   2   3
TORSDOF 11
ENDMDL
MODEL      162
REMARK 921   NORMALIZED FREE ENERGY PREDICTED BY IDOCK:   -3.43 KCAL/MOL
REMARK 922        TOTAL FREE ENERGY PREDICTED BY IDOCK:   -6.34 KCAL/MOL
REMARK 923 INTER-LIGAND FREE ENERGY PREDICTED BY IDOCK:   -5.47 KCAL/MOL
REMARK 924 INTRA-LIGAND FREE ENERGY PREDICTED BY IDOCK:   -0.87 KCAL/MOL
REMARK 927      BINDING AFFINITY PREDICTED BY RF-SCORE:    0.00 PKD
ROOT
HETATM    1  C   UNL     1     -13.083  11.449  71.651  1.00  0.00    -0.498 C  
HETATM    2  C   UNL     1     -13.135   9.937  71.787  1.00  0.00    -0.452 C  
ENDROOT
BRANCH   2   3
HETATM    3  O   UNL     1     -11.788   9.470  71.925  1.00  0.00    -0.373 OA 
BRANCH   3   4
HETATM    4  C   UNL     1     -11.508   8.281  71.336  1.00  0.00    -0.269 C  
HETATM    5  O   UNL     1     -12.203   7.273  71.377  1.00  0.00    -0.312 OA 
BRANCH   4   6
HETATM    6  C   UNL     1     -10.305   8.426  70.449  1.00  0.00    -0.219 C  
BRANCH   6   7
HETATM    7  C   UNL     1     -10.689   8.995  69.090  1.00  0.00    -0.157 C  
BRANCH   7   8
HETATM    8  S   UNL     1     -10.116  10.728  68.838  1.00  0.00    -0.207 SA 
BRANCH   8   9
HETATM    9  P   UNL     1     -11.306  11.597  67.314  1.00  0.00    -0.238 P  
HETATM   10  S   UNL     1     -11.459  13.374  68.286  1.00  0.00    -0.339 S  
BRANCH   9  11
HETATM   11  O   UNL     1     -10.058  11.584  66.221  1.00  0.00    -0.213 OA 
HETATM   12  C   UNL     1      -9.971  10.632  65.169  1.00  0.00    -0.303 C  
ENDBRANCH   9  11
BRANCH   9  13
HETATM   13  O   UNL     1     -12.277  12.307  66.071  1.00  0.00    -0.646 OA 
HETATM   14  C   UNL     1     -12.169  13.712  65.947  1.00  0.00    -0.461 C  
ENDBRANCH   9  13
ENDBRANCH   8   9
ENDBRANCH   7   8
BRANCH   7  15
HETATM   15  C   UNL     1     -10.021   8.162  68.003  1.00  0.00    -0.184 C  
HETATM   16  O   UNL     1     -10.611   7.409  67.240  1.00  0.00    -0.278 OA 
BRANCH  15  17
HETATM   17  O   UNL     1      -8.667   8.300  68.076  1.00  0.00    -0.134 OA 
BRANCH  17  18
HETATM   18  C   UNL     1      -7.918   7.182  67.584  1.00  0.00    -0.114 C  
HETATM   19  C   UNL     1      -7.135   7.646  66.369  1.00  0.00    -0.071 C  
ENDBRANCH  17  18
ENDBRANCH  15  17
ENDBRANCH   7  15
ENDBRANCH   6   7
ENDBRANCH   4   6
ENDBRANCH   3   4
ENDBRANCH   2   3
TORSDOF 11
ENDMDL
MODEL      163
REMARK 921   NORMALIZED FREE ENERGY PREDICTED BY IDOCK:   -3.43 KCAL/MOL
REMARK 922        TOTAL FREE ENERGY PREDICTED BY IDOCK:   -6.33 KCAL/MOL
REMARK 923 INTER-LIGAND FREE ENERGY PREDICTED BY IDOCK:   -5.67 KCAL/MOL
REMARK 924 INTRA-LIGAND FREE ENERGY PREDICTED BY IDOCK:   -0.66 KCAL/MOL
REMARK 927      BINDING AFFINITY PREDICTED BY RF-SCORE:    0.00 PKD
ROOT
HETATM    1  C   UNL     1     -12.097   9.536  71.249  1.00  0.00    -0.443 C  
HETATM    2  C   UNL     1     -11.481   8.908  70.011  1.00  0.00     0.033 C  
ENDROOT
BRANCH   2   3
HETATM    3  O   UNL     1     -10.733   9.927  69.337  1.00  0.00    -0.211 OA 
BRANCH   3   4
HETATM    4  C   UNL     1     -11.368  10.554  68.316  1.00  0.00    -0.264 C  
HETATM    5  O   UNL     1     -12.362  11.263  68.410  1.00  0.00    -0.545 OA 
BRANCH   4   6
HETATM    6  C   UNL     1     -10.559  10.419  67.058  1.00  0.00    -0.305 C  
BRANCH   6   7
HETATM    7  C   UNL     1     -10.791  11.599  66.125  1.00  0.00    -0.294 C  
BRANCH   7   8
HETATM    8  S   UNL     1      -9.585  12.970  66.369  1.00  0.00    -0.229 SA 
BRANCH   8   9
HETATM    9  P   UNL     1     -10.624  14.615  67.210  1.00  0.00    -0.294 P  
HETATM   10  S   UNL     1      -9.156  15.935  66.731  1.00  0.00    -0.273 S  
BRANCH   9  11
HETATM   11  O   UNL     1     -11.816  14.555  66.059  1.00  0.00    -0.373 OA 
HETATM   12  C   UNL     1     -11.574  14.841  64.688  1.00  0.00    -0.399 C  
ENDBRANCH   9  11
BRANCH   9  13
HETATM   13  O   UNL     1     -11.470  15.959  67.898  1.00  0.00    -0.299 OA 
HETATM   14  C   UNL     1     -10.680  16.839  68.672  1.00  0.00    -0.352 C  
ENDBRANCH   9  13
ENDBRANCH   8   9
ENDBRANCH   7   8
BRANCH   7  15
HETATM   15  C   UNL     1     -10.617  11.128  64.687  1.00  0.00    -0.318 C  
HETATM   16  O   UNL     1     -11.295  11.507  63.741  1.00  0.00    -0.404 OA 
BRANCH  15  17
HETATM   17  O   UNL     1      -9.668  10.150  64.628  1.00  0.00    -0.297 OA 
BRANCH  17  18
HETATM   18  C   UNL     1      -8.889  10.135  63.426  1.00  0.00    -0.231 C  
HETATM   19  C   UNL     1      -8.248   8.764  63.304  1.00  0.00    -0.176 C  
ENDBRANCH  17  18
ENDBRANCH  15  17
ENDBRANCH   7  15
ENDBRANCH   6   7
ENDBRANCH   4   6
ENDBRANCH   3   4
ENDBRANCH   2   3
TORSDOF 11
ENDMDL
MODEL      164
REMARK 921   NORMALIZED FREE ENERGY PREDICTED BY IDOCK:   -3.43 KCAL/MOL
REMARK 922        TOTAL FREE ENERGY PREDICTED BY IDOCK:   -6.33 KCAL/MOL
REMARK 923 INTER-LIGAND FREE ENERGY PREDICTED BY IDOCK:   -5.48 KCAL/MOL
REMARK 924 INTRA-LIGAND FREE ENERGY PREDICTED BY IDOCK:   -0.84 KCAL/MOL
REMARK 927      BINDING AFFINITY PREDICTED BY RF-SCORE:    0.00 PKD
ROOT
HETATM    1  C   UNL     1     -12.486  13.860  65.795  1.00  0.00    -0.530 C  
HETATM    2  C   UNL     1     -11.890  12.463  65.776  1.00  0.00    -0.406 C  
ENDROOT
BRANCH   2   3
HETATM    3  O   UNL     1     -10.627  12.524  66.449  1.00  0.00    -0.242 OA 
BRANCH   3   4
HETATM    4  C   UNL     1     -10.653  12.291  67.785  1.00  0.00    -0.219 C  
HETATM    5  O   UNL     1     -10.558  13.135  68.667  1.00  0.00    -0.249 OA 
BRANCH   4   6
HETATM    6  C   UNL     1     -11.016  10.857  68.041  1.00  0.00    -0.317 C  
BRANCH   6   7
HETATM    7  C   UNL     1      -9.786  10.030  68.387  1.00  0.00    -0.154 C  
BRANCH   7   8
HETATM    8  S   UNL     1      -9.663   9.622  70.180  1.00  0.00    -0.248 SA 
BRANCH   8   9
HETATM    9  P   UNL     1     -11.580   9.015  70.849  1.00  0.00    -0.262 P  
HETATM   10  S   UNL     1     -10.832   8.021  72.455  1.00  0.00    -0.354 S  
BRANCH   9  11
HETATM   11  O   UNL     1     -12.030  10.567  71.223  1.00  0.00    -0.345 OA 
HETATM   12  C   UNL     1     -13.218  10.869  71.942  1.00  0.00    -0.403 C  
ENDBRANCH   9  11
BRANCH   9  13
HETATM   13  O   UNL     1     -13.144   8.518  71.396  1.00  0.00    -0.303 OA 
HETATM   14  C   UNL     1     -13.269   7.143  71.702  1.00  0.00    -0.346 C  
ENDBRANCH   9  13
ENDBRANCH   8   9
ENDBRANCH   7   8
BRANCH   7  15
HETATM   15  C   UNL     1      -9.867   8.699  67.651  1.00  0.00    -0.180 C  
HETATM   16  O   UNL     1      -9.599   7.611  68.144  1.00  0.00    -0.146 OA 
BRANCH  15  17
HETATM   17  O   UNL     1     -10.179   8.909  66.341  1.00  0.00    -0.283 OA 
BRANCH  17  18
HETATM   18  C   UNL     1      -9.053   9.082  65.471  1.00  0.00    -0.214 C  
HETATM   19  C   UNL     1      -9.500   9.927  64.293  1.00  0.00    -0.280 C  
ENDBRANCH  17  18
ENDBRANCH  15  17
ENDBRANCH   7  15
ENDBRANCH   6   7
ENDBRANCH   4   6
ENDBRANCH   3   4
ENDBRANCH   2   3
TORSDOF 11
ENDMDL
MODEL      165
REMARK 921   NORMALIZED FREE ENERGY PREDICTED BY IDOCK:   -3.40 KCAL/MOL
REMARK 922        TOTAL FREE ENERGY PREDICTED BY IDOCK:   -6.28 KCAL/MOL
REMARK 923 INTER-LIGAND FREE ENERGY PREDICTED BY IDOCK:   -5.54 KCAL/MOL
REMARK 924 INTRA-LIGAND FREE ENERGY PREDICTED BY IDOCK:   -0.74 KCAL/MOL
REMARK 927      BINDING AFFINITY PREDICTED BY RF-SCORE:    0.00 PKD
ROOT
HETATM    1  C   UNL     1     -10.604  11.231  63.618  1.00  0.00    -0.453 C  
HETATM    2  C   UNL     1     -10.743  12.740  63.714  1.00  0.00    -0.361 C  
ENDROOT
BRANCH   2   3
HETATM    3  O   UNL     1     -11.802  13.017  64.638  1.00  0.00    -0.338 OA 
BRANCH   3   4
HETATM    4  C   UNL     1     -11.657  14.136  65.391  1.00  0.00    -0.334 C  
HETATM    5  O   UNL     1     -11.348  15.248  64.981  1.00  0.00    -0.374 OA 
BRANCH   4   6
HETATM    6  C   UNL     1     -12.126  13.868  66.792  1.00  0.00    -0.476 C  
BRANCH   6   7
HETATM    7  C   UNL     1     -11.050  13.167  67.609  1.00  0.00    -0.270 C  
BRANCH   7   8
HETATM    8  S   UNL     1     -10.084  14.315  68.678  1.00  0.00    -0.223 SA 
BRANCH   8   9
HETATM    9  P   UNL     1      -8.167  14.565  67.809  1.00  0.00    -0.198 P  
HETATM   10  S   UNL     1      -7.461  15.625  69.392  1.00  0.00    -0.202 S  
BRANCH   9  11
HETATM   11  O   UNL     1      -7.814  12.949  67.926  1.00  0.00    -0.124 OA 
HETATM   12  C   UNL     1      -6.798  12.446  68.783  1.00  0.00    -0.092 C  
ENDBRANCH   9  11
BRANCH   9  13
HETATM   13  O   UNL     1      -6.602  14.771  67.101  1.00  0.00    -0.253 OA 
HETATM   14  C   UNL     1      -5.824  15.818  67.647  1.00  0.00    -0.138 C  
ENDBRANCH   9  13
ENDBRANCH   8   9
ENDBRANCH   7   8
BRANCH   7  15
HETATM   15  C   UNL     1     -11.717  12.169  68.546  1.00  0.00    -0.330 C  
HETATM   16  O   UNL     1     -11.985  12.386  69.720  1.00  0.00    -0.312 OA 
BRANCH  15  17
HETATM   17  O   UNL     1     -11.875  10.971  67.915  1.00  0.00    -0.600 OA 
BRANCH  17  18
HETATM   18  C   UNL     1     -10.793  10.048  68.089  1.00  0.00    -0.255 C  
HETATM   19  C   UNL     1     -10.604   9.300  66.781  1.00  0.00    -0.207 C  
ENDBRANCH  17  18
ENDBRANCH  15  17
ENDBRANCH   7  15
ENDBRANCH   6   7
ENDBRANCH   4   6
ENDBRANCH   3   4
ENDBRANCH   2   3
TORSDOF 11
ENDMDL
MODEL      166
REMARK 921   NORMALIZED FREE ENERGY PREDICTED BY IDOCK:   -3.39 KCAL/MOL
REMARK 922        TOTAL FREE ENERGY PREDICTED BY IDOCK:   -6.27 KCAL/MOL
REMARK 923 INTER-LIGAND FREE ENERGY PREDICTED BY IDOCK:   -5.57 KCAL/MOL
REMARK 924 INTRA-LIGAND FREE ENERGY PREDICTED BY IDOCK:   -0.70 KCAL/MOL
REMARK 927      BINDING AFFINITY PREDICTED BY RF-SCORE:    0.00 PKD
ROOT
HETATM    1  C   UNL     1      -5.708  12.028  67.950  1.00  0.00    -0.059 C  
HETATM    2  C   UNL     1      -6.900  11.525  67.155  1.00  0.00    -0.139 C  
ENDROOT
BRANCH   2   3
HETATM    3  O   UNL     1      -8.036  11.538  68.028  1.00  0.00    -0.123 OA 
BRANCH   3   4
HETATM    4  C   UNL     1      -9.184  12.035  67.504  1.00  0.00    -0.180 C  
HETATM    5  O   UNL     1     -10.067  11.388  66.956  1.00  0.00    -0.201 OA 
BRANCH   4   6
HETATM    6  C   UNL     1      -9.318  13.486  67.867  1.00  0.00    -0.215 C  
BRANCH   6   7
HETATM    7  C   UNL     1     -10.780  13.905  67.930  1.00  0.00    -0.240 C  
BRANCH   7   8
HETATM    8  S   UNL     1     -11.122  15.161  69.233  1.00  0.00    -0.293 SA 
BRANCH   8   9
HETATM    9  P   UNL     1     -12.565  14.355  70.560  1.00  0.00    -0.297 P  
HETATM   10  S   UNL     1     -12.100  12.436  70.084  1.00  0.00    -0.215 S  
BRANCH   9  11
HETATM   11  O   UNL     1     -11.748  14.887  71.901  1.00  0.00    -0.371 OA 
HETATM   12  C   UNL     1     -12.264  15.888  72.767  1.00  0.00    -0.500 C  
ENDBRANCH   9  11
BRANCH   9  13
HETATM   13  O   UNL     1     -13.744  13.696  71.642  1.00  0.00    -0.331 OA 
HETATM   14  C   UNL     1     -13.526  12.352  72.026  1.00  0.00    -0.360 C  
ENDBRANCH   9  13
ENDBRANCH   8   9
ENDBRANCH   7   8
BRANCH   7  15
HETATM   15  C   UNL     1     -11.163  14.550  66.604  1.00  0.00    -0.346 C  
HETATM   16  O   UNL     1     -10.745  15.629  66.206  1.00  0.00    -0.308 OA 
BRANCH  15  17
HETATM   17  O   UNL     1     -12.115  13.800  65.979  1.00  0.00    -0.385 OA 
BRANCH  17  18
HETATM   18  C   UNL     1     -12.088  13.859  64.548  1.00  0.00    -0.443 C  
HETATM   19  C   UNL     1     -12.129  12.436  64.022  1.00  0.00    -0.563 C  
ENDBRANCH  17  18
ENDBRANCH  15  17
ENDBRANCH   7  15
ENDBRANCH   6   7
ENDBRANCH   4   6
ENDBRANCH   3   4
ENDBRANCH   2   3
TORSDOF 11
ENDMDL
MODEL      167
REMARK 921   NORMALIZED FREE ENERGY PREDICTED BY IDOCK:   -3.39 KCAL/MOL
REMARK 922        TOTAL FREE ENERGY PREDICTED BY IDOCK:   -6.26 KCAL/MOL
REMARK 923 INTER-LIGAND FREE ENERGY PREDICTED BY IDOCK:   -5.69 KCAL/MOL
REMARK 924 INTRA-LIGAND FREE ENERGY PREDICTED BY IDOCK:   -0.57 KCAL/MOL
REMARK 927      BINDING AFFINITY PREDICTED BY RF-SCORE:    0.00 PKD
ROOT
HETATM    1  C   UNL     1      -8.817  18.791  66.300  1.00  0.00    -0.242 C  
HETATM    2  C   UNL     1      -8.760  17.401  66.910  1.00  0.00    -0.246 C  
ENDROOT
BRANCH   2   3
HETATM    3  O   UNL     1      -8.862  16.456  65.839  1.00  0.00    -0.432 OA 
BRANCH   3   4
HETATM    4  C   UNL     1     -10.024  15.762  65.765  1.00  0.00    -0.358 C  
HETATM    5  O   UNL     1     -10.871  15.861  64.885  1.00  0.00    -0.474 OA 
BRANCH   4   6
HETATM    6  C   UNL     1     -10.045  14.696  66.822  1.00  0.00    -0.266 C  
BRANCH   6   7
HETATM    7  C   UNL     1     -11.413  14.599  67.482  1.00  0.00    -0.361 C  
BRANCH   7   8
HETATM    8  S   UNL     1     -11.773  12.929  68.172  1.00  0.00    -0.346 SA 
BRANCH   8   9
HETATM    9  P   UNL     1      -9.981  11.798  68.122  1.00  0.00    -0.201 P  
HETATM   10  S   UNL     1     -10.619  10.508  69.556  1.00  0.00    -0.237 S  
BRANCH   9  11
HETATM   11  O   UNL     1     -10.284  11.236  66.591  1.00  0.00    -0.214 OA 
HETATM   12  C   UNL     1     -10.175   9.863  66.242  1.00  0.00    -0.211 C  
ENDBRANCH   9  11
BRANCH   9  13
HETATM   13  O   UNL     1      -8.519  10.874  68.082  1.00  0.00    -0.121 OA 
HETATM   14  C   UNL     1      -7.373  11.534  68.584  1.00  0.00    -0.106 C  
ENDBRANCH   9  13
ENDBRANCH   8   9
ENDBRANCH   7   8
BRANCH   7  15
HETATM   15  C   UNL     1     -11.461  15.567  68.657  1.00  0.00    -0.359 C  
HETATM   16  O   UNL     1     -11.372  16.783  68.563  1.00  0.00    -0.268 OA 
BRANCH  15  17
HETATM   17  O   UNL     1     -11.512  14.873  69.830  1.00  0.00    -0.264 OA 
BRANCH  17  18
HETATM   18  C   UNL     1     -11.771  15.670  70.992  1.00  0.00    -0.403 C  
HETATM   19  C   UNL     1     -13.209  15.428  71.412  1.00  0.00    -0.578 C  
ENDBRANCH  17  18
ENDBRANCH  15  17
ENDBRANCH   7  15
ENDBRANCH   6   7
ENDBRANCH   4   6
ENDBRANCH   3   4
ENDBRANCH   2   3
TORSDOF 11
ENDMDL
MODEL      168
REMARK 921   NORMALIZED FREE ENERGY PREDICTED BY IDOCK:   -3.38 KCAL/MOL
REMARK 922        TOTAL FREE ENERGY PREDICTED BY IDOCK:   -6.25 KCAL/MOL
REMARK 923 INTER-LIGAND FREE ENERGY PREDICTED BY IDOCK:   -5.45 KCAL/MOL
REMARK 924 INTRA-LIGAND FREE ENERGY PREDICTED BY IDOCK:   -0.80 KCAL/MOL
REMARK 927      BINDING AFFINITY PREDICTED BY RF-SCORE:    0.00 PKD
ROOT
HETATM    1  C   UNL     1     -10.849   8.958  71.812  1.00  0.00    -0.436 C  
HETATM    2  C   UNL     1     -11.574   9.977  70.951  1.00  0.00    -0.378 C  
ENDROOT
BRANCH   2   3
HETATM    3  O   UNL     1     -10.721  10.291  69.844  1.00  0.00    -0.262 OA 
BRANCH   3   4
HETATM    4  C   UNL     1     -11.345  10.617  68.685  1.00  0.00    -0.281 C  
HETATM    5  O   UNL     1     -12.406  11.221  68.580  1.00  0.00    -0.534 OA 
BRANCH   4   6
HETATM    6  C   UNL     1     -10.449  10.304  67.522  1.00  0.00    -0.293 C  
BRANCH   6   7
HETATM    7  C   UNL     1     -10.445  11.439  66.508  1.00  0.00    -0.249 C  
BRANCH   7   8
HETATM    8  S   UNL     1      -9.488  12.911  67.066  1.00  0.00    -0.241 SA 
BRANCH   8   9
HETATM    9  P   UNL     1     -10.233  14.608  66.035  1.00  0.00    -0.348 P  
HETATM   10  S   UNL     1     -12.111  13.846  65.901  1.00  0.00    -0.459 S  
BRANCH   9  11
HETATM   11  O   UNL     1     -10.046  15.592  67.357  1.00  0.00    -0.241 OA 
HETATM   12  C   UNL     1      -9.565  16.926  67.258  1.00  0.00    -0.246 C  
ENDBRANCH   9  11
BRANCH   9  13
HETATM   13  O   UNL     1     -10.842  15.991  65.194  1.00  0.00    -0.418 OA 
HETATM   14  C   UNL     1     -11.787  15.714  64.179  1.00  0.00    -0.068 C  
ENDBRANCH   9  13
ENDBRANCH   8   9
ENDBRANCH   7   8
BRANCH   7  15
HETATM   15  C   UNL     1      -9.774  10.953  65.230  1.00  0.00    -0.246 C  
HETATM   16  O   UNL     1     -10.369  10.600  64.220  1.00  0.00    -0.360 OA 
BRANCH  15  17
HETATM   17  O   UNL     1      -8.425  10.871  65.413  1.00  0.00    -0.163 OA 
BRANCH  17  18
HETATM   18  C   UNL     1      -7.777   9.824  64.680  1.00  0.00    -0.136 C  
HETATM   19  C   UNL     1      -7.688   8.609  65.585  1.00  0.00    -0.091 C  
ENDBRANCH  17  18
ENDBRANCH  15  17
ENDBRANCH   7  15
ENDBRANCH   6   7
ENDBRANCH   4   6
ENDBRANCH   3   4
ENDBRANCH   2   3
TORSDOF 11
ENDMDL
MODEL      169
REMARK 921   NORMALIZED FREE ENERGY PREDICTED BY IDOCK:   -3.37 KCAL/MOL
REMARK 922        TOTAL FREE ENERGY PREDICTED BY IDOCK:   -6.24 KCAL/MOL
REMARK 923 INTER-LIGAND FREE ENERGY PREDICTED BY IDOCK:   -5.30 KCAL/MOL
REMARK 924 INTRA-LIGAND FREE ENERGY PREDICTED BY IDOCK:   -0.94 KCAL/MOL
REMARK 927      BINDING AFFINITY PREDICTED BY RF-SCORE:    0.00 PKD
ROOT
HETATM    1  C   UNL     1     -11.810  15.254  72.250  1.00  0.00    -0.529 C  
HETATM    2  C   UNL     1     -12.368  14.635  70.981  1.00  0.00    -0.333 C  
ENDROOT
BRANCH   2   3
HETATM    3  O   UNL     1     -12.177  15.579  69.921  1.00  0.00    -0.355 OA 
BRANCH   3   4
HETATM    4  C   UNL     1     -11.570  15.105  68.804  1.00  0.00    -0.349 C  
HETATM    5  O   UNL     1     -12.122  14.815  67.750  1.00  0.00    -0.288 OA 
BRANCH   4   6
HETATM    6  C   UNL     1     -10.080  15.172  68.972  1.00  0.00    -0.244 C  
BRANCH   6   7
HETATM    7  C   UNL     1      -9.362  14.572  67.771  1.00  0.00    -0.198 C  
BRANCH   7   8
HETATM    8  S   UNL     1      -8.249  15.765  66.917  1.00  0.00    -0.271 SA 
BRANCH   8   9
HETATM    9  P   UNL     1      -8.147  17.527  68.092  1.00  0.00    -0.264 P  
HETATM   10  S   UNL     1      -6.218  17.897  67.578  1.00  0.00    -0.161 S  
BRANCH   9  11
HETATM   11  O   UNL     1      -9.223  18.333  67.121  1.00  0.00    -0.257 OA 
HETATM   12  C   UNL     1     -10.484  18.792  67.590  1.00  0.00    -0.435 C  
ENDBRANCH   9  11
BRANCH   9  13
HETATM   13  O   UNL     1      -8.063  18.964  69.052  1.00  0.00    -0.280 OA 
HETATM   14  C   UNL     1      -7.024  19.859  68.710  1.00  0.00    -0.316 C  
ENDBRANCH   9  13
ENDBRANCH   8   9
ENDBRANCH   7   8
BRANCH   7  15
HETATM   15  C   UNL     1      -8.477  13.429  68.249  1.00  0.00    -0.166 C  
HETATM   16  O   UNL     1      -7.350  13.563  68.706  1.00  0.00    -0.105 OA 
BRANCH  15  17
HETATM   17  O   UNL     1      -9.082  12.233  67.996  1.00  0.00    -0.178 OA 
BRANCH  17  18
HETATM   18  C   UNL     1      -9.776  12.160  66.745  1.00  0.00    -0.207 C  
HETATM   19  C   UNL     1     -11.082  11.422  66.979  1.00  0.00    -0.364 C  
ENDBRANCH  17  18
ENDBRANCH  15  17
ENDBRANCH   7  15
ENDBRANCH   6   7
ENDBRANCH   4   6
ENDBRANCH   3   4
ENDBRANCH   2   3
TORSDOF 11
ENDMDL
MODEL      170
REMARK 921   NORMALIZED FREE ENERGY PREDICTED BY IDOCK:   -3.37 KCAL/MOL
REMARK 922        TOTAL FREE ENERGY PREDICTED BY IDOCK:   -6.23 KCAL/MOL
REMARK 923 INTER-LIGAND FREE ENERGY PREDICTED BY IDOCK:   -5.37 KCAL/MOL
REMARK 924 INTRA-LIGAND FREE ENERGY PREDICTED BY IDOCK:   -0.86 KCAL/MOL
REMARK 927      BINDING AFFINITY PREDICTED BY RF-SCORE:    0.00 PKD
ROOT
HETATM    1  C   UNL     1      -9.835   5.382  69.547  1.00  0.00    -0.264 C  
HETATM    2  C   UNL     1      -8.744   6.237  68.925  1.00  0.00    -0.125 C  
ENDROOT
BRANCH   2   3
HETATM    3  O   UNL     1      -9.359   7.065  67.932  1.00  0.00    -0.125 OA 
BRANCH   3   4
HETATM    4  C   UNL     1      -8.649   8.152  67.541  1.00  0.00    -0.129 C  
HETATM    5  O   UNL     1      -7.448   8.328  67.704  1.00  0.00    -0.091 OA 
BRANCH   4   6
HETATM    6  C   UNL     1      -9.511   9.041  66.692  1.00  0.00    -0.251 C  
BRANCH   6   7
HETATM    7  C   UNL     1     -10.564   9.752  67.531  1.00  0.00    -0.275 C  
BRANCH   7   8
HETATM    8  S   UNL     1      -9.984  10.165  69.230  1.00  0.00    -0.231 SA 
BRANCH   8   9
HETATM    9  P   UNL     1     -11.317   9.269  70.614  1.00  0.00    -0.271 P  
HETATM   10  S   UNL     1      -9.815   8.613  71.813  1.00  0.00    -0.317 S  
BRANCH   9  11
HETATM   11  O   UNL     1     -11.920  10.734  71.104  1.00  0.00    -0.329 OA 
HETATM   12  C   UNL     1     -13.189  10.871  71.729  1.00  0.00    -0.408 C  
ENDBRANCH   9  11
BRANCH   9  13
HETATM   13  O   UNL     1     -12.404   8.537  71.743  1.00  0.00    -0.302 OA 
HETATM   14  C   UNL     1     -12.725   7.184  71.484  1.00  0.00    -0.393 C  
ENDBRANCH   9  13
ENDBRANCH   8   9
ENDBRANCH   7   8
BRANCH   7  15
HETATM   15  C   UNL     1     -10.910  11.077  66.864  1.00  0.00    -0.269 C  
HETATM   16  O   UNL     1     -10.310  11.557  65.911  1.00  0.00    -0.232 OA 
BRANCH  15  17
HETATM   17  O   UNL     1     -11.915  11.695  67.548  1.00  0.00    -0.622 OA 
BRANCH  17  18
HETATM   18  C   UNL     1     -11.834  13.125  67.580  1.00  0.00    -0.359 C  
HETATM   19  C   UNL     1     -11.946  13.565  69.028  1.00  0.00    -0.376 C  
ENDBRANCH  17  18
ENDBRANCH  15  17
ENDBRANCH   7  15
ENDBRANCH   6   7
ENDBRANCH   4   6
ENDBRANCH   3   4
ENDBRANCH   2   3
TORSDOF 11
ENDMDL
MODEL      171
REMARK 921   NORMALIZED FREE ENERGY PREDICTED BY IDOCK:   -3.36 KCAL/MOL
REMARK 922        TOTAL FREE ENERGY PREDICTED BY IDOCK:   -6.21 KCAL/MOL
REMARK 923 INTER-LIGAND FREE ENERGY PREDICTED BY IDOCK:   -5.56 KCAL/MOL
REMARK 924 INTRA-LIGAND FREE ENERGY PREDICTED BY IDOCK:   -0.65 KCAL/MOL
REMARK 927      BINDING AFFINITY PREDICTED BY RF-SCORE:    0.00 PKD
ROOT
HETATM    1  C   UNL     1     -10.939   7.864  72.768  1.00  0.00    -0.456 C  
HETATM    2  C   UNL     1     -11.974   8.605  71.941  1.00  0.00    -0.356 C  
ENDROOT
BRANCH   2   3
HETATM    3  O   UNL     1     -11.370   9.822  71.486  1.00  0.00    -0.367 OA 
BRANCH   3   4
HETATM    4  C   UNL     1     -11.549  10.122  70.175  1.00  0.00    -0.277 C  
HETATM    5  O   UNL     1     -12.259  11.015  69.729  1.00  0.00    -0.326 OA 
BRANCH   4   6
HETATM    6  C   UNL     1     -10.591   9.325  69.339  1.00  0.00    -0.234 C  
BRANCH   6   7
HETATM    7  C   UNL     1     -10.699   9.701  67.868  1.00  0.00    -0.247 C  
BRANCH   7   8
HETATM    8  S   UNL     1      -9.663  11.153  67.409  1.00  0.00    -0.174 SA 
BRANCH   8   9
HETATM    9  P   UNL     1     -10.729  12.294  65.975  1.00  0.00    -0.285 P  
HETATM   10  S   UNL     1      -9.850  14.036  66.538  1.00  0.00    -0.298 S  
BRANCH   9  11
HETATM   11  O   UNL     1      -9.945  11.576  64.702  1.00  0.00    -0.242 OA 
HETATM   12  C   UNL     1     -10.347  11.758  63.352  1.00  0.00    -0.439 C  
ENDBRANCH   9  11
BRANCH   9  13
HETATM   13  O   UNL     1     -11.599  13.226  64.805  1.00  0.00    -0.312 OA 
HETATM   14  C   UNL     1     -12.605  14.069  65.331  1.00  0.00    -0.505 C  
ENDBRANCH   9  13
ENDBRANCH   8   9
ENDBRANCH   7   8
BRANCH   7  15
HETATM   15  C   UNL     1     -10.198   8.535  67.025  1.00  0.00    -0.301 C  
HETATM   16  O   UNL     1     -10.788   7.472  66.884  1.00  0.00    -0.345 OA 
BRANCH  15  17
HETATM   17  O   UNL     1      -8.955   8.812  66.539  1.00  0.00    -0.133 OA 
BRANCH  17  18
HETATM   18  C   UNL     1      -8.290   7.706  65.916  1.00  0.00    -0.139 C  
HETATM   19  C   UNL     1      -8.102   8.044  64.448  1.00  0.00    -0.123 C  
ENDBRANCH  17  18
ENDBRANCH  15  17
ENDBRANCH   7  15
ENDBRANCH   6   7
ENDBRANCH   4   6
ENDBRANCH   3   4
ENDBRANCH   2   3
TORSDOF 11
ENDMDL
MODEL      172
REMARK 921   NORMALIZED FREE ENERGY PREDICTED BY IDOCK:   -3.35 KCAL/MOL
REMARK 922        TOTAL FREE ENERGY PREDICTED BY IDOCK:   -6.20 KCAL/MOL
REMARK 923 INTER-LIGAND FREE ENERGY PREDICTED BY IDOCK:   -5.60 KCAL/MOL
REMARK 924 INTRA-LIGAND FREE ENERGY PREDICTED BY IDOCK:   -0.59 KCAL/MOL
REMARK 927      BINDING AFFINITY PREDICTED BY RF-SCORE:    0.00 PKD
ROOT
HETATM    1  C   UNL     1     -10.334   5.175  66.738  1.00  0.00    -0.306 C  
HETATM    2  C   UNL     1     -11.029   6.441  67.209  1.00  0.00    -0.392 C  
ENDROOT
BRANCH   2   3
HETATM    3  O   UNL     1     -10.111   7.150  68.049  1.00  0.00    -0.156 OA 
BRANCH   3   4
HETATM    4  C   UNL     1     -10.551   7.442  69.298  1.00  0.00    -0.213 C  
HETATM    5  O   UNL     1     -11.417   6.838  69.919  1.00  0.00    -0.323 OA 
BRANCH   4   6
HETATM    6  C   UNL     1      -9.680   8.503  69.906  1.00  0.00    -0.179 C  
BRANCH   6   7
HETATM    7  C   UNL     1     -10.383   9.853  69.918  1.00  0.00    -0.258 C  
BRANCH   7   8
HETATM    8  S   UNL     1     -11.334  10.193  68.378  1.00  0.00    -0.016 SA 
BRANCH   8   9
HETATM    9  P   UNL     1     -10.841  12.147  67.719  1.00  0.00    -0.253 P  
HETATM   10  S   UNL     1      -9.145  11.531  66.788  1.00  0.00    -0.186 S  
BRANCH   9  11
HETATM   11  O   UNL     1     -12.138  12.213  66.688  1.00  0.00    -0.622 OA 
HETATM   12  C   UNL     1     -11.993  12.364  65.282  1.00  0.00    -0.404 C  
ENDBRANCH   9  11
BRANCH   9  13
HETATM   13  O   UNL     1     -10.438  13.742  67.183  1.00  0.00    -0.269 OA 
HETATM   14  C   UNL     1     -11.094  14.793  67.864  1.00  0.00    -0.293 C  
ENDBRANCH   9  13
ENDBRANCH   8   9
ENDBRANCH   7   8
BRANCH   7  15
HETATM   15  C   UNL     1     -11.395   9.869  71.057  1.00  0.00    -0.386 C  
HETATM   16  O   UNL     1     -11.248   9.298  72.129  1.00  0.00    -0.272 OA 
BRANCH  15  17
HETATM   17  O   UNL     1     -12.526  10.523  70.666  1.00  0.00    -0.317 OA 
BRANCH  17  18
HETATM   18  C   UNL     1     -13.053  11.445  71.628  1.00  0.00    -0.393 C  
HETATM   19  C   UNL     1     -12.685  12.847  71.178  1.00  0.00    -0.366 C  
ENDBRANCH  17  18
ENDBRANCH  15  17
ENDBRANCH   7  15
ENDBRANCH   6   7
ENDBRANCH   4   6
ENDBRANCH   3   4
ENDBRANCH   2   3
TORSDOF 11
ENDMDL
MODEL      173
REMARK 921   NORMALIZED FREE ENERGY PREDICTED BY IDOCK:   -3.34 KCAL/MOL
REMARK 922        TOTAL FREE ENERGY PREDICTED BY IDOCK:   -6.19 KCAL/MOL
REMARK 923 INTER-LIGAND FREE ENERGY PREDICTED BY IDOCK:   -5.54 KCAL/MOL
REMARK 924 INTRA-LIGAND FREE ENERGY PREDICTED BY IDOCK:   -0.65 KCAL/MOL
REMARK 927      BINDING AFFINITY PREDICTED BY RF-SCORE:    0.00 PKD
ROOT
HETATM    1  C   UNL     1     -11.663  13.261  63.842  1.00  0.00    -0.486 C  
HETATM    2  C   UNL     1     -11.706  11.972  64.644  1.00  0.00    -0.287 C  
ENDROOT
BRANCH   2   3
HETATM    3  O   UNL     1     -12.378  12.254  65.877  1.00  0.00    -0.618 OA 
BRANCH   3   4
HETATM    4  C   UNL     1     -11.585  12.388  66.970  1.00  0.00    -0.365 C  
HETATM    5  O   UNL     1     -11.341  13.433  67.561  1.00  0.00    -0.273 OA 
BRANCH   4   6
HETATM    6  C   UNL     1     -11.198  11.032  67.483  1.00  0.00    -0.372 C  
BRANCH   6   7
HETATM    7  C   UNL     1      -9.698  10.803  67.359  1.00  0.00    -0.171 C  
BRANCH   7   8
HETATM    8  S   UNL     1      -8.951  10.035  68.857  1.00  0.00    -0.161 SA 
BRANCH   8   9
HETATM    9  P   UNL     1     -10.363   8.682  69.675  1.00  0.00    -0.214 P  
HETATM   10  S   UNL     1      -8.943   7.314  70.162  1.00  0.00    -0.148 S  
BRANCH   9  11
HETATM   11  O   UNL     1     -10.721   9.695  70.939  1.00  0.00    -0.302 OA 
HETATM   12  C   UNL     1     -12.052  10.068  71.270  1.00  0.00    -0.394 C  
ENDBRANCH   9  11
BRANCH   9  13
HETATM   13  O   UNL     1     -11.515   7.577  70.342  1.00  0.00    -0.269 OA 
HETATM   14  C   UNL     1     -11.364   6.230  69.940  1.00  0.00    -0.434 C  
ENDBRANCH   9  13
ENDBRANCH   8   9
ENDBRANCH   7   8
BRANCH   7  15
HETATM   15  C   UNL     1      -9.443   9.836  66.210  1.00  0.00    -0.195 C  
HETATM   16  O   UNL     1      -9.886   8.697  66.145  1.00  0.00    -0.262 OA 
BRANCH  15  17
HETATM   17  O   UNL     1      -8.568  10.388  65.322  1.00  0.00    -0.164 OA 
BRANCH  17  18
HETATM   18  C   UNL     1      -8.185   9.531  64.239  1.00  0.00    -0.157 C  
HETATM   19  C   UNL     1      -8.932   9.986  62.999  1.00  0.00    -0.272 C  
ENDBRANCH  17  18
ENDBRANCH  15  17
ENDBRANCH   7  15
ENDBRANCH   6   7
ENDBRANCH   4   6
ENDBRANCH   3   4
ENDBRANCH   2   3
TORSDOF 11
ENDMDL
MODEL      174
REMARK 921   NORMALIZED FREE ENERGY PREDICTED BY IDOCK:   -3.34 KCAL/MOL
REMARK 922        TOTAL FREE ENERGY PREDICTED BY IDOCK:   -6.19 KCAL/MOL
REMARK 923 INTER-LIGAND FREE ENERGY PREDICTED BY IDOCK:   -5.33 KCAL/MOL
REMARK 924 INTRA-LIGAND FREE ENERGY PREDICTED BY IDOCK:   -0.86 KCAL/MOL
REMARK 927      BINDING AFFINITY PREDICTED BY RF-SCORE:    0.00 PKD
ROOT
HETATM    1  C   UNL     1      -6.918  12.416  68.554  1.00  0.00    -0.092 C  
HETATM    2  C   UNL     1      -6.528  13.849  68.238  1.00  0.00    -0.111 C  
ENDROOT
BRANCH   2   3
HETATM    3  O   UNL     1      -7.723  14.639  68.272  1.00  0.00    -0.110 OA 
BRANCH   3   4
HETATM    4  C   UNL     1      -7.616  15.854  68.866  1.00  0.00    -0.190 C  
HETATM    5  O   UNL     1      -6.585  16.365  69.284  1.00  0.00    -0.181 OA 
BRANCH   4   6
HETATM    6  C   UNL     1      -8.924  16.583  68.763  1.00  0.00    -0.250 C  
BRANCH   6   7
HETATM    7  C   UNL     1      -9.865  15.893  67.786  1.00  0.00    -0.222 C  
BRANCH   7   8
HETATM    8  S   UNL     1     -11.632  15.965  68.301  1.00  0.00    -0.181 SA 
BRANCH   8   9
HETATM    9  P   UNL     1     -12.012  14.315  69.577  1.00  0.00    -0.324 P  
HETATM   10  S   UNL     1     -10.852  13.055  68.484  1.00  0.00    -0.264 S  
BRANCH   9  11
HETATM   11  O   UNL     1     -11.183  14.998  70.840  1.00  0.00    -0.281 OA 
HETATM   12  C   UNL     1     -11.783  15.252  72.103  1.00  0.00    -0.448 C  
ENDBRANCH   9  11
BRANCH   9  13
HETATM   13  O   UNL     1     -12.322  12.967  70.617  1.00  0.00    -0.356 OA 
HETATM   14  C   UNL     1     -12.101  11.695  70.040  1.00  0.00    -0.319 C  
ENDBRANCH   9  13
ENDBRANCH   8   9
ENDBRANCH   7   8
BRANCH   7  15
HETATM   15  C   UNL     1      -9.783  16.603  66.441  1.00  0.00    -0.286 C  
HETATM   16  O   UNL     1     -10.024  16.082  65.360  1.00  0.00    -0.445 OA 
BRANCH  15  17
HETATM   17  O   UNL     1      -9.305  17.869  66.610  1.00  0.00    -0.270 OA 
BRANCH  17  18
HETATM   18  C   UNL     1     -10.177  18.911  66.155  1.00  0.00    -0.433 C  
HETATM   19  C   UNL     1     -10.701  19.645  67.375  1.00  0.00    -0.563 C  
ENDBRANCH  17  18
ENDBRANCH  15  17
ENDBRANCH   7  15
ENDBRANCH   6   7
ENDBRANCH   4   6
ENDBRANCH   3   4
ENDBRANCH   2   3
TORSDOF 11
ENDMDL
MODEL      175
REMARK 921   NORMALIZED FREE ENERGY PREDICTED BY IDOCK:   -3.33 KCAL/MOL
REMARK 922        TOTAL FREE ENERGY PREDICTED BY IDOCK:   -6.16 KCAL/MOL
REMARK 923 INTER-LIGAND FREE ENERGY PREDICTED BY IDOCK:   -5.25 KCAL/MOL
REMARK 924 INTRA-LIGAND FREE ENERGY PREDICTED BY IDOCK:   -0.92 KCAL/MOL
REMARK 927      BINDING AFFINITY PREDICTED BY RF-SCORE:    0.00 PKD
ROOT
HETATM    1  C   UNL     1      -7.215  11.834  68.627  1.00  0.00    -0.112 C  
HETATM    2  C   UNL     1      -7.029  13.237  68.076  1.00  0.00    -0.120 C  
ENDROOT
BRANCH   2   3
HETATM    3  O   UNL     1      -8.074  14.054  68.615  1.00  0.00    -0.140 OA 
BRANCH   3   4
HETATM    4  C   UNL     1      -7.681  15.213  69.201  1.00  0.00    -0.195 C  
HETATM    5  O   UNL     1      -6.562  15.462  69.631  1.00  0.00    -0.156 OA 
BRANCH   4   6
HETATM    6  C   UNL     1      -8.769  16.239  69.072  1.00  0.00    -0.246 C  
BRANCH   6   7
HETATM    7  C   UNL     1      -9.359  16.244  67.669  1.00  0.00    -0.218 C  
BRANCH   7   8
HETATM    8  S   UNL     1     -11.200  16.174  67.652  1.00  0.00    -0.065 SA 
BRANCH   8   9
HETATM    9  P   UNL     1     -11.779  14.259  66.949  1.00  0.00    -0.415 P  
HETATM   10  S   UNL     1     -10.444  14.289  65.419  1.00  0.00    -0.389 S  
BRANCH   9  11
HETATM   11  O   UNL     1     -11.178  13.496  68.294  1.00  0.00    -0.248 OA 
HETATM   12  C   UNL     1     -11.939  12.565  69.051  1.00  0.00    -0.233 C  
ENDBRANCH   9  11
BRANCH   9  13
HETATM   13  O   UNL     1     -12.251  12.697  66.375  1.00  0.00    -0.550 OA 
HETATM   14  C   UNL     1     -12.518  12.618  64.989  1.00  0.00    -0.487 C  
ENDBRANCH   9  13
ENDBRANCH   8   9
ENDBRANCH   7   8
BRANCH   7  15
HETATM   15  C   UNL     1      -8.975  17.546  66.978  1.00  0.00    -0.240 C  
HETATM   16  O   UNL     1      -8.701  17.652  65.791  1.00  0.00    -0.511 OA 
BRANCH  15  17
HETATM   17  O   UNL     1      -8.880  18.550  67.897  1.00  0.00    -0.274 OA 
BRANCH  17  18
HETATM   18  C   UNL     1      -9.271  19.843  67.421  1.00  0.00    -0.351 C  
HETATM   19  C   UNL     1     -10.729  20.052  67.787  1.00  0.00    -0.295 C  
ENDBRANCH  17  18
ENDBRANCH  15  17
ENDBRANCH   7  15
ENDBRANCH   6   7
ENDBRANCH   4   6
ENDBRANCH   3   4
ENDBRANCH   2   3
TORSDOF 11
ENDMDL
MODEL      176
REMARK 921   NORMALIZED FREE ENERGY PREDICTED BY IDOCK:   -3.33 KCAL/MOL
REMARK 922        TOTAL FREE ENERGY PREDICTED BY IDOCK:   -6.16 KCAL/MOL
REMARK 923 INTER-LIGAND FREE ENERGY PREDICTED BY IDOCK:   -5.23 KCAL/MOL
REMARK 924 INTRA-LIGAND FREE ENERGY PREDICTED BY IDOCK:   -0.93 KCAL/MOL
REMARK 927      BINDING AFFINITY PREDICTED BY RF-SCORE:    0.00 PKD
ROOT
HETATM    1  C   UNL     1     -11.280  12.015  65.097  1.00  0.00    -0.368 C  
HETATM    2  C   UNL     1     -11.107  13.358  64.410  1.00  0.00    -0.388 C  
ENDROOT
BRANCH   2   3
HETATM    3  O   UNL     1     -10.154  14.111  65.170  1.00  0.00    -0.364 OA 
BRANCH   3   4
HETATM    4  C   UNL     1     -10.662  15.085  65.965  1.00  0.00    -0.326 C  
HETATM    5  O   UNL     1     -11.598  14.966  66.746  1.00  0.00    -0.344 OA 
BRANCH   4   6
HETATM    6  C   UNL     1      -9.781  16.300  65.901  1.00  0.00    -0.354 C  
BRANCH   6   7
HETATM    7  C   UNL     1     -10.283  17.393  66.834  1.00  0.00    -0.322 C  
BRANCH   7   8
HETATM    8  S   UNL     1      -9.474  17.367  68.489  1.00  0.00    -0.302 SA 
BRANCH   8   9
HETATM    9  P   UNL     1      -7.938  15.907  68.446  1.00  0.00    -0.164 P  
HETATM   10  S   UNL     1      -6.594  17.127  69.358  1.00  0.00    -0.181 S  
BRANCH   9  11
HETATM   11  O   UNL     1      -8.730  14.926  69.523  1.00  0.00    -0.109 OA 
HETATM   12  C   UNL     1     -10.126  15.026  69.768  1.00  0.00    -0.087 C  
ENDBRANCH   9  11
BRANCH   9  13
HETATM   13  O   UNL     1      -6.683  14.717  68.411  1.00  0.00    -0.088 OA 
HETATM   14  C   UNL     1      -6.969  13.559  67.650  1.00  0.00    -0.167 C  
ENDBRANCH   9  13
ENDBRANCH   8   9
ENDBRANCH   7   8
BRANCH   7  15
HETATM   15  C   UNL     1      -9.957  18.749  66.220  1.00  0.00    -0.385 C  
HETATM   16  O   UNL     1     -10.546  19.245  65.270  1.00  0.00    -0.402 OA 
BRANCH  15  17
HETATM   17  O   UNL     1      -8.851  19.277  66.818  1.00  0.00    -0.291 OA 
BRANCH  17  18
HETATM   18  C   UNL     1      -7.912  19.885  65.923  1.00  0.00    -0.276 C  
HETATM   19  C   UNL     1      -6.783  18.897  65.693  1.00  0.00    -0.310 C  
ENDBRANCH  17  18
ENDBRANCH  15  17
ENDBRANCH   7  15
ENDBRANCH   6   7
ENDBRANCH   4   6
ENDBRANCH   3   4
ENDBRANCH   2   3
TORSDOF 11
ENDMDL
MODEL      177
REMARK 921   NORMALIZED FREE ENERGY PREDICTED BY IDOCK:   -3.32 KCAL/MOL
REMARK 922        TOTAL FREE ENERGY PREDICTED BY IDOCK:   -6.14 KCAL/MOL
REMARK 923 INTER-LIGAND FREE ENERGY PREDICTED BY IDOCK:   -5.26 KCAL/MOL
REMARK 924 INTRA-LIGAND FREE ENERGY PREDICTED BY IDOCK:   -0.88 KCAL/MOL
REMARK 927      BINDING AFFINITY PREDICTED BY RF-SCORE:    0.00 PKD
ROOT
HETATM    1  C   UNL     1      -9.034   9.758  64.045  1.00  0.00    -0.275 C  
HETATM    2  C   UNL     1      -9.835  10.040  65.304  1.00  0.00    -0.318 C  
ENDROOT
BRANCH   2   3
HETATM    3  O   UNL     1      -9.709   8.898  66.160  1.00  0.00    -0.255 OA 
BRANCH   3   4
HETATM    4  C   UNL     1      -9.554   9.160  67.481  1.00  0.00    -0.150 C  
HETATM    5  O   UNL     1      -8.501   9.434  68.045  1.00  0.00    -0.119 OA 
BRANCH   4   6
HETATM    6  C   UNL     1     -10.900   9.263  68.138  1.00  0.00    -0.145 C  
BRANCH   6   7
HETATM    7  C   UNL     1     -10.795   9.912  69.511  1.00  0.00    -0.246 C  
BRANCH   7   8
HETATM    8  S   UNL     1     -11.938  11.340  69.732  1.00  0.00    -0.368 SA 
BRANCH   8   9
HETATM    9  P   UNL     1     -11.505  12.766  68.225  1.00  0.00    -0.360 P  
HETATM   10  S   UNL     1     -12.204  14.319  69.332  1.00  0.00    -0.210 S  
BRANCH   9  11
HETATM   11  O   UNL     1      -9.867  12.562  68.390  1.00  0.00    -0.225 OA 
HETATM   12  C   UNL     1      -8.945  12.894  67.360  1.00  0.00    -0.199 C  
ENDBRANCH   9  11
BRANCH   9  13
HETATM   13  O   UNL     1     -11.152  13.931  66.995  1.00  0.00    -0.291 OA 
HETATM   14  C   UNL     1     -12.168  14.115  66.028  1.00  0.00    -0.443 C  
ENDBRANCH   9  13
ENDBRANCH   8   9
ENDBRANCH   7   8
BRANCH   7  15
HETATM   15  C   UNL     1     -11.183   8.887  70.569  1.00  0.00    -0.252 C  
HETATM   16  O   UNL     1     -10.639   7.801  70.722  1.00  0.00    -0.213 OA 
BRANCH  15  17
HETATM   17  O   UNL     1     -12.287   9.312  71.248  1.00  0.00    -0.310 OA 
BRANCH  17  18
HETATM   18  C   UNL     1     -12.893   8.328  72.094  1.00  0.00    -0.315 C  
HETATM   19  C   UNL     1     -14.330   8.147  71.642  1.00  0.00    -0.570 C  
ENDBRANCH  17  18
ENDBRANCH  15  17
ENDBRANCH   7  15
ENDBRANCH   6   7
ENDBRANCH   4   6
ENDBRANCH   3   4
ENDBRANCH   2   3
TORSDOF 11
ENDMDL
MODEL      178
REMARK 921   NORMALIZED FREE ENERGY PREDICTED BY IDOCK:   -3.31 KCAL/MOL
REMARK 922        TOTAL FREE ENERGY PREDICTED BY IDOCK:   -6.14 KCAL/MOL
REMARK 923 INTER-LIGAND FREE ENERGY PREDICTED BY IDOCK:   -5.49 KCAL/MOL
REMARK 924 INTRA-LIGAND FREE ENERGY PREDICTED BY IDOCK:   -0.65 KCAL/MOL
REMARK 927      BINDING AFFINITY PREDICTED BY RF-SCORE:    0.00 PKD
ROOT
HETATM    1  C   UNL     1      -6.711  18.747  66.958  1.00  0.00    -0.206 C  
HETATM    2  C   UNL     1      -7.295  17.415  66.521  1.00  0.00    -0.277 C  
ENDROOT
BRANCH   2   3
HETATM    3  O   UNL     1      -8.374  17.693  65.620  1.00  0.00    -0.467 OA 
BRANCH   3   4
HETATM    4  C   UNL     1      -9.586  17.197  65.971  1.00  0.00    -0.163 C  
HETATM    5  O   UNL     1     -10.618  17.279  65.316  1.00  0.00    -0.667 OA 
BRANCH   4   6
HETATM    6  C   UNL     1      -9.448  16.348  67.202  1.00  0.00    -0.238 C  
BRANCH   6   7
HETATM    7  C   UNL     1      -9.919  14.924  66.945  1.00  0.00    -0.242 C  
BRANCH   7   8
HETATM    8  S   UNL     1      -8.645  13.652  67.336  1.00  0.00    -0.217 SA 
BRANCH   8   9
HETATM    9  P   UNL     1      -9.467  11.745  66.910  1.00  0.00    -0.202 P  
HETATM   10  S   UNL     1     -10.198  12.334  65.109  1.00  0.00    -0.271 S  
BRANCH   9  11
HETATM   11  O   UNL     1      -7.971  11.040  66.782  1.00  0.00    -0.138 OA 
HETATM   12  C   UNL     1      -7.574  10.284  65.647  1.00  0.00    -0.148 C  
ENDBRANCH   9  11
BRANCH   9  13
HETATM   13  O   UNL     1     -10.138  10.189  66.562  1.00  0.00    -0.215 OA 
HETATM   14  C   UNL     1     -10.569   9.451  67.689  1.00  0.00    -0.271 C  
ENDBRANCH   9  13
ENDBRANCH   8   9
ENDBRANCH   7   8
BRANCH   7  15
HETATM   15  C   UNL     1     -11.108  14.629  67.850  1.00  0.00    -0.291 C  
HETATM   16  O   UNL     1     -12.172  14.157  67.473  1.00  0.00    -0.370 OA 
BRANCH  15  17
HETATM   17  O   UNL     1     -10.849  15.064  69.116  1.00  0.00    -0.232 OA 
BRANCH  17  18
HETATM   18  C   UNL     1     -11.998  15.502  69.851  1.00  0.00    -0.362 C  
HETATM   19  C   UNL     1     -11.544  15.862  71.254  1.00  0.00    -0.509 C  
ENDBRANCH  17  18
ENDBRANCH  15  17
ENDBRANCH   7  15
ENDBRANCH   6   7
ENDBRANCH   4   6
ENDBRANCH   3   4
ENDBRANCH   2   3
TORSDOF 11
ENDMDL
MODEL      179
REMARK 921   NORMALIZED FREE ENERGY PREDICTED BY IDOCK:   -3.31 KCAL/MOL
REMARK 922        TOTAL FREE ENERGY PREDICTED BY IDOCK:   -6.13 KCAL/MOL
REMARK 923 INTER-LIGAND FREE ENERGY PREDICTED BY IDOCK:   -5.24 KCAL/MOL
REMARK 924 INTRA-LIGAND FREE ENERGY PREDICTED BY IDOCK:   -0.89 KCAL/MOL
REMARK 927      BINDING AFFINITY PREDICTED BY RF-SCORE:    0.00 PKD
ROOT
HETATM    1  C   UNL     1      -9.272   9.909  62.371  1.00  0.00    -0.308 C  
HETATM    2  C   UNL     1      -8.987  10.099  63.850  1.00  0.00    -0.244 C  
ENDROOT
BRANCH   2   3
HETATM    3  O   UNL     1     -10.211  10.498  64.478  1.00  0.00    -0.348 OA 
BRANCH   3   4
HETATM    4  C   UNL     1     -10.582  11.789  64.293  1.00  0.00    -0.335 C  
HETATM    5  O   UNL     1     -11.406  12.195  63.483  1.00  0.00    -0.421 OA 
BRANCH   4   6
HETATM    6  C   UNL     1      -9.980  12.648  65.367  1.00  0.00    -0.230 C  
BRANCH   6   7
HETATM    7  C   UNL     1     -10.617  12.365  66.720  1.00  0.00    -0.226 C  
BRANCH   7   8
HETATM    8  S   UNL     1      -9.391  12.231  68.089  1.00  0.00    -0.200 SA 
BRANCH   8   9
HETATM    9  P   UNL     1      -9.634  10.336  69.006  1.00  0.00    -0.215 P  
HETATM   10  S   UNL     1     -11.502  10.769  69.674  1.00  0.00    -0.332 S  
BRANCH   9  11
HETATM   11  O   UNL     1      -9.653   9.544  67.549  1.00  0.00    -0.139 OA 
HETATM   12  C   UNL     1     -10.649   8.589  67.208  1.00  0.00    -0.245 C  
ENDBRANCH   9  11
BRANCH   9  13
HETATM   13  O   UNL     1      -9.832   8.789  69.755  1.00  0.00    -0.180 OA 
HETATM   14  C   UNL     1     -10.744   8.753  70.835  1.00  0.00    -0.227 C  
ENDBRANCH   9  13
ENDBRANCH   8   9
ENDBRANCH   7   8
BRANCH   7  15
HETATM   15  C   UNL     1     -11.536  13.524  67.082  1.00  0.00    -0.357 C  
HETATM   16  O   UNL     1     -12.513  13.869  66.431  1.00  0.00    -0.441 OA 
BRANCH  15  17
HETATM   17  O   UNL     1     -11.052  14.180  68.174  1.00  0.00    -0.244 OA 
BRANCH  17  18
HETATM   18  C   UNL     1     -11.107  15.610  68.094  1.00  0.00    -0.330 C  
HETATM   19  C   UNL     1      -9.682  16.133  68.115  1.00  0.00    -0.222 C  
ENDBRANCH  17  18
ENDBRANCH  15  17
ENDBRANCH   7  15
ENDBRANCH   6   7
ENDBRANCH   4   6
ENDBRANCH   3   4
ENDBRANCH   2   3
TORSDOF 11
ENDMDL
MODEL      180
REMARK 921   NORMALIZED FREE ENERGY PREDICTED BY IDOCK:   -3.31 KCAL/MOL
REMARK 922        TOTAL FREE ENERGY PREDICTED BY IDOCK:   -6.13 KCAL/MOL
REMARK 923 INTER-LIGAND FREE ENERGY PREDICTED BY IDOCK:   -5.25 KCAL/MOL
REMARK 924 INTRA-LIGAND FREE ENERGY PREDICTED BY IDOCK:   -0.88 KCAL/MOL
REMARK 927      BINDING AFFINITY PREDICTED BY RF-SCORE:    0.00 PKD
ROOT
HETATM    1  C   UNL     1     -11.092   6.225  68.677  1.00  0.00    -0.409 C  
HETATM    2  C   UNL     1     -10.094   7.157  68.014  1.00  0.00    -0.169 C  
ENDROOT
BRANCH   2   3
HETATM    3  O   UNL     1     -10.772   7.821  66.941  1.00  0.00    -0.345 OA 
BRANCH   3   4
HETATM    4  C   UNL     1     -10.125   8.880  66.393  1.00  0.00    -0.263 C  
HETATM    5  O   UNL     1      -9.486   8.873  65.348  1.00  0.00    -0.172 OA 
BRANCH   4   6
HETATM    6  C   UNL     1     -10.467  10.130  67.150  1.00  0.00    -0.305 C  
BRANCH   6   7
HETATM    7  C   UNL     1      -9.343  11.152  67.065  1.00  0.00    -0.170 C  
BRANCH   7   8
HETATM    8  S   UNL     1      -9.918  12.829  66.563  1.00  0.00    -0.258 SA 
BRANCH   8   9
HETATM    9  P   UNL     1     -11.290  13.517  68.026  1.00  0.00    -0.327 P  
HETATM   10  S   UNL     1     -10.024  14.953  68.704  1.00  0.00    -0.229 S  
BRANCH   9  11
HETATM   11  O   UNL     1     -12.343  14.094  66.882  1.00  0.00    -0.419 OA 
HETATM   12  C   UNL     1     -12.422  13.554  65.570  1.00  0.00    -0.491 C  
ENDBRANCH   9  11
BRANCH   9  13
HETATM   13  O   UNL     1     -12.408  14.079  69.220  1.00  0.00    -0.324 OA 
HETATM   14  C   UNL     1     -12.252  13.515  70.507  1.00  0.00    -0.361 C  
ENDBRANCH   9  13
ENDBRANCH   8   9
ENDBRANCH   7   8
BRANCH   7  15
HETATM   15  C   UNL     1      -8.717  11.310  68.444  1.00  0.00    -0.159 C  
HETATM   16  O   UNL     1      -7.742  12.006  68.693  1.00  0.00    -0.125 OA 
BRANCH  15  17
HETATM   17  O   UNL     1      -9.337  10.483  69.335  1.00  0.00    -0.190 OA 
BRANCH  17  18
HETATM   18  C   UNL     1      -8.454   9.710  70.157  1.00  0.00    -0.204 C  
HETATM   19  C   UNL     1      -9.300   8.960  71.169  1.00  0.00    -0.326 C  
ENDBRANCH  17  18
ENDBRANCH  15  17
ENDBRANCH   7  15
ENDBRANCH   6   7
ENDBRANCH   4   6
ENDBRANCH   3   4
ENDBRANCH   2   3
TORSDOF 11
ENDMDL
MODEL      181
REMARK 921   NORMALIZED FREE ENERGY PREDICTED BY IDOCK:   -3.29 KCAL/MOL
REMARK 922        TOTAL FREE ENERGY PREDICTED BY IDOCK:   -6.10 KCAL/MOL
REMARK 923 INTER-LIGAND FREE ENERGY PREDICTED BY IDOCK:   -5.66 KCAL/MOL
REMARK 924 INTRA-LIGAND FREE ENERGY PREDICTED BY IDOCK:   -0.44 KCAL/MOL
REMARK 927      BINDING AFFINITY PREDICTED BY RF-SCORE:    0.00 PKD
ROOT
HETATM    1  C   UNL     1     -11.968  12.867  63.336  1.00  0.00    -0.612 C  
HETATM    2  C   UNL     1     -12.487  12.325  64.657  1.00  0.00    -0.341 C  
ENDROOT
BRANCH   2   3
HETATM    3  O   UNL     1     -12.480  13.404  65.598  1.00  0.00    -0.456 OA 
BRANCH   3   4
HETATM    4  C   UNL     1     -11.261  13.791  66.050  1.00  0.00    -0.304 C  
HETATM    5  O   UNL     1     -10.192  13.248  65.800  1.00  0.00    -0.284 OA 
BRANCH   4   6
HETATM    6  C   UNL     1     -11.378  15.114  66.751  1.00  0.00    -0.248 C  
BRANCH   6   7
HETATM    7  C   UNL     1     -10.532  15.144  68.016  1.00  0.00    -0.247 C  
BRANCH   7   8
HETATM    8  S   UNL     1      -9.695  16.762  68.295  1.00  0.00    -0.261 SA 
BRANCH   8   9
HETATM    9  P   UNL     1      -7.685  16.375  68.845  1.00  0.00    -0.220 P  
HETATM   10  S   UNL     1      -7.442  14.960  67.409  1.00  0.00    -0.169 S  
BRANCH   9  11
HETATM   11  O   UNL     1      -7.176  17.872  68.346  1.00  0.00    -0.236 OA 
HETATM   12  C   UNL     1      -6.761  18.883  69.254  1.00  0.00    -0.280 C  
ENDBRANCH   9  11
BRANCH   9  13
HETATM   13  O   UNL     1      -6.044  16.058  69.294  1.00  0.00    -0.123 OA 
HETATM   14  C   UNL     1      -5.334  15.202  68.422  1.00  0.00    -0.108 C  
ENDBRANCH   9  13
ENDBRANCH   8   9
ENDBRANCH   7   8
BRANCH   7  15
HETATM   15  C   UNL     1     -11.440  14.920  69.218  1.00  0.00    -0.303 C  
HETATM   16  O   UNL     1     -12.436  14.210  69.218  1.00  0.00    -0.255 OA 
BRANCH  15  17
HETATM   17  O   UNL     1     -11.039  15.705  70.258  1.00  0.00    -0.287 OA 
BRANCH  17  18
HETATM   18  C   UNL     1     -12.061  16.009  71.216  1.00  0.00    -0.391 C  
HETATM   19  C   UNL     1     -11.702  15.314  72.516  1.00  0.00    -0.535 C  
ENDBRANCH  17  18
ENDBRANCH  15  17
ENDBRANCH   7  15
ENDBRANCH   6   7
ENDBRANCH   4   6
ENDBRANCH   3   4
ENDBRANCH   2   3
TORSDOF 11
ENDMDL
MODEL      182
REMARK 921   NORMALIZED FREE ENERGY PREDICTED BY IDOCK:   -3.29 KCAL/MOL
REMARK 922        TOTAL FREE ENERGY PREDICTED BY IDOCK:   -6.10 KCAL/MOL
REMARK 923 INTER-LIGAND FREE ENERGY PREDICTED BY IDOCK:   -5.24 KCAL/MOL
REMARK 924 INTRA-LIGAND FREE ENERGY PREDICTED BY IDOCK:   -0.86 KCAL/MOL
REMARK 927      BINDING AFFINITY PREDICTED BY RF-SCORE:    0.00 PKD
ROOT
HETATM    1  C   UNL     1     -12.154  12.608  63.463  1.00  0.00    -0.648 C  
HETATM    2  C   UNL     1     -10.688  12.235  63.602  1.00  0.00    -0.467 C  
ENDROOT
BRANCH   2   3
HETATM    3  O   UNL     1     -10.323  12.424  64.974  1.00  0.00    -0.281 OA 
BRANCH   3   4
HETATM    4  C   UNL     1     -10.216  11.298  65.722  1.00  0.00    -0.251 C  
HETATM    5  O   UNL     1     -10.045  10.162  65.297  1.00  0.00    -0.319 OA 
BRANCH   4   6
HETATM    6  C   UNL     1     -10.138  11.663  67.176  1.00  0.00    -0.227 C  
BRANCH   6   7
HETATM    7  C   UNL     1     -11.217  10.951  67.981  1.00  0.00    -0.314 C  
BRANCH   7   8
HETATM    8  S   UNL     1     -10.614   9.422  68.814  1.00  0.00    -0.179 SA 
BRANCH   8   9
HETATM    9  P   UNL     1      -8.778   9.874  69.771  1.00  0.00    -0.141 P  
HETATM   10  S   UNL     1      -9.241   8.793  71.427  1.00  0.00    -0.264 S  
BRANCH   9  11
HETATM   11  O   UNL     1      -7.897   8.997  68.673  1.00  0.00    -0.098 OA 
HETATM   12  C   UNL     1      -8.501   8.124  67.728  1.00  0.00    -0.132 C  
ENDBRANCH   9  11
BRANCH   9  13
HETATM   13  O   UNL     1      -7.280  10.244  70.553  1.00  0.00    -0.297 OA 
HETATM   14  C   UNL     1      -6.201  10.536  69.686  1.00  0.00    -0.063 C  
ENDBRANCH   9  13
ENDBRANCH   8   9
ENDBRANCH   7   8
BRANCH   7  15
HETATM   15  C   UNL     1     -11.695  11.880  69.089  1.00  0.00    -0.319 C  
HETATM   16  O   UNL     1     -11.923  11.534  70.241  1.00  0.00    -0.333 OA 
BRANCH  15  17
HETATM   17  O   UNL     1     -11.930  13.125  68.585  1.00  0.00    -0.328 OA 
BRANCH  17  18
HETATM   18  C   UNL     1     -11.888  14.185  69.547  1.00  0.00    -0.322 C  
HETATM   19  C   UNL     1     -10.593  14.949  69.342  1.00  0.00    -0.255 C  
ENDBRANCH  17  18
ENDBRANCH  15  17
ENDBRANCH   7  15
ENDBRANCH   6   7
ENDBRANCH   4   6
ENDBRANCH   3   4
ENDBRANCH   2   3
TORSDOF 11
ENDMDL
MODEL      183
REMARK 921   NORMALIZED FREE ENERGY PREDICTED BY IDOCK:   -3.28 KCAL/MOL
REMARK 922        TOTAL FREE ENERGY PREDICTED BY IDOCK:   -6.09 KCAL/MOL
REMARK 923 INTER-LIGAND FREE ENERGY PREDICTED BY IDOCK:   -5.52 KCAL/MOL
REMARK 924 INTRA-LIGAND FREE ENERGY PREDICTED BY IDOCK:   -0.57 KCAL/MOL
REMARK 927      BINDING AFFINITY PREDICTED BY RF-SCORE:    0.00 PKD
ROOT
HETATM    1  C   UNL     1     -10.429  11.580  63.637  1.00  0.00    -0.483 C  
HETATM    2  C   UNL     1     -11.503  12.585  64.016  1.00  0.00    -0.409 C  
ENDROOT
BRANCH   2   3
HETATM    3  O   UNL     1     -10.883  13.874  64.085  1.00  0.00    -0.255 OA 
BRANCH   3   4
HETATM    4  C   UNL     1     -11.230  14.645  65.145  1.00  0.00    -0.374 C  
HETATM    5  O   UNL     1     -11.240  15.870  65.175  1.00  0.00    -0.308 OA 
BRANCH   4   6
HETATM    6  C   UNL     1     -11.799  13.783  66.234  1.00  0.00    -0.426 C  
BRANCH   6   7
HETATM    7  C   UNL     1     -10.983  13.902  67.514  1.00  0.00    -0.276 C  
BRANCH   7   8
HETATM    8  S   UNL     1     -11.487  12.697  68.813  1.00  0.00    -0.327 SA 
BRANCH   8   9
HETATM    9  P   UNL     1     -12.613  13.740  70.276  1.00  0.00    -0.056 P  
HETATM   10  S   UNL     1     -12.802  12.104  71.464  1.00  0.00    -0.195 S  
BRANCH   9  11
HETATM   11  O   UNL     1     -11.323  14.687  70.709  1.00  0.00    -0.224 OA 
HETATM   12  C   UNL     1     -11.292  16.090  70.486  1.00  0.00    -0.401 C  
ENDBRANCH   9  11
BRANCH   9  13
HETATM   13  O   UNL     1     -13.533  14.590  71.469  1.00  0.00    -0.341 OA 
HETATM   14  C   UNL     1     -13.313  14.182  72.805  1.00  0.00    -0.519 C  
ENDBRANCH   9  13
ENDBRANCH   8   9
ENDBRANCH   7   8
BRANCH   7  15
HETATM   15  C   UNL     1      -9.524  13.602  67.196  1.00  0.00    -0.244 C  
HETATM   16  O   UNL     1      -8.689  14.443  66.894  1.00  0.00    -0.221 OA 
BRANCH  15  17
HETATM   17  O   UNL     1      -9.314  12.254  67.196  1.00  0.00    -0.186 OA 
BRANCH  17  18
HETATM   18  C   UNL     1      -7.938  11.857  67.229  1.00  0.00    -0.171 C  
HETATM   19  C   UNL     1      -7.869  10.470  67.842  1.00  0.00    -0.105 C  
ENDBRANCH  17  18
ENDBRANCH  15  17
ENDBRANCH   7  15
ENDBRANCH   6   7
ENDBRANCH   4   6
ENDBRANCH   3   4
ENDBRANCH   2   3
TORSDOF 11
ENDMDL
MODEL      184
REMARK 921   NORMALIZED FREE ENERGY PREDICTED BY IDOCK:   -3.28 KCAL/MOL
REMARK 922        TOTAL FREE ENERGY PREDICTED BY IDOCK:   -6.09 KCAL/MOL
REMARK 923 INTER-LIGAND FREE ENERGY PREDICTED BY IDOCK:   -5.37 KCAL/MOL
REMARK 924 INTRA-LIGAND FREE ENERGY PREDICTED BY IDOCK:   -0.72 KCAL/MOL
REMARK 927      BINDING AFFINITY PREDICTED BY RF-SCORE:    0.00 PKD
ROOT
HETATM    1  C   UNL     1      -9.262  10.221  62.653  1.00  0.00    -0.318 C  
HETATM    2  C   UNL     1      -8.862   9.907  64.083  1.00  0.00    -0.225 C  
ENDROOT
BRANCH   2   3
HETATM    3  O   UNL     1      -9.996  10.172  64.917  1.00  0.00    -0.329 OA 
BRANCH   3   4
HETATM    4  C   UNL     1     -10.024  11.388  65.516  1.00  0.00    -0.239 C  
HETATM    5  O   UNL     1     -10.543  12.403  65.068  1.00  0.00    -0.280 OA 
BRANCH   4   6
HETATM    6  C   UNL     1      -9.493  11.274  66.916  1.00  0.00    -0.193 C  
BRANCH   6   7
HETATM    7  C   UNL     1     -10.327  10.306  67.744  1.00  0.00    -0.204 C  
BRANCH   7   8
HETATM    8  S   UNL     1      -9.359   9.450  69.057  1.00  0.00    -0.157 SA 
BRANCH   8   9
HETATM    9  P   UNL     1     -10.303   7.595  69.465  1.00  0.00    -0.218 P  
HETATM   10  S   UNL     1      -9.199   6.598  68.082  1.00  0.00    -0.115 S  
BRANCH   9  11
HETATM   11  O   UNL     1      -9.643   7.502  70.983  1.00  0.00    -0.161 OA 
HETATM   12  C   UNL     1      -9.851   8.501  71.973  1.00  0.00    -0.312 C  
ENDBRANCH   9  11
BRANCH   9  13
HETATM   13  O   UNL     1     -11.073   6.082  69.796  1.00  0.00    -0.366 OA 
HETATM   14  C   UNL     1     -10.205   4.970  69.889  1.00  0.00    -0.270 C  
ENDBRANCH   9  13
ENDBRANCH   8   9
ENDBRANCH   7   8
BRANCH   7  15
HETATM   15  C   UNL     1     -11.419  11.089  68.461  1.00  0.00    -0.309 C  
HETATM   16  O   UNL     1     -12.286  11.748  67.903  1.00  0.00    -0.538 OA 
BRANCH  15  17
HETATM   17  O   UNL     1     -11.226  11.031  69.810  1.00  0.00    -0.258 OA 
BRANCH  17  18
HETATM   18  C   UNL     1     -12.319  11.518  70.598  1.00  0.00    -0.364 C  
HETATM   19  C   UNL     1     -13.002  10.322  71.236  1.00  0.00    -0.517 C  
ENDBRANCH  17  18
ENDBRANCH  15  17
ENDBRANCH   7  15
ENDBRANCH   6   7
ENDBRANCH   4   6
ENDBRANCH   3   4
ENDBRANCH   2   3
TORSDOF 11
ENDMDL
MODEL      185
REMARK 921   NORMALIZED FREE ENERGY PREDICTED BY IDOCK:   -3.27 KCAL/MOL
REMARK 922        TOTAL FREE ENERGY PREDICTED BY IDOCK:   -6.07 KCAL/MOL
REMARK 923 INTER-LIGAND FREE ENERGY PREDICTED BY IDOCK:   -5.18 KCAL/MOL
REMARK 924 INTRA-LIGAND FREE ENERGY PREDICTED BY IDOCK:   -0.89 KCAL/MOL
REMARK 927      BINDING AFFINITY PREDICTED BY RF-SCORE:    0.00 PKD
ROOT
HETATM    1  C   UNL     1      -6.135  11.638  67.128  1.00  0.00    -0.130 C  
HETATM    2  C   UNL     1      -7.512  12.239  67.347  1.00  0.00    -0.160 C  
ENDROOT
BRANCH   2   3
HETATM    3  O   UNL     1      -8.455  11.427  66.638  1.00  0.00    -0.163 OA 
BRANCH   3   4
HETATM    4  C   UNL     1      -9.053  10.444  67.356  1.00  0.00    -0.135 C  
HETATM    5  O   UNL     1      -9.023   9.245  67.105  1.00  0.00    -0.126 OA 
BRANCH   4   6
HETATM    6  C   UNL     1      -9.601  11.012  68.633  1.00  0.00    -0.198 C  
BRANCH   6   7
HETATM    7  C   UNL     1     -11.116  10.877  68.690  1.00  0.00    -0.252 C  
BRANCH   7   8
HETATM    8  S   UNL     1     -11.793  10.975  70.401  1.00  0.00    -0.374 SA 
BRANCH   8   9
HETATM    9  P   UNL     1     -11.579   9.069  71.303  1.00  0.00    -0.368 P  
HETATM   10  S   UNL     1     -13.513   9.015  71.919  1.00  0.00    -0.452 S  
BRANCH   9  11
HETATM   11  O   UNL     1     -11.361   8.314  69.843  1.00  0.00    -0.105 OA 
HETATM   12  C   UNL     1     -10.844   6.995  69.731  1.00  0.00    -0.248 C  
ENDBRANCH   9  11
BRANCH   9  13
HETATM   13  O   UNL     1     -11.405   7.513  72.040  1.00  0.00    -0.254 OA 
HETATM   14  C   UNL     1     -10.760   7.509  73.299  1.00  0.00    -0.382 C  
ENDBRANCH   9  13
ENDBRANCH   8   9
ENDBRANCH   7   8
BRANCH   7  15
HETATM   15  C   UNL     1     -11.741  12.030  67.917  1.00  0.00    -0.323 C  
HETATM   16  O   UNL     1     -11.943  12.033  66.710  1.00  0.00    -0.616 OA 
BRANCH  15  17
HETATM   17  O   UNL     1     -11.946  13.092  68.748  1.00  0.00    -0.318 OA 
BRANCH  17  18
HETATM   18  C   UNL     1     -11.786  14.378  68.136  1.00  0.00    -0.342 C  
HETATM   19  C   UNL     1     -10.355  14.829  68.368  1.00  0.00    -0.233 C  
ENDBRANCH  17  18
ENDBRANCH  15  17
ENDBRANCH   7  15
ENDBRANCH   6   7
ENDBRANCH   4   6
ENDBRANCH   3   4
ENDBRANCH   2   3
TORSDOF 11
ENDMDL
MODEL      186
REMARK 921   NORMALIZED FREE ENERGY PREDICTED BY IDOCK:   -3.26 KCAL/MOL
REMARK 922        TOTAL FREE ENERGY PREDICTED BY IDOCK:   -6.06 KCAL/MOL
REMARK 923 INTER-LIGAND FREE ENERGY PREDICTED BY IDOCK:   -5.51 KCAL/MOL
REMARK 924 INTRA-LIGAND FREE ENERGY PREDICTED BY IDOCK:   -0.55 KCAL/MOL
REMARK 927      BINDING AFFINITY PREDICTED BY RF-SCORE:    0.00 PKD
ROOT
HETATM    1  C   UNL     1     -11.983  10.163  70.936  1.00  0.00    -0.461 C  
HETATM    2  C   UNL     1     -12.213  11.431  70.133  1.00  0.00    -0.321 C  
ENDROOT
BRANCH   2   3
HETATM    3  O   UNL     1     -12.114  11.086  68.746  1.00  0.00    -0.518 OA 
BRANCH   3   4
HETATM    4  C   UNL     1     -11.909  12.118  67.889  1.00  0.00    -0.269 C  
HETATM    5  O   UNL     1     -12.158  12.120  66.690  1.00  0.00    -0.622 OA 
BRANCH   4   6
HETATM    6  C   UNL     1     -11.514  13.344  68.659  1.00  0.00    -0.345 C  
BRANCH   6   7
HETATM    7  C   UNL     1     -10.205  13.923  68.139  1.00  0.00    -0.249 C  
BRANCH   7   8
HETATM    8  S   UNL     1      -9.279  12.765  67.047  1.00  0.00    -0.226 SA 
BRANCH   8   9
HETATM    9  P   UNL     1      -7.564  12.098  68.101  1.00  0.00    -0.145 P  
HETATM   10  S   UNL     1      -8.549  10.538  68.949  1.00  0.00    -0.156 S  
BRANCH   9  11
HETATM   11  O   UNL     1      -6.778  11.664  66.707  1.00  0.00    -0.135 OA 
HETATM   12  C   UNL     1      -7.093  10.481  65.985  1.00  0.00    -0.137 C  
ENDBRANCH   9  11
BRANCH   9  13
HETATM   13  O   UNL     1      -6.165  11.555  68.961  1.00  0.00    -0.051 OA 
HETATM   14  C   UNL     1      -6.428  10.772  70.110  1.00  0.00    -0.155 C  
ENDBRANCH   9  13
ENDBRANCH   8   9
ENDBRANCH   7   8
BRANCH   7  15
HETATM   15  C   UNL     1     -10.514  15.152  67.294  1.00  0.00    -0.271 C  
HETATM   16  O   UNL     1     -11.086  16.154  67.702  1.00  0.00    -0.301 OA 
BRANCH  15  17
HETATM   17  O   UNL     1     -10.154  14.929  65.998  1.00  0.00    -0.277 OA 
BRANCH  17  18
HETATM   18  C   UNL     1     -10.886  15.688  65.028  1.00  0.00    -0.450 C  
HETATM   19  C   UNL     1     -12.064  14.848  64.572  1.00  0.00    -0.420 C  
ENDBRANCH  17  18
ENDBRANCH  15  17
ENDBRANCH   7  15
ENDBRANCH   6   7
ENDBRANCH   4   6
ENDBRANCH   3   4
ENDBRANCH   2   3
TORSDOF 11
ENDMDL
MODEL      187
REMARK 921   NORMALIZED FREE ENERGY PREDICTED BY IDOCK:   -3.26 KCAL/MOL
REMARK 922        TOTAL FREE ENERGY PREDICTED BY IDOCK:   -6.06 KCAL/MOL
REMARK 923 INTER-LIGAND FREE ENERGY PREDICTED BY IDOCK:   -5.37 KCAL/MOL
REMARK 924 INTRA-LIGAND FREE ENERGY PREDICTED BY IDOCK:   -0.69 KCAL/MOL
REMARK 927      BINDING AFFINITY PREDICTED BY RF-SCORE:    0.00 PKD
ROOT
HETATM    1  C   UNL     1     -11.463   5.866  72.358  1.00  0.00    -0.358 C  
HETATM    2  C   UNL     1     -12.193   6.930  71.558  1.00  0.00    -0.371 C  
ENDROOT
BRANCH   2   3
HETATM    3  O   UNL     1     -12.095   8.160  72.287  1.00  0.00    -0.337 OA 
BRANCH   3   4
HETATM    4  C   UNL     1     -11.314   9.120  71.732  1.00  0.00    -0.381 C  
HETATM    5  O   UNL     1     -10.115   9.277  71.926  1.00  0.00    -0.250 OA 
BRANCH   4   6
HETATM    6  C   UNL     1     -12.089   9.856  70.678  1.00  0.00    -0.343 C  
BRANCH   6   7
HETATM    7  C   UNL     1     -11.228  10.909  69.994  1.00  0.00    -0.263 C  
BRANCH   7   8
HETATM    8  S   UNL     1     -10.766  10.463  68.268  1.00  0.00    -0.255 SA 
BRANCH   8   9
HETATM    9  P   UNL     1      -9.288   8.946  68.353  1.00  0.00    -0.136 P  
HETATM   10  S   UNL     1      -9.677   8.300  66.467  1.00  0.00    -0.241 S  
BRANCH   9  11
HETATM   11  O   UNL     1      -8.048  10.046  68.399  1.00  0.00    -0.098 OA 
HETATM   12  C   UNL     1      -7.492  10.525  69.616  1.00  0.00    -0.141 C  
ENDBRANCH   9  11
BRANCH   9  13
HETATM   13  O   UNL     1      -8.083   7.707  68.423  1.00  0.00    -0.121 OA 
HETATM   14  C   UNL     1      -8.504   6.429  67.988  1.00  0.00    -0.118 C  
ENDBRANCH   9  13
ENDBRANCH   8   9
ENDBRANCH   7   8
BRANCH   7  15
HETATM   15  C   UNL     1     -12.019  12.207  69.904  1.00  0.00    -0.309 C  
HETATM   16  O   UNL     1     -12.026  12.954  68.934  1.00  0.00    -0.300 OA 
BRANCH  15  17
HETATM   17  O   UNL     1     -12.631  12.465  71.095  1.00  0.00    -0.364 OA 
BRANCH  17  18
HETATM   18  C   UNL     1     -12.712  13.851  71.446  1.00  0.00    -0.365 C  
HETATM   19  C   UNL     1     -14.095  14.107  72.017  1.00  0.00    -0.619 C  
ENDBRANCH  17  18
ENDBRANCH  15  17
ENDBRANCH   7  15
ENDBRANCH   6   7
ENDBRANCH   4   6
ENDBRANCH   3   4
ENDBRANCH   2   3
TORSDOF 11
ENDMDL
MODEL      188
REMARK 921   NORMALIZED FREE ENERGY PREDICTED BY IDOCK:   -3.25 KCAL/MOL
REMARK 922        TOTAL FREE ENERGY PREDICTED BY IDOCK:   -6.03 KCAL/MOL
REMARK 923 INTER-LIGAND FREE ENERGY PREDICTED BY IDOCK:   -5.55 KCAL/MOL
REMARK 924 INTRA-LIGAND FREE ENERGY PREDICTED BY IDOCK:   -0.48 KCAL/MOL
REMARK 927      BINDING AFFINITY PREDICTED BY RF-SCORE:    0.00 PKD
ROOT
HETATM    1  C   UNL     1     -11.316  11.672  63.598  1.00  0.00    -0.485 C  
HETATM    2  C   UNL     1     -12.071  12.857  64.173  1.00  0.00    -0.432 C  
ENDROOT
BRANCH   2   3
HETATM    3  O   UNL     1     -11.125  13.913  64.379  1.00  0.00    -0.376 OA 
BRANCH   3   4
HETATM    4  C   UNL     1     -11.265  14.622  65.527  1.00  0.00    -0.343 C  
HETATM    5  O   UNL     1     -10.923  15.785  65.703  1.00  0.00    -0.313 OA 
BRANCH   4   6
HETATM    6  C   UNL     1     -12.088  13.839  66.508  1.00  0.00    -0.483 C  
BRANCH   6   7
HETATM    7  C   UNL     1     -11.230  13.315  67.652  1.00  0.00    -0.280 C  
BRANCH   7   8
HETATM    8  S   UNL     1      -9.545  12.796  67.120  1.00  0.00    -0.226 SA 
BRANCH   8   9
HETATM    9  P   UNL     1      -9.158  10.879  67.939  1.00  0.00    -0.157 P  
HETATM   10  S   UNL     1      -9.816   9.909  66.280  1.00  0.00    -0.260 S  
BRANCH   9  11
HETATM   11  O   UNL     1      -7.517  11.114  67.922  1.00  0.00    -0.089 OA 
HETATM   12  C   UNL     1      -6.812  11.685  69.015  1.00  0.00    -0.105 C  
ENDBRANCH   9  11
BRANCH   9  13
HETATM   13  O   UNL     1      -8.844   9.315  68.608  1.00  0.00    -0.130 OA 
HETATM   14  C   UNL     1      -8.165   8.417  67.752  1.00  0.00    -0.126 C  
ENDBRANCH   9  13
ENDBRANCH   8   9
ENDBRANCH   7   8
BRANCH   7  15
HETATM   15  C   UNL     1     -11.032  14.431  68.669  1.00  0.00    -0.250 C  
HETATM   16  O   UNL     1      -9.949  14.907  68.981  1.00  0.00    -0.228 OA 
BRANCH  15  17
HETATM   17  O   UNL     1     -12.224  14.748  69.251  1.00  0.00    -0.277 OA 
BRANCH  17  18
HETATM   18  C   UNL     1     -12.132  15.634  70.373  1.00  0.00    -0.394 C  
HETATM   19  C   UNL     1     -13.364  15.424  71.235  1.00  0.00    -0.598 C  
ENDBRANCH  17  18
ENDBRANCH  15  17
ENDBRANCH   7  15
ENDBRANCH   6   7
ENDBRANCH   4   6
ENDBRANCH   3   4
ENDBRANCH   2   3
TORSDOF 11
ENDMDL
MODEL      189
REMARK 921   NORMALIZED FREE ENERGY PREDICTED BY IDOCK:   -3.25 KCAL/MOL
REMARK 922        TOTAL FREE ENERGY PREDICTED BY IDOCK:   -6.03 KCAL/MOL
REMARK 923 INTER-LIGAND FREE ENERGY PREDICTED BY IDOCK:   -5.11 KCAL/MOL
REMARK 924 INTRA-LIGAND FREE ENERGY PREDICTED BY IDOCK:   -0.92 KCAL/MOL
REMARK 927      BINDING AFFINITY PREDICTED BY RF-SCORE:    0.00 PKD
ROOT
HETATM    1  C   UNL     1     -10.957   5.946  69.832  1.00  0.00    -0.444 C  
HETATM    2  C   UNL     1     -10.382   7.283  70.265  1.00  0.00    -0.210 C  
ENDROOT
BRANCH   2   3
HETATM    3  O   UNL     1     -11.260   8.306  69.783  1.00  0.00    -0.127 OA 
BRANCH   3   4
HETATM    4  C   UNL     1     -10.807   9.580  69.892  1.00  0.00    -0.246 C  
HETATM    5  O   UNL     1     -10.945  10.315  70.862  1.00  0.00    -0.281 OA 
BRANCH   4   6
HETATM    6  C   UNL     1      -9.927   9.906  68.720  1.00  0.00    -0.183 C  
BRANCH   6   7
HETATM    7  C   UNL     1     -10.697   9.814  67.410  1.00  0.00    -0.249 C  
BRANCH   7   8
HETATM    8  S   UNL     1     -10.748  11.405  66.482  1.00  0.00    -0.276 SA 
BRANCH   8   9
HETATM    9  P   UNL     1     -11.579  12.882  67.754  1.00  0.00    -0.350 P  
HETATM   10  S   UNL     1      -9.813  13.865  67.959  1.00  0.00    -0.240 S  
BRANCH   9  11
HETATM   11  O   UNL     1     -12.515  13.515  66.541  1.00  0.00    -0.359 OA 
HETATM   12  C   UNL     1     -12.423  13.076  65.192  1.00  0.00    -0.496 C  
ENDBRANCH   9  11
BRANCH   9  13
HETATM   13  O   UNL     1     -12.257  14.088  68.794  1.00  0.00    -0.337 OA 
HETATM   14  C   UNL     1     -11.418  14.519  69.847  1.00  0.00    -0.270 C  
ENDBRANCH   9  13
ENDBRANCH   8   9
ENDBRANCH   7   8
BRANCH   7  15
HETATM   15  C   UNL     1     -10.001   8.811  66.500  1.00  0.00    -0.290 C  
HETATM   16  O   UNL     1      -9.791   7.639  66.785  1.00  0.00    -0.207 OA 
BRANCH  15  17
HETATM   17  O   UNL     1      -9.556   9.434  65.372  1.00  0.00    -0.273 OA 
BRANCH  17  18
HETATM   18  C   UNL     1      -8.274   8.996  64.904  1.00  0.00    -0.153 C  
HETATM   19  C   UNL     1      -7.229   9.954  65.446  1.00  0.00    -0.125 C  
ENDBRANCH  17  18
ENDBRANCH  15  17
ENDBRANCH   7  15
ENDBRANCH   6   7
ENDBRANCH   4   6
ENDBRANCH   3   4
ENDBRANCH   2   3
TORSDOF 11
ENDMDL
MODEL      190
REMARK 921   NORMALIZED FREE ENERGY PREDICTED BY IDOCK:   -3.24 KCAL/MOL
REMARK 922        TOTAL FREE ENERGY PREDICTED BY IDOCK:   -6.03 KCAL/MOL
REMARK 923 INTER-LIGAND FREE ENERGY PREDICTED BY IDOCK:   -5.02 KCAL/MOL
REMARK 924 INTRA-LIGAND FREE ENERGY PREDICTED BY IDOCK:   -1.00 KCAL/MOL
REMARK 927      BINDING AFFINITY PREDICTED BY RF-SCORE:    0.00 PKD
ROOT
HETATM    1  C   UNL     1     -10.616   6.956  67.021  1.00  0.00    -0.403 C  
HETATM    2  C   UNL     1      -9.293   7.485  66.494  1.00  0.00    -0.181 C  
ENDROOT
BRANCH   2   3
HETATM    3  O   UNL     1      -9.059   8.755  67.114  1.00  0.00    -0.129 OA 
BRANCH   3   4
HETATM    4  C   UNL     1      -9.205   9.842  66.316  1.00  0.00    -0.168 C  
HETATM    5  O   UNL     1      -8.564  10.084  65.301  1.00  0.00    -0.139 OA 
BRANCH   4   6
HETATM    6  C   UNL     1     -10.412  10.625  66.743  1.00  0.00    -0.303 C  
BRANCH   6   7
HETATM    7  C   UNL     1     -10.263  11.133  68.171  1.00  0.00    -0.181 C  
BRANCH   7   8
HETATM    8  S   UNL     1     -10.187  12.970  68.287  1.00  0.00    -0.245 SA 
BRANCH   8   9
HETATM    9  P   UNL     1     -10.244  13.755  66.319  1.00  0.00    -0.309 P  
HETATM   10  S   UNL     1     -12.274  13.786  66.266  1.00  0.00    -0.433 S  
BRANCH   9  11
HETATM   11  O   UNL     1      -9.604  15.210  66.794  1.00  0.00    -0.226 OA 
HETATM   12  C   UNL     1     -10.088  15.929  67.920  1.00  0.00    -0.235 C  
ENDBRANCH   9  11
BRANCH   9  13
HETATM   13  O   UNL     1     -10.291  14.396  64.712  1.00  0.00    -0.431 OA 
HETATM   14  C   UNL     1     -11.322  15.331  64.464  1.00  0.00    -0.300 C  
ENDBRANCH   9  13
ENDBRANCH   8   9
ENDBRANCH   7   8
BRANCH   7  15
HETATM   15  C   UNL     1     -11.484  10.705  68.974  1.00  0.00    -0.274 C  
HETATM   16  O   UNL     1     -12.527  11.340  69.051  1.00  0.00    -0.417 OA 
BRANCH  15  17
HETATM   17  O   UNL     1     -11.207   9.567  69.673  1.00  0.00    -0.206 OA 
BRANCH  17  18
HETATM   18  C   UNL     1      -9.943   9.565  70.347  1.00  0.00    -0.267 C  
HETATM   19  C   UNL     1      -9.574   8.122  70.639  1.00  0.00    -0.179 C  
ENDBRANCH  17  18
ENDBRANCH  15  17
ENDBRANCH   7  15
ENDBRANCH   6   7
ENDBRANCH   4   6
ENDBRANCH   3   4
ENDBRANCH   2   3
TORSDOF 11
ENDMDL
MODEL      191
REMARK 921   NORMALIZED FREE ENERGY PREDICTED BY IDOCK:   -3.24 KCAL/MOL
REMARK 922        TOTAL FREE ENERGY PREDICTED BY IDOCK:   -6.02 KCAL/MOL
REMARK 923 INTER-LIGAND FREE ENERGY PREDICTED BY IDOCK:   -5.24 KCAL/MOL
REMARK 924 INTRA-LIGAND FREE ENERGY PREDICTED BY IDOCK:   -0.79 KCAL/MOL
REMARK 927      BINDING AFFINITY PREDICTED BY RF-SCORE:    0.00 PKD
ROOT
HETATM    1  C   UNL     1     -11.458  15.088  67.585  1.00  0.00    -0.344 C  
HETATM    2  C   UNL     1     -11.959  13.707  67.971  1.00  0.00    -0.350 C  
ENDROOT
BRANCH   2   3
HETATM    3  O   UNL     1     -10.920  13.065  68.719  1.00  0.00    -0.248 OA 
BRANCH   3   4
HETATM    4  C   UNL     1     -11.073  11.733  68.927  1.00  0.00    -0.243 C  
HETATM    5  O   UNL     1     -11.338  11.195  69.995  1.00  0.00    -0.279 OA 
BRANCH   4   6
HETATM    6  C   UNL     1     -11.067  11.012  67.610  1.00  0.00    -0.363 C  
BRANCH   6   7
HETATM    7  C   UNL     1      -9.648  10.822  67.092  1.00  0.00    -0.161 C  
BRANCH   7   8
HETATM    8  S   UNL     1      -9.098   9.064  67.101  1.00  0.00    -0.139 SA 
BRANCH   8   9
HETATM    9  P   UNL     1     -10.254   8.020  68.539  1.00  0.00    -0.181 P  
HETATM   10  S   UNL     1     -10.853   6.611  67.204  1.00  0.00    -0.398 S  
BRANCH   9  11
HETATM   11  O   UNL     1      -8.913   7.549  69.393  1.00  0.00    -0.140 OA 
HETATM   12  C   UNL     1      -8.164   8.446  70.201  1.00  0.00    -0.117 C  
ENDBRANCH   9  11
BRANCH   9  13
HETATM   13  O   UNL     1     -11.199   7.169  69.711  1.00  0.00    -0.243 OA 
HETATM   14  C   UNL     1     -10.950   5.779  69.795  1.00  0.00    -0.327 C  
ENDBRANCH   9  13
ENDBRANCH   8   9
ENDBRANCH   7   8
BRANCH   7  15
HETATM   15  C   UNL     1      -9.590  11.281  65.641  1.00  0.00    -0.229 C  
HETATM   16  O   UNL     1      -8.917  10.751  64.768  1.00  0.00    -0.192 OA 
BRANCH  15  17
HETATM   17  O   UNL     1     -10.315  12.425  65.485  1.00  0.00    -0.260 OA 
BRANCH  17  18
HETATM   18  C   UNL     1     -10.608  12.775  64.126  1.00  0.00    -0.415 C  
HETATM   19  C   UNL     1     -11.986  12.234  63.794  1.00  0.00    -0.609 C  
ENDBRANCH  17  18
ENDBRANCH  15  17
ENDBRANCH   7  15
ENDBRANCH   6   7
ENDBRANCH   4   6
ENDBRANCH   3   4
ENDBRANCH   2   3
TORSDOF 11
ENDMDL
MODEL      192
REMARK 921   NORMALIZED FREE ENERGY PREDICTED BY IDOCK:   -3.24 KCAL/MOL
REMARK 922        TOTAL FREE ENERGY PREDICTED BY IDOCK:   -6.02 KCAL/MOL
REMARK 923 INTER-LIGAND FREE ENERGY PREDICTED BY IDOCK:   -5.24 KCAL/MOL
REMARK 924 INTRA-LIGAND FREE ENERGY PREDICTED BY IDOCK:   -0.78 KCAL/MOL
REMARK 927      BINDING AFFINITY PREDICTED BY RF-SCORE:    0.00 PKD
ROOT
HETATM    1  C   UNL     1      -9.284   6.707  69.643  1.00  0.00    -0.145 C  
HETATM    2  C   UNL     1      -9.434   8.009  70.409  1.00  0.00    -0.166 C  
ENDROOT
BRANCH   2   3
HETATM    3  O   UNL     1     -10.762   8.494  70.180  1.00  0.00    -0.230 OA 
BRANCH   3   4
HETATM    4  C   UNL     1     -10.887   9.835  70.018  1.00  0.00    -0.278 C  
HETATM    5  O   UNL     1     -11.684  10.562  70.597  1.00  0.00    -0.310 OA 
BRANCH   4   6
HETATM    6  C   UNL     1      -9.764  10.348  69.163  1.00  0.00    -0.234 C  
BRANCH   6   7
HETATM    7  C   UNL     1     -10.293  11.140  67.976  1.00  0.00    -0.185 C  
BRANCH   7   8
HETATM    8  S   UNL     1      -9.196  12.536  67.484  1.00  0.00    -0.197 SA 
BRANCH   8   9
HETATM    9  P   UNL     1     -10.234  14.348  67.849  1.00  0.00    -0.238 P  
HETATM   10  S   UNL     1      -9.338  15.308  66.299  1.00  0.00    -0.319 S  
BRANCH   9  11
HETATM   11  O   UNL     1     -11.695  13.690  67.423  1.00  0.00    -0.337 OA 
HETATM   12  C   UNL     1     -12.229  13.793  66.110  1.00  0.00    -0.459 C  
ENDBRANCH   9  11
BRANCH   9  13
HETATM   13  O   UNL     1     -11.080  15.827  68.147  1.00  0.00    -0.314 OA 
HETATM   14  C   UNL     1     -11.892  15.836  69.304  1.00  0.00    -0.346 C  
ENDBRANCH   9  13
ENDBRANCH   8   9
ENDBRANCH   7   8
BRANCH   7  15
HETATM   15  C   UNL     1     -10.377  10.217  66.767  1.00  0.00    -0.222 C  
HETATM   16  O   UNL     1     -10.252   9.000  66.808  1.00  0.00    -0.256 OA 
BRANCH  15  17
HETATM   17  O   UNL     1     -10.507  10.952  65.626  1.00  0.00    -0.249 OA 
BRANCH  17  18
HETATM   18  C   UNL     1      -9.961  10.344  64.449  1.00  0.00    -0.318 C  
HETATM   19  C   UNL     1      -9.955  11.388  63.347  1.00  0.00    -0.435 C  
ENDBRANCH  17  18
ENDBRANCH  15  17
ENDBRANCH   7  15
ENDBRANCH   6   7
ENDBRANCH   4   6
ENDBRANCH   3   4
ENDBRANCH   2   3
TORSDOF 11
ENDMDL
MODEL      193
REMARK 921   NORMALIZED FREE ENERGY PREDICTED BY IDOCK:   -3.24 KCAL/MOL
REMARK 922        TOTAL FREE ENERGY PREDICTED BY IDOCK:   -6.02 KCAL/MOL
REMARK 923 INTER-LIGAND FREE ENERGY PREDICTED BY IDOCK:   -5.40 KCAL/MOL
REMARK 924 INTRA-LIGAND FREE ENERGY PREDICTED BY IDOCK:   -0.62 KCAL/MOL
REMARK 927      BINDING AFFINITY PREDICTED BY RF-SCORE:    0.00 PKD
ROOT
HETATM    1  C   UNL     1     -12.401  15.660  74.468  1.00  0.00    -0.776 C  
HETATM    2  C   UNL     1     -12.865  15.469  73.035  1.00  0.00    -0.472 C  
ENDROOT
BRANCH   2   3
HETATM    3  O   UNL     1     -11.703  15.502  72.198  1.00  0.00    -0.400 OA 
BRANCH   3   4
HETATM    4  C   UNL     1     -11.922  15.335  70.870  1.00  0.00    -0.342 C  
HETATM    5  O   UNL     1     -12.935  15.651  70.259  1.00  0.00    -0.315 OA 
BRANCH   4   6
HETATM    6  C   UNL     1     -10.656  14.881  70.202  1.00  0.00    -0.070 C  
BRANCH   6   7
HETATM    7  C   UNL     1     -10.583  15.377  68.765  1.00  0.00    -0.235 C  
BRANCH   7   8
HETATM    8  S   UNL     1      -9.150  16.491  68.451  1.00  0.00    -0.230 SA 
BRANCH   8   9
HETATM    9  P   UNL     1      -9.904  18.372  67.828  1.00  0.00    -0.353 P  
HETATM   10  S   UNL     1      -8.311  19.388  68.576  1.00  0.00    -0.351 S  
BRANCH   9  11
HETATM   11  O   UNL     1      -9.719  18.005  66.222  1.00  0.00    -0.368 OA 
HETATM   12  C   UNL     1     -10.787  17.526  65.417  1.00  0.00     0.059 C  
ENDBRANCH   9  11
BRANCH   9  13
HETATM   13  O   UNL     1     -10.519  19.908  67.322  1.00  0.00    -0.432 OA 
HETATM   14  C   UNL     1      -9.697  21.018  67.625  1.00  0.00    -0.034 C  
ENDBRANCH   9  13
ENDBRANCH   8   9
ENDBRANCH   7   8
BRANCH   7  15
HETATM   15  C   UNL     1     -10.403  14.180  67.841  1.00  0.00    -0.234 C  
HETATM   16  O   UNL     1     -10.854  14.100  66.706  1.00  0.00    -0.291 OA 
BRANCH  15  17
HETATM   17  O   UNL     1      -9.759  13.175  68.500  1.00  0.00    -0.211 OA 
BRANCH  17  18
HETATM   18  C   UNL     1     -10.190  11.852  68.155  1.00  0.00    -0.199 C  
HETATM   19  C   UNL     1      -8.964  11.056  67.745  1.00  0.00    -0.140 C  
ENDBRANCH  17  18
ENDBRANCH  15  17
ENDBRANCH   7  15
ENDBRANCH   6   7
ENDBRANCH   4   6
ENDBRANCH   3   4
ENDBRANCH   2   3
TORSDOF 11
ENDMDL
MODEL      194
REMARK 921   NORMALIZED FREE ENERGY PREDICTED BY IDOCK:   -3.24 KCAL/MOL
REMARK 922        TOTAL FREE ENERGY PREDICTED BY IDOCK:   -6.01 KCAL/MOL
REMARK 923 INTER-LIGAND FREE ENERGY PREDICTED BY IDOCK:   -5.24 KCAL/MOL
REMARK 924 INTRA-LIGAND FREE ENERGY PREDICTED BY IDOCK:   -0.77 KCAL/MOL
REMARK 927      BINDING AFFINITY PREDICTED BY RF-SCORE:    0.00 PKD
ROOT
HETATM    1  C   UNL     1      -9.428   5.780  66.482  1.00  0.00    -0.168 C  
HETATM    2  C   UNL     1      -8.935   7.193  66.741  1.00  0.00    -0.137 C  
ENDROOT
BRANCH   2   3
HETATM    3  O   UNL     1     -10.053   8.075  66.587  1.00  0.00    -0.268 OA 
BRANCH   3   4
HETATM    4  C   UNL     1      -9.765   9.334  66.171  1.00  0.00    -0.279 C  
HETATM    5  O   UNL     1      -9.759   9.727  65.011  1.00  0.00    -0.298 OA 
BRANCH   4   6
HETATM    6  C   UNL     1      -9.646  10.244  67.359  1.00  0.00    -0.183 C  
BRANCH   6   7
HETATM    7  C   UNL     1     -10.966  10.347  68.110  1.00  0.00    -0.281 C  
BRANCH   7   8
HETATM    8  S   UNL     1     -10.787  10.132  69.931  1.00  0.00    -0.317 SA 
BRANCH   8   9
HETATM    9  P   UNL     1      -9.696   8.347  70.277  1.00  0.00    -0.178 P  
HETATM   10  S   UNL     1      -9.783   8.549  72.297  1.00  0.00    -0.290 S  
BRANCH   9  11
HETATM   11  O   UNL     1     -10.916   7.392  69.687  1.00  0.00    -0.238 OA 
HETATM   12  C   UNL     1     -11.810   6.680  70.532  1.00  0.00    -0.370 C  
ENDBRANCH   9  11
BRANCH   9  13
HETATM   13  O   UNL     1      -8.805   6.892  70.561  1.00  0.00    -0.152 OA 
HETATM   14  C   UNL     1      -8.181   6.802  71.827  1.00  0.00    -0.106 C  
ENDBRANCH   9  13
ENDBRANCH   8   9
ENDBRANCH   7   8
BRANCH   7  15
HETATM   15  C   UNL     1     -11.544  11.740  67.899  1.00  0.00    -0.307 C  
HETATM   16  O   UNL     1     -11.822  12.524  68.797  1.00  0.00    -0.306 OA 
BRANCH  15  17
HETATM   17  O   UNL     1     -11.800  11.943  66.575  1.00  0.00    -0.579 OA 
BRANCH  17  18
HETATM   18  C   UNL     1     -11.580  13.282  66.115  1.00  0.00    -0.348 C  
HETATM   19  C   UNL     1     -12.034  13.357  64.668  1.00  0.00    -0.441 C  
ENDBRANCH  17  18
ENDBRANCH  15  17
ENDBRANCH   7  15
ENDBRANCH   6   7
ENDBRANCH   4   6
ENDBRANCH   3   4
ENDBRANCH   2   3
TORSDOF 11
ENDMDL
MODEL      195
REMARK 921   NORMALIZED FREE ENERGY PREDICTED BY IDOCK:   -3.23 KCAL/MOL
REMARK 922        TOTAL FREE ENERGY PREDICTED BY IDOCK:   -6.00 KCAL/MOL
REMARK 923 INTER-LIGAND FREE ENERGY PREDICTED BY IDOCK:   -5.13 KCAL/MOL
REMARK 924 INTRA-LIGAND FREE ENERGY PREDICTED BY IDOCK:   -0.87 KCAL/MOL
REMARK 927      BINDING AFFINITY PREDICTED BY RF-SCORE:    0.00 PKD
ROOT
HETATM    1  C   UNL     1     -11.095   8.579  71.469  1.00  0.00    -0.343 C  
HETATM    2  C   UNL     1     -10.281   9.596  70.688  1.00  0.00    -0.278 C  
ENDROOT
BRANCH   2   3
HETATM    3  O   UNL     1     -10.582   9.415  69.300  1.00  0.00    -0.219 OA 
BRANCH   3   4
HETATM    4  C   UNL     1      -9.516   9.297  68.470  1.00  0.00    -0.146 C  
HETATM    5  O   UNL     1      -8.380   8.977  68.795  1.00  0.00    -0.119 OA 
BRANCH   4   6
HETATM    6  C   UNL     1      -9.969   9.421  67.044  1.00  0.00    -0.282 C  
BRANCH   6   7
HETATM    7  C   UNL     1     -10.210  10.876  66.667  1.00  0.00    -0.234 C  
BRANCH   7   8
HETATM    8  S   UNL     1      -8.871  12.007  67.233  1.00  0.00    -0.190 SA 
BRANCH   8   9
HETATM    9  P   UNL     1      -9.772  13.639  68.243  1.00  0.00    -0.198 P  
HETATM   10  S   UNL     1      -9.462  14.917  66.696  1.00  0.00    -0.281 S  
BRANCH   9  11
HETATM   11  O   UNL     1     -11.276  12.943  68.193  1.00  0.00    -0.239 OA 
HETATM   12  C   UNL     1     -11.991  12.578  69.365  1.00  0.00    -0.256 C  
ENDBRANCH   9  11
BRANCH   9  13
HETATM   13  O   UNL     1     -10.506  14.971  69.067  1.00  0.00    -0.229 OA 
HETATM   14  C   UNL     1     -11.042  15.978  68.231  1.00  0.00    -0.351 C  
ENDBRANCH   9  13
ENDBRANCH   8   9
ENDBRANCH   7   8
BRANCH   7  15
HETATM   15  C   UNL     1     -10.252  10.990  65.149  1.00  0.00    -0.291 C  
HETATM   16  O   UNL     1      -9.946  10.094  64.373  1.00  0.00    -0.314 OA 
BRANCH  15  17
HETATM   17  O   UNL     1     -10.580  12.262  64.785  1.00  0.00    -0.275 OA 
BRANCH  17  18
HETATM   18  C   UNL     1     -11.986  12.537  64.746  1.00  0.00    -0.409 C  
HETATM   19  C   UNL     1     -12.329  13.008  63.344  1.00  0.00    -0.478 C  
ENDBRANCH  17  18
ENDBRANCH  15  17
ENDBRANCH   7  15
ENDBRANCH   6   7
ENDBRANCH   4   6
ENDBRANCH   3   4
ENDBRANCH   2   3
TORSDOF 11
ENDMDL
MODEL      196
REMARK 921   NORMALIZED FREE ENERGY PREDICTED BY IDOCK:   -3.22 KCAL/MOL
REMARK 922        TOTAL FREE ENERGY PREDICTED BY IDOCK:   -5.99 KCAL/MOL
REMARK 923 INTER-LIGAND FREE ENERGY PREDICTED BY IDOCK:   -5.18 KCAL/MOL
REMARK 924 INTRA-LIGAND FREE ENERGY PREDICTED BY IDOCK:   -0.81 KCAL/MOL
REMARK 927      BINDING AFFINITY PREDICTED BY RF-SCORE:    0.00 PKD
ROOT
HETATM    1  C   UNL     1     -13.883   8.835  71.927  1.00  0.00    -0.491 C  
HETATM    2  C   UNL     1     -12.373   8.840  71.771  1.00  0.00    -0.351 C  
ENDROOT
BRANCH   2   3
HETATM    3  O   UNL     1     -11.985  10.161  71.374  1.00  0.00    -0.369 OA 
BRANCH   3   4
HETATM    4  C   UNL     1     -11.883  10.377  70.039  1.00  0.00    -0.273 C  
HETATM    5  O   UNL     1     -12.656  11.035  69.353  1.00  0.00    -0.331 OA 
BRANCH   4   6
HETATM    6  C   UNL     1     -10.567   9.854  69.541  1.00  0.00    -0.264 C  
BRANCH   6   7
HETATM    7  C   UNL     1     -10.423  10.064  68.040  1.00  0.00    -0.218 C  
BRANCH   7   8
HETATM    8  S   UNL     1      -8.919  11.023  67.580  1.00  0.00    -0.138 SA 
BRANCH   8   9
HETATM    9  P   UNL     1      -9.546  12.809  66.626  1.00  0.00    -0.250 P  
HETATM   10  S   UNL     1     -10.491  11.815  65.128  1.00  0.00    -0.295 S  
BRANCH   9  11
HETATM   11  O   UNL     1     -10.574  13.205  67.865  1.00  0.00    -0.225 OA 
HETATM   12  C   UNL     1     -10.541  14.468  68.515  1.00  0.00    -0.252 C  
ENDBRANCH   9  11
BRANCH   9  13
HETATM   13  O   UNL     1     -10.057  14.267  65.847  1.00  0.00    -0.300 OA 
HETATM   14  C   UNL     1     -10.895  14.089  64.722  1.00  0.00    -0.419 C  
ENDBRANCH   9  13
ENDBRANCH   8   9
ENDBRANCH   7   8
BRANCH   7  15
HETATM   15  C   UNL     1     -10.287   8.705  67.366  1.00  0.00    -0.284 C  
HETATM   16  O   UNL     1      -9.900   8.531  66.218  1.00  0.00    -0.254 OA 
BRANCH  15  17
HETATM   17  O   UNL     1     -10.755   7.726  68.191  1.00  0.00    -0.158 OA 
BRANCH  17  18
HETATM   18  C   UNL     1     -10.397   6.392  67.810  1.00  0.00    -0.193 C  
HETATM   19  C   UNL     1      -9.198   5.976  68.644  1.00  0.00    -0.115 C  
ENDBRANCH  17  18
ENDBRANCH  15  17
ENDBRANCH   7  15
ENDBRANCH   6   7
ENDBRANCH   4   6
ENDBRANCH   3   4
ENDBRANCH   2   3
TORSDOF 11
ENDMDL
MODEL      197
REMARK 921   NORMALIZED FREE ENERGY PREDICTED BY IDOCK:   -3.22 KCAL/MOL
REMARK 922        TOTAL FREE ENERGY PREDICTED BY IDOCK:   -5.99 KCAL/MOL
REMARK 923 INTER-LIGAND FREE ENERGY PREDICTED BY IDOCK:   -5.27 KCAL/MOL
REMARK 924 INTRA-LIGAND FREE ENERGY PREDICTED BY IDOCK:   -0.71 KCAL/MOL
REMARK 927      BINDING AFFINITY PREDICTED BY RF-SCORE:    0.00 PKD
ROOT
HETATM    1  C   UNL     1     -10.040   6.997  73.358  1.00  0.00    -0.320 C  
HETATM    2  C   UNL     1     -11.100   7.899  72.752  1.00  0.00    -0.400 C  
ENDROOT
BRANCH   2   3
HETATM    3  O   UNL     1     -10.430   9.032  72.186  1.00  0.00    -0.321 OA 
BRANCH   3   4
HETATM    4  C   UNL     1     -10.856   9.423  70.959  1.00  0.00    -0.336 C  
HETATM    5  O   UNL     1     -12.020   9.609  70.624  1.00  0.00    -0.272 OA 
BRANCH   4   6
HETATM    6  C   UNL     1      -9.676   9.796  70.109  1.00  0.00    -0.299 C  
BRANCH   6   7
HETATM    7  C   UNL     1     -10.112  10.199  68.707  1.00  0.00    -0.187 C  
BRANCH   7   8
HETATM    8  S   UNL     1      -9.492  11.858  68.200  1.00  0.00    -0.197 SA 
BRANCH   8   9
HETATM    9  P   UNL     1     -11.120  12.948  67.390  1.00  0.00    -0.302 P  
HETATM   10  S   UNL     1     -11.699  13.656  69.203  1.00  0.00    -0.348 S  
BRANCH   9  11
HETATM   11  O   UNL     1     -10.119  14.004  66.592  1.00  0.00    -0.264 OA 
HETATM   12  C   UNL     1      -9.111  14.754  67.255  1.00  0.00    -0.204 C  
ENDBRANCH   9  11
BRANCH   9  13
HETATM   13  O   UNL     1     -12.448  13.837  66.729  1.00  0.00    -0.366 OA 
HETATM   14  C   UNL     1     -12.589  13.759  65.324  1.00  0.00    -0.473 C  
ENDBRANCH   9  13
ENDBRANCH   8   9
ENDBRANCH   7   8
BRANCH   7  15
HETATM   15  C   UNL     1      -9.536   9.204  67.708  1.00  0.00    -0.140 C  
HETATM   16  O   UNL     1      -9.324   9.444  66.527  1.00  0.00    -0.151 OA 
BRANCH  15  17
HETATM   17  O   UNL     1      -9.388   7.984  68.298  1.00  0.00    -0.141 OA 
BRANCH  17  18
HETATM   18  C   UNL     1     -10.437   7.047  68.021  1.00  0.00    -0.208 C  
HETATM   19  C   UNL     1     -10.537   6.097  69.200  1.00  0.00    -0.345 C  
ENDBRANCH  17  18
ENDBRANCH  15  17
ENDBRANCH   7  15
ENDBRANCH   6   7
ENDBRANCH   4   6
ENDBRANCH   3   4
ENDBRANCH   2   3
TORSDOF 11
ENDMDL
MODEL      198
REMARK 921   NORMALIZED FREE ENERGY PREDICTED BY IDOCK:   -3.21 KCAL/MOL
REMARK 922        TOTAL FREE ENERGY PREDICTED BY IDOCK:   -5.97 KCAL/MOL
REMARK 923 INTER-LIGAND FREE ENERGY PREDICTED BY IDOCK:   -5.35 KCAL/MOL
REMARK 924 INTRA-LIGAND FREE ENERGY PREDICTED BY IDOCK:   -0.63 KCAL/MOL
REMARK 927      BINDING AFFINITY PREDICTED BY RF-SCORE:    0.00 PKD
ROOT
HETATM    1  C   UNL     1     -11.471   6.401  70.560  1.00  0.00    -0.444 C  
HETATM    2  C   UNL     1     -11.126   6.438  69.081  1.00  0.00    -0.365 C  
ENDROOT
BRANCH   2   3
HETATM    3  O   UNL     1     -10.612   7.743  68.791  1.00  0.00    -0.202 OA 
BRANCH   3   4
HETATM    4  C   UNL     1     -10.312   7.990  67.492  1.00  0.00    -0.261 C  
HETATM    5  O   UNL     1      -9.990   7.157  66.654  1.00  0.00    -0.202 OA 
BRANCH   4   6
HETATM    6  C   UNL     1     -10.625   9.421  67.163  1.00  0.00    -0.294 C  
BRANCH   6   7
HETATM    7  C   UNL     1      -9.481  10.074  66.400  1.00  0.00    -0.186 C  
BRANCH   7   8
HETATM    8  S   UNL     1     -10.050  11.243  65.095  1.00  0.00    -0.292 SA 
BRANCH   8   9
HETATM    9  P   UNL     1     -11.282  12.704  66.013  1.00  0.00    -0.341 P  
HETATM   10  S   UNL     1     -10.211  14.253  65.251  1.00  0.00    -0.359 S  
BRANCH   9  11
HETATM   11  O   UNL     1     -12.587  12.315  65.067  1.00  0.00    -0.575 OA 
HETATM   12  C   UNL     1     -12.525  12.290  63.647  1.00  0.00    -0.541 C  
ENDBRANCH   9  11
BRANCH   9  13
HETATM   13  O   UNL     1     -12.286  13.897  66.763  1.00  0.00    -0.429 OA 
HETATM   14  C   UNL     1     -12.091  14.064  68.154  1.00  0.00    -0.272 C  
ENDBRANCH   9  13
ENDBRANCH   8   9
ENDBRANCH   7   8
BRANCH   7  15
HETATM   15  C   UNL     1      -8.646  10.895  67.374  1.00  0.00    -0.127 C  
HETATM   16  O   UNL     1      -8.989  11.189  68.511  1.00  0.00    -0.158 OA 
BRANCH  15  17
HETATM   17  O   UNL     1      -7.513  11.338  66.758  1.00  0.00    -0.138 OA 
BRANCH  17  18
HETATM   18  C   UNL     1      -6.478  10.357  66.618  1.00  0.00    -0.080 C  
HETATM   19  C   UNL     1      -5.145  11.083  66.625  1.00  0.00    -0.084 C  
ENDBRANCH  17  18
ENDBRANCH  15  17
ENDBRANCH   7  15
ENDBRANCH   6   7
ENDBRANCH   4   6
ENDBRANCH   3   4
ENDBRANCH   2   3
TORSDOF 11
ENDMDL
MODEL      199
REMARK 921   NORMALIZED FREE ENERGY PREDICTED BY IDOCK:   -3.21 KCAL/MOL
REMARK 922        TOTAL FREE ENERGY PREDICTED BY IDOCK:   -5.97 KCAL/MOL
REMARK 923 INTER-LIGAND FREE ENERGY PREDICTED BY IDOCK:   -5.47 KCAL/MOL
REMARK 924 INTRA-LIGAND FREE ENERGY PREDICTED BY IDOCK:   -0.50 KCAL/MOL
REMARK 927      BINDING AFFINITY PREDICTED BY RF-SCORE:    0.00 PKD
ROOT
HETATM    1  C   UNL     1      -9.400   9.007  71.275  1.00  0.00    -0.324 C  
HETATM    2  C   UNL     1      -9.226   8.938  69.768  1.00  0.00    -0.165 C  
ENDROOT
BRANCH   2   3
HETATM    3  O   UNL     1      -8.942  10.264  69.305  1.00  0.00    -0.168 OA 
BRANCH   3   4
HETATM    4  C   UNL     1      -8.280  10.353  68.125  1.00  0.00    -0.116 C  
HETATM    5  O   UNL     1      -7.088  10.135  67.947  1.00  0.00    -0.083 OA 
BRANCH   4   6
HETATM    6  C   UNL     1      -9.262  10.569  67.009  1.00  0.00    -0.167 C  
BRANCH   6   7
HETATM    7  C   UNL     1     -10.182  11.745  67.305  1.00  0.00    -0.203 C  
BRANCH   7   8
HETATM    8  S   UNL     1      -9.320  13.372  67.273  1.00  0.00    -0.243 SA 
BRANCH   8   9
HETATM    9  P   UNL     1     -10.574  14.799  68.213  1.00  0.00    -0.254 P  
HETATM   10  S   UNL     1      -9.056  15.577  69.317  1.00  0.00    -0.270 S  
BRANCH   9  11
HETATM   11  O   UNL     1     -10.817  15.634  66.801  1.00  0.00    -0.317 OA 
HETATM   12  C   UNL     1      -9.788  15.836  65.842  1.00  0.00    -0.349 C  
ENDBRANCH   9  11
BRANCH   9  13
HETATM   13  O   UNL     1     -11.597  15.964  68.982  1.00  0.00    -0.370 OA 
HETATM   14  C   UNL     1     -12.015  15.631  70.291  1.00  0.00    -0.374 C  
ENDBRANCH   9  13
ENDBRANCH   8   9
ENDBRANCH   7   8
BRANCH   7  15
HETATM   15  C   UNL     1     -11.257  11.810  66.228  1.00  0.00    -0.312 C  
HETATM   16  O   UNL     1     -12.397  12.220  66.403  1.00  0.00    -0.531 OA 
BRANCH  15  17
HETATM   17  O   UNL     1     -10.795  11.249  65.074  1.00  0.00    -0.282 OA 
BRANCH  17  18
HETATM   18  C   UNL     1     -10.806  12.117  63.934  1.00  0.00    -0.406 C  
HETATM   19  C   UNL     1     -12.181  12.030  63.297  1.00  0.00    -0.531 C  
ENDBRANCH  17  18
ENDBRANCH  15  17
ENDBRANCH   7  15
ENDBRANCH   6   7
ENDBRANCH   4   6
ENDBRANCH   3   4
ENDBRANCH   2   3
TORSDOF 11
ENDMDL
MODEL      200
REMARK 921   NORMALIZED FREE ENERGY PREDICTED BY IDOCK:   -3.19 KCAL/MOL
REMARK 922        TOTAL FREE ENERGY PREDICTED BY IDOCK:   -5.94 KCAL/MOL
REMARK 923 INTER-LIGAND FREE ENERGY PREDICTED BY IDOCK:   -5.23 KCAL/MOL
REMARK 924 INTRA-LIGAND FREE ENERGY PREDICTED BY IDOCK:   -0.71 KCAL/MOL
REMARK 927      BINDING AFFINITY PREDICTED BY RF-SCORE:    0.00 PKD
ROOT
HETATM    1  C   UNL     1      -8.819  19.471  66.528  1.00  0.00    -0.395 C  
HETATM    2  C   UNL     1      -7.776  18.578  65.879  1.00  0.00    -0.095 C  
ENDROOT
BRANCH   2   3
HETATM    3  O   UNL     1      -8.279  17.237  65.907  1.00  0.00    -0.534 OA 
BRANCH   3   4
HETATM    4  C   UNL     1      -7.529  16.335  66.587  1.00  0.00    -0.203 C  
HETATM    5  O   UNL     1      -6.324  16.152  66.458  1.00  0.00    -0.167 OA 
BRANCH   4   6
HETATM    6  C   UNL     1      -8.352  15.713  67.678  1.00  0.00    -0.168 C  
BRANCH   6   7
HETATM    7  C   UNL     1      -9.802  16.169  67.603  1.00  0.00    -0.236 C  
BRANCH   7   8
HETATM    8  S   UNL     1     -10.972  14.812  67.179  1.00  0.00    -0.328 SA 
BRANCH   8   9
HETATM    9  P   UNL     1      -9.959  12.967  67.433  1.00  0.00    -0.237 P  
HETATM   10  S   UNL     1     -11.247  12.324  68.865  1.00  0.00    -0.285 S  
BRANCH   9  11
HETATM   11  O   UNL     1     -10.382  12.435  65.920  1.00  0.00    -0.246 OA 
HETATM   12  C   UNL     1     -11.622  12.765  65.310  1.00  0.00    -0.344 C  
ENDBRANCH   9  11
BRANCH   9  13
HETATM   13  O   UNL     1      -9.132  11.462  67.641  1.00  0.00    -0.150 OA 
HETATM   14  C   UNL     1      -9.571  10.677  68.733  1.00  0.00    -0.186 C  
ENDBRANCH   9  13
ENDBRANCH   8   9
ENDBRANCH   7   8
BRANCH   7  15
HETATM   15  C   UNL     1     -10.225  16.686  68.972  1.00  0.00    -0.301 C  
HETATM   16  O   UNL     1     -10.152  17.853  69.331  1.00  0.00    -0.210 OA 
BRANCH  15  17
HETATM   17  O   UNL     1     -10.598  15.644  69.769  1.00  0.00    -0.258 OA 
BRANCH  17  18
HETATM   18  C   UNL     1     -11.705  15.912  70.637  1.00  0.00    -0.384 C  
HETATM   19  C   UNL     1     -11.417  15.257  71.975  1.00  0.00    -0.500 C  
ENDBRANCH  17  18
ENDBRANCH  15  17
ENDBRANCH   7  15
ENDBRANCH   6   7
ENDBRANCH   4   6
ENDBRANCH   3   4
ENDBRANCH   2   3
TORSDOF 11
ENDMDL
MODEL      201
REMARK 921   NORMALIZED FREE ENERGY PREDICTED BY IDOCK:   -3.18 KCAL/MOL
REMARK 922        TOTAL FREE ENERGY PREDICTED BY IDOCK:   -5.93 KCAL/MOL
REMARK 923 INTER-LIGAND FREE ENERGY PREDICTED BY IDOCK:   -5.38 KCAL/MOL
REMARK 924 INTRA-LIGAND FREE ENERGY PREDICTED BY IDOCK:   -0.55 KCAL/MOL
REMARK 927      BINDING AFFINITY PREDICTED BY RF-SCORE:    0.00 PKD
ROOT
HETATM    1  C   UNL     1     -13.610  14.147  72.235  1.00  0.00    -0.596 C  
HETATM    2  C   UNL     1     -12.171  14.497  71.899  1.00  0.00    -0.285 C  
ENDROOT
BRANCH   2   3
HETATM    3  O   UNL     1     -11.930  14.081  70.550  1.00  0.00    -0.313 OA 
BRANCH   3   4
HETATM    4  C   UNL     1     -11.753  15.073  69.643  1.00  0.00    -0.321 C  
HETATM    5  O   UNL     1     -12.597  15.887  69.289  1.00  0.00     0.036 OA 
BRANCH   4   6
HETATM    6  C   UNL     1     -10.302  15.165  69.270  1.00  0.00    -0.258 C  
BRANCH   6   7
HETATM    7  C   UNL     1     -10.090  14.843  67.797  1.00  0.00    -0.234 C  
BRANCH   7   8
HETATM    8  S   UNL     1     -11.210  13.521  67.172  1.00  0.00    -0.317 SA 
BRANCH   8   9
HETATM    9  P   UNL     1     -10.044  12.142  66.062  1.00  0.00    -0.244 P  
HETATM   10  S   UNL     1      -8.325  12.650  67.018  1.00  0.00    -0.080 S  
BRANCH   9  11
HETATM   11  O   UNL     1     -10.787  10.832  66.758  1.00  0.00    -0.249 OA 
HETATM   12  C   UNL     1     -10.965  10.707  68.162  1.00  0.00    -0.269 C  
ENDBRANCH   9  11
BRANCH   9  13
HETATM   13  O   UNL     1      -9.091  11.017  65.157  1.00  0.00    -0.205 OA 
HETATM   14  C   UNL     1      -9.522  10.790  63.830  1.00  0.00    -0.283 C  
ENDBRANCH   9  13
ENDBRANCH   8   9
ENDBRANCH   7   8
BRANCH   7  15
HETATM   15  C   UNL     1     -10.396  16.087  66.974  1.00  0.00    -0.292 C  
HETATM   16  O   UNL     1     -10.811  16.078  65.822  1.00  0.00    -0.305 OA 
BRANCH  15  17
HETATM   17  O   UNL     1     -10.044  17.206  67.670  1.00  0.00    -0.284 OA 
BRANCH  17  18
HETATM   18  C   UNL     1     -10.750  18.396  67.300  1.00  0.00    -0.353 C  
HETATM   19  C   UNL     1     -10.369  19.488  68.283  1.00  0.00    -0.524 C  
ENDBRANCH  17  18
ENDBRANCH  15  17
ENDBRANCH   7  15
ENDBRANCH   6   7
ENDBRANCH   4   6
ENDBRANCH   3   4
ENDBRANCH   2   3
TORSDOF 11
ENDMDL
MODEL      202
REMARK 921   NORMALIZED FREE ENERGY PREDICTED BY IDOCK:   -3.18 KCAL/MOL
REMARK 922        TOTAL FREE ENERGY PREDICTED BY IDOCK:   -5.93 KCAL/MOL
REMARK 923 INTER-LIGAND FREE ENERGY PREDICTED BY IDOCK:   -5.15 KCAL/MOL
REMARK 924 INTRA-LIGAND FREE ENERGY PREDICTED BY IDOCK:   -0.77 KCAL/MOL
REMARK 927      BINDING AFFINITY PREDICTED BY RF-SCORE:    0.00 PKD
ROOT
HETATM    1  C   UNL     1     -12.177  14.362  64.246  1.00  0.00    -0.450 C  
HETATM    2  C   UNL     1     -12.741  13.882  65.571  1.00  0.00    -0.499 C  
ENDROOT
BRANCH   2   3
HETATM    3  O   UNL     1     -12.327  12.522  65.749  1.00  0.00    -0.627 OA 
BRANCH   3   4
HETATM    4  C   UNL     1     -11.693  12.240  66.914  1.00  0.00    -0.334 C  
HETATM    5  O   UNL     1     -12.226  11.900  67.963  1.00  0.00    -0.491 OA 
BRANCH   4   6
HETATM    6  C   UNL     1     -10.209  12.211  66.687  1.00  0.00    -0.223 C  
BRANCH   6   7
HETATM    7  C   UNL     1      -9.449  12.513  67.971  1.00  0.00    -0.209 C  
BRANCH   7   8
HETATM    8  S   UNL     1      -8.081  11.325  68.304  1.00  0.00    -0.144 SA 
BRANCH   8   9
HETATM    9  P   UNL     1      -8.934   9.534  69.054  1.00  0.00    -0.158 P  
HETATM   10  S   UNL     1      -7.321   9.116  70.216  1.00  0.00    -0.106 S  
BRANCH   9  11
HETATM   11  O   UNL     1     -10.114  10.350  69.885  1.00  0.00    -0.209 OA 
HETATM   12  C   UNL     1     -11.287   9.714  70.374  1.00  0.00    -0.277 C  
ENDBRANCH   9  11
BRANCH   9  13
HETATM   13  O   UNL     1      -9.629   8.073  69.666  1.00  0.00    -0.167 OA 
HETATM   14  C   UNL     1      -9.115   6.880  69.108  1.00  0.00    -0.136 C  
ENDBRANCH   9  13
ENDBRANCH   8   9
ENDBRANCH   7   8
BRANCH   7  15
HETATM   15  C   UNL     1      -8.801  13.886  67.846  1.00  0.00    -0.184 C  
HETATM   16  O   UNL     1      -7.706  14.184  68.301  1.00  0.00    -0.119 OA 
BRANCH  15  17
HETATM   17  O   UNL     1      -9.664  14.755  67.247  1.00  0.00    -0.225 OA 
BRANCH  17  18
HETATM   18  C   UNL     1      -9.056  15.938  66.712  1.00  0.00    -0.248 C  
HETATM   19  C   UNL     1     -10.149  16.773  66.071  1.00  0.00    -0.350 C  
ENDBRANCH  17  18
ENDBRANCH  15  17
ENDBRANCH   7  15
ENDBRANCH   6   7
ENDBRANCH   4   6
ENDBRANCH   3   4
ENDBRANCH   2   3
TORSDOF 11
ENDMDL
MODEL      203
REMARK 921   NORMALIZED FREE ENERGY PREDICTED BY IDOCK:   -3.18 KCAL/MOL
REMARK 922        TOTAL FREE ENERGY PREDICTED BY IDOCK:   -5.92 KCAL/MOL
REMARK 923 INTER-LIGAND FREE ENERGY PREDICTED BY IDOCK:   -5.02 KCAL/MOL
REMARK 924 INTRA-LIGAND FREE ENERGY PREDICTED BY IDOCK:   -0.91 KCAL/MOL
REMARK 927      BINDING AFFINITY PREDICTED BY RF-SCORE:    0.00 PKD
ROOT
HETATM    1  C   UNL     1     -11.166   5.242  72.692  1.00  0.00    -0.311 C  
HETATM    2  C   UNL     1     -10.948   5.994  71.391  1.00  0.00    -0.276 C  
ENDROOT
BRANCH   2   3
HETATM    3  O   UNL     1     -11.975   6.987  71.290  1.00  0.00    -0.307 OA 
BRANCH   3   4
HETATM    4  C   UNL     1     -11.559   8.278  71.306  1.00  0.00    -0.281 C  
HETATM    5  O   UNL     1     -12.004   9.171  72.016  1.00  0.00    -0.367 OA 
BRANCH   4   6
HETATM    6  C   UNL     1     -10.325   8.422  70.463  1.00  0.00    -0.220 C  
BRANCH   6   7
HETATM    7  C   UNL     1     -10.630   9.146  69.159  1.00  0.00    -0.208 C  
BRANCH   7   8
HETATM    8  S   UNL     1      -9.597  10.649  68.901  1.00  0.00    -0.190 SA 
BRANCH   8   9
HETATM    9  P   UNL     1     -10.893  12.269  68.465  1.00  0.00    -0.251 P  
HETATM   10  S   UNL     1     -11.101  11.730  66.518  1.00  0.00    -0.309 S  
BRANCH   9  11
HETATM   11  O   UNL     1     -12.106  11.661  69.420  1.00  0.00    -0.306 OA 
HETATM   12  C   UNL     1     -12.423  12.202  70.695  1.00  0.00    -0.242 C  
ENDBRANCH   9  11
BRANCH   9  13
HETATM   13  O   UNL     1     -11.951  13.592  68.109  1.00  0.00    -0.358 OA 
HETATM   14  C   UNL     1     -11.309  14.790  67.719  1.00  0.00    -0.330 C  
ENDBRANCH   9  13
ENDBRANCH   8   9
ENDBRANCH   7   8
BRANCH   7  15
HETATM   15  C   UNL     1     -10.322   8.211  67.996  1.00  0.00    -0.211 C  
HETATM   16  O   UNL     1      -9.581   8.482  67.061  1.00  0.00    -0.162 OA 
BRANCH  15  17
HETATM   17  O   UNL     1     -11.071   7.076  68.099  1.00  0.00    -0.133 OA 
BRANCH  17  18
HETATM   18  C   UNL     1     -10.840   6.105  67.072  1.00  0.00    -0.356 C  
HETATM   19  C   UNL     1      -9.901   5.051  67.631  1.00  0.00    -0.202 C  
ENDBRANCH  17  18
ENDBRANCH  15  17
ENDBRANCH   7  15
ENDBRANCH   6   7
ENDBRANCH   4   6
ENDBRANCH   3   4
ENDBRANCH   2   3
TORSDOF 11
ENDMDL
MODEL      204
REMARK 921   NORMALIZED FREE ENERGY PREDICTED BY IDOCK:   -3.17 KCAL/MOL
REMARK 922        TOTAL FREE ENERGY PREDICTED BY IDOCK:   -5.91 KCAL/MOL
REMARK 923 INTER-LIGAND FREE ENERGY PREDICTED BY IDOCK:   -5.07 KCAL/MOL
REMARK 924 INTRA-LIGAND FREE ENERGY PREDICTED BY IDOCK:   -0.84 KCAL/MOL
REMARK 927      BINDING AFFINITY PREDICTED BY RF-SCORE:    0.00 PKD
ROOT
HETATM    1  C   UNL     1      -6.850  12.276  68.820  1.00  0.00    -0.092 C  
HETATM    2  C   UNL     1      -7.714  11.073  68.485  1.00  0.00    -0.122 C  
ENDROOT
BRANCH   2   3
HETATM    3  O   UNL     1      -9.083  11.482  68.596  1.00  0.00    -0.178 OA 
BRANCH   3   4
HETATM    4  C   UNL     1      -9.822  11.402  67.462  1.00  0.00    -0.178 C  
HETATM    5  O   UNL     1      -9.479  10.872  66.412  1.00  0.00    -0.179 OA 
BRANCH   4   6
HETATM    6  C   UNL     1     -11.217  11.886  67.732  1.00  0.00    -0.330 C  
BRANCH   6   7
HETATM    7  C   UNL     1     -11.249  12.840  68.918  1.00  0.00    -0.283 C  
BRANCH   7   8
HETATM    8  S   UNL     1     -12.122  14.422  68.558  1.00  0.00    -0.173 SA 
BRANCH   8   9
HETATM    9  P   UNL     1     -10.737  15.744  67.649  1.00  0.00    -0.300 P  
HETATM   10  S   UNL     1      -9.208  15.151  68.848  1.00  0.00    -0.217 S  
BRANCH   9  11
HETATM   11  O   UNL     1     -10.768  14.917  66.212  1.00  0.00    -0.305 OA 
HETATM   12  C   UNL     1     -10.918  15.566  64.957  1.00  0.00    -0.440 C  
ENDBRANCH   9  11
BRANCH   9  13
HETATM   13  O   UNL     1      -9.606  16.824  66.909  1.00  0.00    -0.231 OA 
HETATM   14  C   UNL     1      -9.525  18.109  67.493  1.00  0.00    -0.262 C  
ENDBRANCH   9  13
ENDBRANCH   8   9
ENDBRANCH   7   8
BRANCH   7  15
HETATM   15  C   UNL     1     -12.015  12.179  70.057  1.00  0.00    -0.315 C  
HETATM   16  O   UNL     1     -12.432  12.763  71.049  1.00  0.00    -0.376 OA 
BRANCH  15  17
HETATM   17  O   UNL     1     -12.074  10.831  69.859  1.00  0.00    -0.309 OA 
BRANCH  17  18
HETATM   18  C   UNL     1     -11.984  10.041  71.051  1.00  0.00    -0.376 C  
HETATM   19  C   UNL     1     -10.584   9.456  71.116  1.00  0.00    -0.403 C  
ENDBRANCH  17  18
ENDBRANCH  15  17
ENDBRANCH   7  15
ENDBRANCH   6   7
ENDBRANCH   4   6
ENDBRANCH   3   4
ENDBRANCH   2   3
TORSDOF 11
ENDMDL
MODEL      205
REMARK 921   NORMALIZED FREE ENERGY PREDICTED BY IDOCK:   -3.17 KCAL/MOL
REMARK 922        TOTAL FREE ENERGY PREDICTED BY IDOCK:   -5.91 KCAL/MOL
REMARK 923 INTER-LIGAND FREE ENERGY PREDICTED BY IDOCK:   -5.28 KCAL/MOL
REMARK 924 INTRA-LIGAND FREE ENERGY PREDICTED BY IDOCK:   -0.63 KCAL/MOL
REMARK 927      BINDING AFFINITY PREDICTED BY RF-SCORE:    0.00 PKD
ROOT
HETATM    1  C   UNL     1      -7.117  12.160  67.407  1.00  0.00    -0.146 C  
HETATM    2  C   UNL     1      -7.646  11.193  66.362  1.00  0.00    -0.109 C  
ENDROOT
BRANCH   2   3
HETATM    3  O   UNL     1      -7.856   9.932  67.009  1.00  0.00    -0.101 OA 
BRANCH   3   4
HETATM    4  C   UNL     1      -9.112   9.427  66.933  1.00  0.00    -0.135 C  
HETATM    5  O   UNL     1      -9.428   8.251  67.074  1.00  0.00    -0.155 OA 
BRANCH   4   6
HETATM    6  C   UNL     1     -10.105  10.550  66.848  1.00  0.00    -0.265 C  
BRANCH   6   7
HETATM    7  C   UNL     1     -10.996  10.592  68.082  1.00  0.00    -0.269 C  
BRANCH   7   8
HETATM    8  S   UNL     1     -10.060  10.448  69.662  1.00  0.00    -0.140 SA 
BRANCH   8   9
HETATM    9  P   UNL     1     -11.129   9.139  70.941  1.00  0.00    -0.347 P  
HETATM   10  S   UNL     1      -9.460   8.577  71.953  1.00  0.00    -0.302 S  
BRANCH   9  11
HETATM   11  O   UNL     1     -11.926  10.388  71.686  1.00  0.00    -0.291 OA 
HETATM   12  C   UNL     1     -13.334  10.558  71.602  1.00  0.00    -0.324 C  
ENDBRANCH   9  11
BRANCH   9  13
HETATM   13  O   UNL     1     -12.001   8.069  71.985  1.00  0.00    -0.294 OA 
HETATM   14  C   UNL     1     -12.573   6.941  71.353  1.00  0.00    -0.353 C  
ENDBRANCH   9  13
ENDBRANCH   8   9
ENDBRANCH   7   8
BRANCH   7  15
HETATM   15  C   UNL     1     -11.706  11.939  68.128  1.00  0.00    -0.320 C  
HETATM   16  O   UNL     1     -11.947  12.567  69.150  1.00  0.00    -0.287 OA 
BRANCH  15  17
HETATM   17  O   UNL     1     -12.124  12.288  66.877  1.00  0.00    -0.583 OA 
BRANCH  17  18
HETATM   18  C   UNL     1     -12.021  13.685  66.574  1.00  0.00    -0.424 C  
HETATM   19  C   UNL     1     -12.848  13.953  65.330  1.00  0.00    -0.437 C  
ENDBRANCH  17  18
ENDBRANCH  15  17
ENDBRANCH   7  15
ENDBRANCH   6   7
ENDBRANCH   4   6
ENDBRANCH   3   4
ENDBRANCH   2   3
TORSDOF 11
ENDMDL
MODEL      206
REMARK 921   NORMALIZED FREE ENERGY PREDICTED BY IDOCK:   -3.16 KCAL/MOL
REMARK 922        TOTAL FREE ENERGY PREDICTED BY IDOCK:   -5.89 KCAL/MOL
REMARK 923 INTER-LIGAND FREE ENERGY PREDICTED BY IDOCK:   -5.13 KCAL/MOL
REMARK 924 INTRA-LIGAND FREE ENERGY PREDICTED BY IDOCK:   -0.77 KCAL/MOL
REMARK 927      BINDING AFFINITY PREDICTED BY RF-SCORE:    0.00 PKD
ROOT
HETATM    1  C   UNL     1      -8.997  19.676  68.434  1.00  0.00    -0.372 C  
HETATM    2  C   UNL     1      -9.721  18.395  68.060  1.00  0.00    -0.316 C  
ENDROOT
BRANCH   2   3
HETATM    3  O   UNL     1      -8.747  17.346  68.019  1.00  0.00    -0.229 OA 
BRANCH   3   4
HETATM    4  C   UNL     1      -8.508  16.802  66.800  1.00  0.00    -0.234 C  
HETATM    5  O   UNL     1      -8.506  17.399  65.731  1.00  0.00    -0.532 OA 
BRANCH   4   6
HETATM    6  C   UNL     1      -8.044  15.383  66.961  1.00  0.00    -0.265 C  
BRANCH   6   7
HETATM    7  C   UNL     1      -9.034  14.569  67.782  1.00  0.00    -0.190 C  
BRANCH   7   8
HETATM    8  S   UNL     1     -10.730  14.542  67.062  1.00  0.00    -0.295 SA 
BRANCH   8   9
HETATM    9  P   UNL     1     -10.621  13.605  65.163  1.00  0.00    -0.397 P  
HETATM   10  S   UNL     1     -11.461  11.882  65.837  1.00  0.00    -0.199 S  
BRANCH   9  11
HETATM   11  O   UNL     1     -11.741  14.634  64.502  1.00  0.00    -0.412 OA 
HETATM   12  C   UNL     1     -11.468  16.007  64.254  1.00  0.00    -0.157 C  
ENDBRANCH   9  11
BRANCH   9  13
HETATM   13  O   UNL     1     -10.533  12.839  63.614  1.00  0.00    -0.382 OA 
HETATM   14  C   UNL     1     -11.305  11.662  63.477  1.00  0.00    -0.354 C  
ENDBRANCH   9  13
ENDBRANCH   8   9
ENDBRANCH   7   8
BRANCH   7  15
HETATM   15  C   UNL     1      -8.564  13.121  67.824  1.00  0.00    -0.188 C  
HETATM   16  O   UNL     1      -7.776  12.621  67.033  1.00  0.00    -0.123 OA 
BRANCH  15  17
HETATM   17  O   UNL     1      -9.228  12.444  68.804  1.00  0.00    -0.035 OA 
BRANCH  17  18
HETATM   18  C   UNL     1      -9.229  11.018  68.658  1.00  0.00    -0.185 C  
HETATM   19  C   UNL     1     -10.426  10.474  69.416  1.00  0.00    -0.264 C  
ENDBRANCH  17  18
ENDBRANCH  15  17
ENDBRANCH   7  15
ENDBRANCH   6   7
ENDBRANCH   4   6
ENDBRANCH   3   4
ENDBRANCH   2   3
TORSDOF 11
ENDMDL
MODEL      207
REMARK 921   NORMALIZED FREE ENERGY PREDICTED BY IDOCK:   -3.16 KCAL/MOL
REMARK 922        TOTAL FREE ENERGY PREDICTED BY IDOCK:   -5.89 KCAL/MOL
REMARK 923 INTER-LIGAND FREE ENERGY PREDICTED BY IDOCK:   -5.20 KCAL/MOL
REMARK 924 INTRA-LIGAND FREE ENERGY PREDICTED BY IDOCK:   -0.69 KCAL/MOL
REMARK 927      BINDING AFFINITY PREDICTED BY RF-SCORE:    0.00 PKD
ROOT
HETATM    1  C   UNL     1      -7.395   9.308  70.528  1.00  0.00    -0.120 C  
HETATM    2  C   UNL     1      -7.532   8.460  71.779  1.00  0.00    -0.103 C  
ENDROOT
BRANCH   2   3
HETATM    3  O   UNL     1      -8.774   8.808  72.403  1.00  0.00    -0.392 OA 
BRANCH   3   4
HETATM    4  C   UNL     1      -9.216   7.960  73.364  1.00  0.00    -0.286 C  
HETATM    5  O   UNL     1      -8.550   7.500  74.284  1.00  0.00    -0.206 OA 
BRANCH   4   6
HETATM    6  C   UNL     1     -10.707   7.813  73.262  1.00  0.00    -0.335 C  
BRANCH   6   7
HETATM    7  C   UNL     1     -11.209   8.228  71.886  1.00  0.00    -0.300 C  
BRANCH   7   8
HETATM    8  S   UNL     1     -11.698   6.801  70.828  1.00  0.00    -0.392 SA 
BRANCH   8   9
HETATM    9  P   UNL     1     -10.100   6.391  69.498  1.00  0.00    -0.193 P  
HETATM   10  S   UNL     1      -9.860   4.495  70.186  1.00  0.00    -0.212 S  
BRANCH   9  11
HETATM   11  O   UNL     1     -11.085   6.458  68.166  1.00  0.00    -0.311 OA 
HETATM   12  C   UNL     1     -10.676   7.044  66.937  1.00  0.00    -0.306 C  
ENDBRANCH   9  11
BRANCH   9  13
HETATM   13  O   UNL     1      -8.794   6.057  68.413  1.00  0.00    -0.113 OA 
HETATM   14  C   UNL     1      -8.154   4.811  68.604  1.00  0.00    -0.083 C  
ENDBRANCH   9  13
ENDBRANCH   8   9
ENDBRANCH   7   8
BRANCH   7  15
HETATM   15  C   UNL     1     -12.459   9.081  72.057  1.00  0.00    -0.390 C  
HETATM   16  O   UNL     1     -13.377   8.829  72.825  1.00  0.00    -0.357 OA 
BRANCH  15  17
HETATM   17  O   UNL     1     -12.450  10.106  71.158  1.00  0.00    -0.325 OA 
BRANCH  17  18
HETATM   18  C   UNL     1     -12.961  11.350  71.653  1.00  0.00    -0.418 C  
HETATM   19  C   UNL     1     -12.341  12.467  70.834  1.00  0.00    -0.358 C  
ENDBRANCH  17  18
ENDBRANCH  15  17
ENDBRANCH   7  15
ENDBRANCH   6   7
ENDBRANCH   4   6
ENDBRANCH   3   4
ENDBRANCH   2   3
TORSDOF 11
ENDMDL
MODEL      208
REMARK 921   NORMALIZED FREE ENERGY PREDICTED BY IDOCK:   -3.16 KCAL/MOL
REMARK 922        TOTAL FREE ENERGY PREDICTED BY IDOCK:   -5.89 KCAL/MOL
REMARK 923 INTER-LIGAND FREE ENERGY PREDICTED BY IDOCK:   -5.17 KCAL/MOL
REMARK 924 INTRA-LIGAND FREE ENERGY PREDICTED BY IDOCK:   -0.71 KCAL/MOL
REMARK 927      BINDING AFFINITY PREDICTED BY RF-SCORE:    0.00 PKD
ROOT
HETATM    1  C   UNL     1     -10.531   7.040  73.737  1.00  0.00    -0.392 C  
HETATM    2  C   UNL     1     -11.345   7.496  72.540  1.00  0.00    -0.334 C  
ENDROOT
BRANCH   2   3
HETATM    3  O   UNL     1     -10.787   8.735  72.085  1.00  0.00    -0.354 OA 
BRANCH   3   4
HETATM    4  C   UNL     1      -9.579   8.655  71.474  1.00  0.00    -0.257 C  
HETATM    5  O   UNL     1      -8.539   9.176  71.859  1.00  0.00    -0.332 OA 
BRANCH   4   6
HETATM    6  C   UNL     1      -9.645   7.661  70.351  1.00  0.00    -0.168 C  
BRANCH   6   7
HETATM    7  C   UNL     1     -10.347   8.250  69.135  1.00  0.00    -0.217 C  
BRANCH   7   8
HETATM    8  S   UNL     1      -9.448   9.677  68.394  1.00  0.00    -0.138 SA 
BRANCH   8   9
HETATM    9  P   UNL     1     -10.882  10.995  67.558  1.00  0.00    -0.296 P  
HETATM   10  S   UNL     1      -9.887  12.654  68.177  1.00  0.00    -0.226 S  
BRANCH   9  11
HETATM   11  O   UNL     1     -10.488  10.568  66.005  1.00  0.00    -0.225 OA 
HETATM   12  C   UNL     1      -9.207  10.065  65.649  1.00  0.00    -0.186 C  
ENDBRANCH   9  11
BRANCH   9  13
HETATM   13  O   UNL     1     -12.052  12.072  66.877  1.00  0.00    -0.608 OA 
HETATM   14  C   UNL     1     -11.590  13.384  66.621  1.00  0.00    -0.362 C  
ENDBRANCH   9  13
ENDBRANCH   8   9
ENDBRANCH   7   8
BRANCH   7  15
HETATM   15  C   UNL     1     -10.427   7.184  68.050  1.00  0.00    -0.201 C  
HETATM   16  O   UNL     1     -10.966   7.334  66.962  1.00  0.00    -0.358 OA 
BRANCH  15  17
HETATM   17  O   UNL     1      -9.901   6.012  68.509  1.00  0.00    -0.122 OA 
BRANCH  17  18
HETATM   18  C   UNL     1      -9.874   4.947  67.551  1.00  0.00    -0.167 C  
HETATM   19  C   UNL     1      -9.336   3.710  68.247  1.00  0.00    -0.228 C  
ENDBRANCH  17  18
ENDBRANCH  15  17
ENDBRANCH   7  15
ENDBRANCH   6   7
ENDBRANCH   4   6
ENDBRANCH   3   4
ENDBRANCH   2   3
TORSDOF 11
ENDMDL
MODEL      209
REMARK 921   NORMALIZED FREE ENERGY PREDICTED BY IDOCK:   -3.16 KCAL/MOL
REMARK 922        TOTAL FREE ENERGY PREDICTED BY IDOCK:   -5.88 KCAL/MOL
REMARK 923 INTER-LIGAND FREE ENERGY PREDICTED BY IDOCK:   -5.04 KCAL/MOL
REMARK 924 INTRA-LIGAND FREE ENERGY PREDICTED BY IDOCK:   -0.84 KCAL/MOL
REMARK 927      BINDING AFFINITY PREDICTED BY RF-SCORE:    0.00 PKD
ROOT
HETATM    1  C   UNL     1     -11.488   5.074  73.084  1.00  0.00    -0.362 C  
HETATM    2  C   UNL     1     -10.577   5.659  72.019  1.00  0.00    -0.229 C  
ENDROOT
BRANCH   2   3
HETATM    3  O   UNL     1     -11.410   6.133  70.954  1.00  0.00    -0.313 OA 
BRANCH   3   4
HETATM    4  C   UNL     1     -12.200   7.197  71.245  1.00  0.00    -0.365 C  
HETATM    5  O   UNL     1     -13.422   7.187  71.328  1.00  0.00    -0.362 OA 
BRANCH   4   6
HETATM    6  C   UNL     1     -11.348   8.364  71.651  1.00  0.00    -0.349 C  
BRANCH   6   7
HETATM    7  C   UNL     1     -10.358   8.732  70.555  1.00  0.00    -0.203 C  
BRANCH   7   8
HETATM    8  S   UNL     1     -10.811  10.273  69.652  1.00  0.00    -0.288 SA 
BRANCH   8   9
HETATM    9  P   UNL     1     -10.533   9.925  67.579  1.00  0.00    -0.267 P  
HETATM   10  S   UNL     1      -8.850  11.058  67.496  1.00  0.00    -0.131 S  
BRANCH   9  11
HETATM   11  O   UNL     1     -10.199   8.317  67.812  1.00  0.00    -0.197 OA 
HETATM   12  C   UNL     1     -10.771   7.291  67.012  1.00  0.00    -0.336 C  
ENDBRANCH   9  11
BRANCH   9  13
HETATM   13  O   UNL     1     -10.307   9.642  65.887  1.00  0.00    -0.207 OA 
HETATM   14  C   UNL     1      -9.801  10.740  65.154  1.00  0.00    -0.277 C  
ENDBRANCH   9  13
ENDBRANCH   8   9
ENDBRANCH   7   8
BRANCH   7  15
HETATM   15  C   UNL     1      -8.998   8.993  71.189  1.00  0.00    -0.235 C  
HETATM   16  O   UNL     1      -7.975   9.244  70.567  1.00  0.00    -0.135 OA 
BRANCH  15  17
HETATM   17  O   UNL     1      -9.068   8.803  72.537  1.00  0.00    -0.367 OA 
BRANCH  17  18
HETATM   18  C   UNL     1      -7.926   8.162  73.118  1.00  0.00    -0.167 C  
HETATM   19  C   UNL     1      -8.361   7.533  74.429  1.00  0.00    -0.255 C  
ENDBRANCH  17  18
ENDBRANCH  15  17
ENDBRANCH   7  15
ENDBRANCH   6   7
ENDBRANCH   4   6
ENDBRANCH   3   4
ENDBRANCH   2   3
TORSDOF 11
ENDMDL
MODEL      210
REMARK 921   NORMALIZED FREE ENERGY PREDICTED BY IDOCK:   -3.15 KCAL/MOL
REMARK 922        TOTAL FREE ENERGY PREDICTED BY IDOCK:   -5.87 KCAL/MOL
REMARK 923 INTER-LIGAND FREE ENERGY PREDICTED BY IDOCK:   -5.77 KCAL/MOL
REMARK 924 INTRA-LIGAND FREE ENERGY PREDICTED BY IDOCK:   -0.10 KCAL/MOL
REMARK 927      BINDING AFFINITY PREDICTED BY RF-SCORE:    0.00 PKD
ROOT
HETATM    1  C   UNL     1      -6.927  20.699  67.105  1.00  0.00    -0.377 C  
HETATM    2  C   UNL     1      -7.783  20.057  68.182  1.00  0.00    -0.236 C  
ENDROOT
BRANCH   2   3
HETATM    3  O   UNL     1      -9.153  20.339  67.869  1.00  0.00    -0.293 OA 
BRANCH   3   4
HETATM    4  C   UNL     1     -10.019  19.305  68.006  1.00  0.00    -0.379 C  
HETATM    5  O   UNL     1     -11.105  19.194  67.450  1.00  0.00    -0.426 OA 
BRANCH   4   6
HETATM    6  C   UNL     1      -9.372  18.203  68.793  1.00  0.00    -0.261 C  
BRANCH   6   7
HETATM    7  C   UNL     1      -9.519  16.862  68.088  1.00  0.00    -0.251 C  
BRANCH   7   8
HETATM    8  S   UNL     1     -11.266  16.288  67.971  1.00  0.00    -0.194 SA 
BRANCH   8   9
HETATM    9  P   UNL     1     -11.419  14.435  68.988  1.00  0.00    -0.322 P  
HETATM   10  S   UNL     1     -12.644  15.189  70.421  1.00  0.00    -0.340 S  
BRANCH   9  11
HETATM   11  O   UNL     1     -12.262  13.731  67.745  1.00  0.00    -0.329 OA 
HETATM   12  C   UNL     1     -12.206  14.215  66.410  1.00  0.00    -0.446 C  
ENDBRANCH   9  11
BRANCH   9  13
HETATM   13  O   UNL     1     -11.543  12.922  69.818  1.00  0.00    -0.278 OA 
HETATM   14  C   UNL     1     -11.362  11.774  69.013  1.00  0.00    -0.278 C  
ENDBRANCH   9  13
ENDBRANCH   8   9
ENDBRANCH   7   8
BRANCH   7  15
HETATM   15  C   UNL     1      -9.019  17.002  66.657  1.00  0.00    -0.254 C  
HETATM   16  O   UNL     1      -9.724  16.920  65.660  1.00  0.00    -0.538 OA 
BRANCH  15  17
HETATM   17  O   UNL     1      -7.661  17.129  66.648  1.00  0.00    -0.210 OA 
BRANCH  17  18
HETATM   18  C   UNL     1      -6.945  16.000  67.164  1.00  0.00    -0.207 C  
HETATM   19  C   UNL     1      -5.625  16.501  67.720  1.00  0.00    -0.151 C  
ENDBRANCH  17  18
ENDBRANCH  15  17
ENDBRANCH   7  15
ENDBRANCH   6   7
ENDBRANCH   4   6
ENDBRANCH   3   4
ENDBRANCH   2   3
TORSDOF 11
ENDMDL
MODEL      211
REMARK 921   NORMALIZED FREE ENERGY PREDICTED BY IDOCK:   -3.14 KCAL/MOL
REMARK 922        TOTAL FREE ENERGY PREDICTED BY IDOCK:   -5.86 KCAL/MOL
REMARK 923 INTER-LIGAND FREE ENERGY PREDICTED BY IDOCK:   -5.13 KCAL/MOL
REMARK 924 INTRA-LIGAND FREE ENERGY PREDICTED BY IDOCK:   -0.73 KCAL/MOL
REMARK 927      BINDING AFFINITY PREDICTED BY RF-SCORE:    0.00 PKD
ROOT
HETATM    1  C   UNL     1      -9.659   7.142  66.675  1.00  0.00    -0.226 C  
HETATM    2  C   UNL     1     -10.343   8.362  67.268  1.00  0.00    -0.299 C  
ENDROOT
BRANCH   2   3
HETATM    3  O   UNL     1      -9.324   9.316  67.586  1.00  0.00    -0.128 OA 
BRANCH   3   4
HETATM    4  C   UNL     1      -9.689  10.621  67.525  1.00  0.00    -0.166 C  
HETATM    5  O   UNL     1      -8.931  11.581  67.467  1.00  0.00    -0.154 OA 
BRANCH   4   6
HETATM    6  C   UNL     1     -11.175  10.721  67.336  1.00  0.00    -0.315 C  
BRANCH   6   7
HETATM    7  C   UNL     1     -11.836  11.410  68.522  1.00  0.00    -0.294 C  
BRANCH   7   8
HETATM    8  S   UNL     1     -10.989  11.076  70.124  1.00  0.00     0.163 SA 
BRANCH   8   9
HETATM    9  P   UNL     1     -11.509   9.117  70.745  1.00  0.00    -0.264 P  
HETATM   10  S   UNL     1      -9.605   8.656  71.280  1.00  0.00    -0.250 S  
BRANCH   9  11
HETATM   11  O   UNL     1     -12.405   9.675  72.025  1.00  0.00    -0.361 OA 
HETATM   12  C   UNL     1     -13.747   9.268  72.257  1.00  0.00    -0.462 C  
ENDBRANCH   9  11
BRANCH   9  13
HETATM   13  O   UNL     1     -11.933   7.518  71.252  1.00  0.00    -0.290 OA 
HETATM   14  C   UNL     1     -11.386   6.472  70.473  1.00  0.00    -0.367 C  
ENDBRANCH   9  13
ENDBRANCH   8   9
ENDBRANCH   7   8
BRANCH   7  15
HETATM   15  C   UNL     1     -11.773  12.917  68.312  1.00  0.00    -0.350 C  
HETATM   16  O   UNL     1     -12.003  13.484  67.252  1.00  0.00    -0.370 OA 
BRANCH  15  17
HETATM   17  O   UNL     1     -11.324  13.528  69.446  1.00  0.00    -0.260 OA 
BRANCH  17  18
HETATM   18  C   UNL     1     -11.835  14.849  69.664  1.00  0.00    -0.318 C  
HETATM   19  C   UNL     1     -12.825  14.781  70.812  1.00  0.00    -0.418 C  
ENDBRANCH  17  18
ENDBRANCH  15  17
ENDBRANCH   7  15
ENDBRANCH   6   7
ENDBRANCH   4   6
ENDBRANCH   3   4
ENDBRANCH   2   3
TORSDOF 11
ENDMDL
MODEL      212
REMARK 921   NORMALIZED FREE ENERGY PREDICTED BY IDOCK:   -3.14 KCAL/MOL
REMARK 922        TOTAL FREE ENERGY PREDICTED BY IDOCK:   -5.86 KCAL/MOL
REMARK 923 INTER-LIGAND FREE ENERGY PREDICTED BY IDOCK:   -5.09 KCAL/MOL
REMARK 924 INTRA-LIGAND FREE ENERGY PREDICTED BY IDOCK:   -0.77 KCAL/MOL
REMARK 927      BINDING AFFINITY PREDICTED BY RF-SCORE:    0.00 PKD
ROOT
HETATM    1  C   UNL     1     -10.321   4.188  64.760  1.00  0.00    -0.206 C  
HETATM    2  C   UNL     1     -10.172   4.545  66.229  1.00  0.00    -0.239 C  
ENDROOT
BRANCH   2   3
HETATM    3  O   UNL     1      -9.920   5.952  66.307  1.00  0.00    -0.141 OA 
BRANCH   3   4
HETATM    4  C   UNL     1     -10.215   6.544  67.492  1.00  0.00    -0.176 C  
HETATM    5  O   UNL     1     -10.110   6.034  68.600  1.00  0.00    -0.146 OA 
BRANCH   4   6
HETATM    6  C   UNL     1     -10.506   8.001  67.271  1.00  0.00    -0.384 C  
BRANCH   6   7
HETATM    7  C   UNL     1      -9.309   8.864  67.640  1.00  0.00    -0.136 C  
BRANCH   7   8
HETATM    8  S   UNL     1      -9.010  10.242  66.454  1.00  0.00    -0.151 SA 
BRANCH   8   9
HETATM    9  P   UNL     1     -10.775  11.412  66.349  1.00  0.00    -0.241 P  
HETATM   10  S   UNL     1      -9.890  13.033  67.193  1.00  0.00    -0.235 S  
BRANCH   9  11
HETATM   11  O   UNL     1     -10.737  11.465  64.692  1.00  0.00    -0.307 OA 
HETATM   12  C   UNL     1      -9.710  10.848  63.928  1.00  0.00    -0.303 C  
ENDBRANCH   9  11
BRANCH   9  13
HETATM   13  O   UNL     1     -12.216  12.367  66.263  1.00  0.00    -0.620 OA 
HETATM   14  C   UNL     1     -12.615  12.743  64.960  1.00  0.00    -0.468 C  
ENDBRANCH   9  13
ENDBRANCH   8   9
ENDBRANCH   7   8
BRANCH   7  15
HETATM   15  C   UNL     1      -9.571   9.514  68.993  1.00  0.00    -0.166 C  
HETATM   16  O   UNL     1      -8.712  10.023  69.700  1.00  0.00    -0.186 OA 
BRANCH  15  17
HETATM   17  O   UNL     1     -10.879   9.352  69.342  1.00  0.00    -0.228 OA 
BRANCH  17  18
HETATM   18  C   UNL     1     -11.290  10.083  70.504  1.00  0.00    -0.335 C  
HETATM   19  C   UNL     1     -12.138  11.254  70.042  1.00  0.00    -0.425 C  
ENDBRANCH  17  18
ENDBRANCH  15  17
ENDBRANCH   7  15
ENDBRANCH   6   7
ENDBRANCH   4   6
ENDBRANCH   3   4
ENDBRANCH   2   3
TORSDOF 11
ENDMDL
MODEL      213
REMARK 921   NORMALIZED FREE ENERGY PREDICTED BY IDOCK:   -3.13 KCAL/MOL
REMARK 922        TOTAL FREE ENERGY PREDICTED BY IDOCK:   -5.84 KCAL/MOL
REMARK 923 INTER-LIGAND FREE ENERGY PREDICTED BY IDOCK:   -5.05 KCAL/MOL
REMARK 924 INTRA-LIGAND FREE ENERGY PREDICTED BY IDOCK:   -0.80 KCAL/MOL
REMARK 927      BINDING AFFINITY PREDICTED BY RF-SCORE:    0.00 PKD
ROOT
HETATM    1  C   UNL     1     -12.330  14.314  64.086  1.00  0.00    -0.361 C  
HETATM    2  C   UNL     1     -12.726  13.806  65.462  1.00  0.00    -0.488 C  
ENDROOT
BRANCH   2   3
HETATM    3  O   UNL     1     -12.376  12.419  65.527  1.00  0.00    -0.621 OA 
BRANCH   3   4
HETATM    4  C   UNL     1     -11.610  12.047  66.582  1.00  0.00    -0.319 C  
HETATM    5  O   UNL     1     -11.987  11.413  67.560  1.00  0.00    -0.626 OA 
BRANCH   4   6
HETATM    6  C   UNL     1     -10.168  12.352  66.294  1.00  0.00    -0.258 C  
BRANCH   6   7
HETATM    7  C   UNL     1      -9.527  13.118  67.442  1.00  0.00    -0.214 C  
BRANCH   7   8
HETATM    8  S   UNL     1      -8.028  12.291  68.123  1.00  0.00    -0.163 SA 
BRANCH   8   9
HETATM    9  P   UNL     1      -8.589  10.356  68.784  1.00  0.00    -0.155 P  
HETATM   10  S   UNL     1      -7.866   9.450  67.116  1.00  0.00    -0.098 S  
BRANCH   9  11
HETATM   11  O   UNL     1      -7.485  10.371  70.021  1.00  0.00    -0.159 OA 
HETATM   12  C   UNL     1      -6.131  10.763  69.836  1.00  0.00    -0.094 C  
ENDBRANCH   9  11
BRANCH   9  13
HETATM   13  O   UNL     1      -9.047   8.777  69.322  1.00  0.00    -0.143 OA 
HETATM   14  C   UNL     1     -10.360   8.379  68.980  1.00  0.00    -0.218 C  
ENDBRANCH   9  13
ENDBRANCH   8   9
ENDBRANCH   7   8
BRANCH   7  15
HETATM   15  C   UNL     1      -9.069  14.477  66.930  1.00  0.00    -0.255 C  
HETATM   16  O   UNL     1      -9.363  14.948  65.839  1.00  0.00    -0.286 OA 
BRANCH  15  17
HETATM   17  O   UNL     1      -8.203  15.043  67.818  1.00  0.00    -0.137 OA 
BRANCH  17  18
HETATM   18  C   UNL     1      -8.686  16.227  68.463  1.00  0.00    -0.211 C  
HETATM   19  C   UNL     1      -7.588  17.274  68.397  1.00  0.00    -0.241 C  
ENDBRANCH  17  18
ENDBRANCH  15  17
ENDBRANCH   7  15
ENDBRANCH   6   7
ENDBRANCH   4   6
ENDBRANCH   3   4
ENDBRANCH   2   3
TORSDOF 11
ENDMDL
MODEL      214
REMARK 921   NORMALIZED FREE ENERGY PREDICTED BY IDOCK:   -3.13 KCAL/MOL
REMARK 922        TOTAL FREE ENERGY PREDICTED BY IDOCK:   -5.84 KCAL/MOL
REMARK 923 INTER-LIGAND FREE ENERGY PREDICTED BY IDOCK:   -5.06 KCAL/MOL
REMARK 924 INTRA-LIGAND FREE ENERGY PREDICTED BY IDOCK:   -0.78 KCAL/MOL
REMARK 927      BINDING AFFINITY PREDICTED BY RF-SCORE:    0.00 PKD
ROOT
HETATM    1  C   UNL     1     -11.302   9.015  71.843  1.00  0.00    -0.438 C  
HETATM    2  C   UNL     1     -12.036   9.449  70.586  1.00  0.00    -0.170 C  
ENDROOT
BRANCH   2   3
HETATM    3  O   UNL     1     -11.456  10.686  70.154  1.00  0.00    -0.281 OA 
BRANCH   3   4
HETATM    4  C   UNL     1     -11.369  10.866  68.813  1.00  0.00    -0.292 C  
HETATM    5  O   UNL     1     -12.192  11.433  68.106  1.00  0.00    -0.602 OA 
BRANCH   4   6
HETATM    6  C   UNL     1     -10.011  10.442  68.333  1.00  0.00    -0.177 C  
BRANCH   6   7
HETATM    7  C   UNL     1      -9.479  11.395  67.273  1.00  0.00    -0.167 C  
BRANCH   7   8
HETATM    8  S   UNL     1      -8.339  12.675  67.949  1.00  0.00    -0.184 SA 
BRANCH   8   9
HETATM    9  P   UNL     1      -9.222  14.576  67.629  1.00  0.00    -0.210 P  
HETATM   10  S   UNL     1     -10.462  13.884  66.177  1.00  0.00    -0.304 S  
BRANCH   9  11
HETATM   11  O   UNL     1      -9.943  14.581  69.123  1.00  0.00    -0.197 OA 
HETATM   12  C   UNL     1     -11.088  15.369  69.419  1.00  0.00    -0.282 C  
ENDBRANCH   9  11
BRANCH   9  13
HETATM   13  O   UNL     1      -9.942  16.127  67.367  1.00  0.00    -0.239 OA 
HETATM   14  C   UNL     1     -10.213  16.447  66.017  1.00  0.00    -0.356 C  
ENDBRANCH   9  13
ENDBRANCH   8   9
ENDBRANCH   7   8
BRANCH   7  15
HETATM   15  C   UNL     1      -8.671  10.598  66.257  1.00  0.00    -0.156 C  
HETATM   16  O   UNL     1      -7.460  10.687  66.103  1.00  0.00    -0.130 OA 
BRANCH  15  17
HETATM   17  O   UNL     1      -9.507   9.853  65.478  1.00  0.00    -0.210 OA 
BRANCH  17  18
HETATM   18  C   UNL     1     -10.248  10.596  64.503  1.00  0.00    -0.329 C  
HETATM   19  C   UNL     1      -9.393  10.707  63.254  1.00  0.00    -0.329 C  
ENDBRANCH  17  18
ENDBRANCH  15  17
ENDBRANCH   7  15
ENDBRANCH   6   7
ENDBRANCH   4   6
ENDBRANCH   3   4
ENDBRANCH   2   3
TORSDOF 11
ENDMDL
MODEL      215
REMARK 921   NORMALIZED FREE ENERGY PREDICTED BY IDOCK:   -3.13 KCAL/MOL
REMARK 922        TOTAL FREE ENERGY PREDICTED BY IDOCK:   -5.83 KCAL/MOL
REMARK 923 INTER-LIGAND FREE ENERGY PREDICTED BY IDOCK:   -5.25 KCAL/MOL
REMARK 924 INTRA-LIGAND FREE ENERGY PREDICTED BY IDOCK:   -0.58 KCAL/MOL
REMARK 927      BINDING AFFINITY PREDICTED BY RF-SCORE:    0.00 PKD
ROOT
HETATM    1  C   UNL     1     -13.309  13.799  71.814  1.00  0.00    -0.463 C  
HETATM    2  C   UNL     1     -12.751  12.481  71.306  1.00  0.00    -0.252 C  
ENDROOT
BRANCH   2   3
HETATM    3  O   UNL     1     -11.993  12.760  70.123  1.00  0.00    -0.342 OA 
BRANCH   3   4
HETATM    4  C   UNL     1     -11.693  11.693  69.342  1.00  0.00    -0.340 C  
HETATM    5  O   UNL     1     -12.493  10.885  68.885  1.00  0.00    -0.431 OA 
BRANCH   4   6
HETATM    6  C   UNL     1     -10.247  11.747  68.945  1.00  0.00    -0.119 C  
BRANCH   6   7
HETATM    7  C   UNL     1      -9.985  12.887  67.970  1.00  0.00    -0.236 C  
BRANCH   7   8
HETATM    8  S   UNL     1      -8.456  13.840  68.356  1.00  0.00    -0.126 SA 
BRANCH   8   9
HETATM    9  P   UNL     1      -8.999  15.870  68.632  1.00  0.00    -0.231 P  
HETATM   10  S   UNL     1      -7.080  16.463  68.933  1.00  0.00    -0.207 S  
BRANCH   9  11
HETATM   11  O   UNL     1      -9.470  16.042  67.051  1.00  0.00    -0.212 OA 
HETATM   12  C   UNL     1      -8.544  16.239  65.992  1.00  0.00    -0.211 C  
ENDBRANCH   9  11
BRANCH   9  13
HETATM   13  O   UNL     1      -9.441  17.527  68.858  1.00  0.00    -0.260 OA 
HETATM   14  C   UNL     1     -10.577  17.954  68.132  1.00  0.00    -0.340 C  
ENDBRANCH   9  13
ENDBRANCH   8   9
ENDBRANCH   7   8
BRANCH   7  15
HETATM   15  C   UNL     1      -9.786  12.306  66.577  1.00  0.00    -0.234 C  
HETATM   16  O   UNL     1      -8.703  12.000  66.097  1.00  0.00    -0.100 OA 
BRANCH  15  17
HETATM   17  O   UNL     1     -10.975  12.274  65.910  1.00  0.00    -0.280 OA 
BRANCH  17  18
HETATM   18  C   UNL     1     -11.006  13.030  64.694  1.00  0.00    -0.342 C  
HETATM   19  C   UNL     1     -11.390  12.087  63.569  1.00  0.00    -0.528 C  
ENDBRANCH  17  18
ENDBRANCH  15  17
ENDBRANCH   7  15
ENDBRANCH   6   7
ENDBRANCH   4   6
ENDBRANCH   3   4
ENDBRANCH   2   3
TORSDOF 11
ENDMDL
MODEL      216
REMARK 921   NORMALIZED FREE ENERGY PREDICTED BY IDOCK:   -3.13 KCAL/MOL
REMARK 922        TOTAL FREE ENERGY PREDICTED BY IDOCK:   -5.83 KCAL/MOL
REMARK 923 INTER-LIGAND FREE ENERGY PREDICTED BY IDOCK:   -4.99 KCAL/MOL
REMARK 924 INTRA-LIGAND FREE ENERGY PREDICTED BY IDOCK:   -0.84 KCAL/MOL
REMARK 927      BINDING AFFINITY PREDICTED BY RF-SCORE:    0.00 PKD
ROOT
HETATM    1  C   UNL     1     -10.806  15.776  65.114  1.00  0.00    -0.444 C  
HETATM    2  C   UNL     1     -10.863  15.077  66.461  1.00  0.00    -0.320 C  
ENDROOT
BRANCH   2   3
HETATM    3  O   UNL     1      -9.521  14.977  66.952  1.00  0.00    -0.219 OA 
BRANCH   3   4
HETATM    4  C   UNL     1      -9.038  13.721  67.115  1.00  0.00    -0.239 C  
HETATM    5  O   UNL     1      -7.867  13.416  67.304  1.00  0.00    -0.157 OA 
BRANCH   4   6
HETATM    6  C   UNL     1     -10.179  12.751  67.229  1.00  0.00    -0.232 C  
BRANCH   6   7
HETATM    7  C   UNL     1      -9.720  11.326  66.956  1.00  0.00    -0.186 C  
BRANCH   7   8
HETATM    8  S   UNL     1     -10.771  10.052  67.774  1.00  0.00    -0.280 SA 
BRANCH   8   9
HETATM    9  P   UNL     1      -9.491   8.668  68.743  1.00  0.00    -0.145 P  
HETATM   10  S   UNL     1     -10.878   8.195  70.150  1.00  0.00    -0.219 S  
BRANCH   9  11
HETATM   11  O   UNL     1      -9.517   7.621  67.457  1.00  0.00    -0.136 OA 
HETATM   12  C   UNL     1     -10.677   6.888  67.088  1.00  0.00    -0.366 C  
ENDBRANCH   9  11
BRANCH   9  13
HETATM   13  O   UNL     1      -8.447   7.538  69.535  1.00  0.00    -0.130 OA 
HETATM   14  C   UNL     1      -8.591   7.465  70.940  1.00  0.00    -0.135 C  
ENDBRANCH   9  13
ENDBRANCH   8   9
ENDBRANCH   7   8
BRANCH   7  15
HETATM   15  C   UNL     1      -9.812  11.059  65.459  1.00  0.00    -0.243 C  
HETATM   16  O   UNL     1      -8.933  10.536  64.788  1.00  0.00    -0.187 OA 
BRANCH  15  17
HETATM   17  O   UNL     1     -10.970  11.581  64.963  1.00  0.00    -0.290 OA 
BRANCH  17  18
HETATM   18  C   UNL     1     -10.862  12.159  63.657  1.00  0.00    -0.464 C  
HETATM   19  C   UNL     1     -12.184  12.833  63.335  1.00  0.00    -0.594 C  
ENDBRANCH  17  18
ENDBRANCH  15  17
ENDBRANCH   7  15
ENDBRANCH   6   7
ENDBRANCH   4   6
ENDBRANCH   3   4
ENDBRANCH   2   3
TORSDOF 11
ENDMDL
MODEL      217
REMARK 921   NORMALIZED FREE ENERGY PREDICTED BY IDOCK:   -3.12 KCAL/MOL
REMARK 922        TOTAL FREE ENERGY PREDICTED BY IDOCK:   -5.83 KCAL/MOL
REMARK 923 INTER-LIGAND FREE ENERGY PREDICTED BY IDOCK:   -5.11 KCAL/MOL
REMARK 924 INTRA-LIGAND FREE ENERGY PREDICTED BY IDOCK:   -0.71 KCAL/MOL
REMARK 927      BINDING AFFINITY PREDICTED BY RF-SCORE:    0.00 PKD
ROOT
HETATM    1  C   UNL     1      -6.815  11.299  67.016  1.00  0.00    -0.126 C  
HETATM    2  C   UNL     1      -8.325  11.404  66.898  1.00  0.00    -0.159 C  
ENDROOT
BRANCH   2   3
HETATM    3  O   UNL     1      -8.868  10.098  67.122  1.00  0.00    -0.132 OA 
BRANCH   3   4
HETATM    4  C   UNL     1      -8.703   9.590  68.369  1.00  0.00    -0.124 C  
HETATM    5  O   UNL     1      -7.951   8.674  68.682  1.00  0.00    -0.111 OA 
BRANCH   4   6
HETATM    6  C   UNL     1      -9.431  10.446  69.364  1.00  0.00    -0.204 C  
BRANCH   6   7
HETATM    7  C   UNL     1     -10.836   9.920  69.620  1.00  0.00    -0.253 C  
BRANCH   7   8
HETATM    8  S   UNL     1     -11.060   9.229  71.313  1.00  0.00    -0.384 SA 
BRANCH   8   9
HETATM    9  P   UNL     1     -10.173   7.304  71.359  1.00  0.00    -0.185 P  
HETATM   10  S   UNL     1     -10.524   7.063  73.345  1.00  0.00    -0.369 S  
BRANCH   9  11
HETATM   11  O   UNL     1     -11.372   6.642  70.423  1.00  0.00    -0.311 OA 
HETATM   12  C   UNL     1     -11.143   6.178  69.100  1.00  0.00    -0.378 C  
ENDBRANCH   9  11
BRANCH   9  13
HETATM   13  O   UNL     1      -9.449   5.733  71.398  1.00  0.00    -0.149 OA 
HETATM   14  C   UNL     1      -8.035   5.719  71.396  1.00  0.00    -0.113 C  
ENDBRANCH   9  13
ENDBRANCH   8   9
ENDBRANCH   7   8
BRANCH   7  15
HETATM   15  C   UNL     1     -11.822  11.074  69.496  1.00  0.00    -0.333 C  
HETATM   16  O   UNL     1     -12.139  11.611  68.443  1.00  0.00    -0.522 OA 
BRANCH  15  17
HETATM   17  O   UNL     1     -12.216  11.486  70.735  1.00  0.00    -0.374 OA 
BRANCH  17  18
HETATM   18  C   UNL     1     -12.511  12.884  70.842  1.00  0.00    -0.296 C  
HETATM   19  C   UNL     1     -13.383  13.082  72.068  1.00  0.00    -0.588 C  
ENDBRANCH  17  18
ENDBRANCH  15  17
ENDBRANCH   7  15
ENDBRANCH   6   7
ENDBRANCH   4   6
ENDBRANCH   3   4
ENDBRANCH   2   3
TORSDOF 11
ENDMDL
MODEL      218
REMARK 921   NORMALIZED FREE ENERGY PREDICTED BY IDOCK:   -3.12 KCAL/MOL
REMARK 922        TOTAL FREE ENERGY PREDICTED BY IDOCK:   -5.82 KCAL/MOL
REMARK 923 INTER-LIGAND FREE ENERGY PREDICTED BY IDOCK:   -5.26 KCAL/MOL
REMARK 924 INTRA-LIGAND FREE ENERGY PREDICTED BY IDOCK:   -0.56 KCAL/MOL
REMARK 927      BINDING AFFINITY PREDICTED BY RF-SCORE:    0.00 PKD
ROOT
HETATM    1  C   UNL     1     -12.015  15.449  69.404  1.00  0.00    -0.351 C  
HETATM    2  C   UNL     1     -11.128  16.104  68.359  1.00  0.00    -0.359 C  
ENDROOT
BRANCH   2   3
HETATM    3  O   UNL     1     -10.272  15.088  67.823  1.00  0.00    -0.234 OA 
BRANCH   3   4
HETATM    4  C   UNL     1     -10.686  14.509  66.668  1.00  0.00    -0.305 C  
HETATM    5  O   UNL     1     -11.553  14.938  65.916  1.00  0.00    -0.324 OA 
BRANCH   4   6
HETATM    6  C   UNL     1      -9.787  13.355  66.330  1.00  0.00    -0.299 C  
BRANCH   6   7
HETATM    7  C   UNL     1     -10.509  12.026  66.501  1.00  0.00    -0.221 C  
BRANCH   7   8
HETATM    8  S   UNL     1     -11.948  12.120  67.647  1.00  0.00     0.045 SA 
BRANCH   8   9
HETATM    9  P   UNL     1     -11.612  10.758  69.237  1.00  0.00    -0.290 P  
HETATM   10  S   UNL     1      -9.617  10.650  68.876  1.00  0.00    -0.190 S  
BRANCH   9  11
HETATM   11  O   UNL     1     -11.982  11.890  70.391  1.00  0.00    -0.351 OA 
HETATM   12  C   UNL     1     -12.787  11.595  71.525  1.00  0.00    -0.364 C  
ENDBRANCH   9  11
BRANCH   9  13
HETATM   13  O   UNL     1     -11.338   9.646  70.533  1.00  0.00    -0.260 OA 
HETATM   14  C   UNL     1      -9.996   9.232  70.700  1.00  0.00    -0.273 C  
ENDBRANCH   9  13
ENDBRANCH   8   9
ENDBRANCH   7   8
BRANCH   7  15
HETATM   15  C   UNL     1     -11.066  11.593  65.151  1.00  0.00    -0.237 C  
HETATM   16  O   UNL     1     -12.111  12.001  64.664  1.00  0.00    -0.319 OA 
BRANCH  15  17
HETATM   17  O   UNL     1     -10.284  10.611  64.618  1.00  0.00    -0.333 OA 
BRANCH  17  18
HETATM   18  C   UNL     1      -9.593  10.974  63.416  1.00  0.00    -0.333 C  
HETATM   19  C   UNL     1      -8.918   9.728  62.873  1.00  0.00    -0.270 C  
ENDBRANCH  17  18
ENDBRANCH  15  17
ENDBRANCH   7  15
ENDBRANCH   6   7
ENDBRANCH   4   6
ENDBRANCH   3   4
ENDBRANCH   2   3
TORSDOF 11
ENDMDL
MODEL      219
REMARK 921   NORMALIZED FREE ENERGY PREDICTED BY IDOCK:   -3.11 KCAL/MOL
REMARK 922        TOTAL FREE ENERGY PREDICTED BY IDOCK:   -5.81 KCAL/MOL
REMARK 923 INTER-LIGAND FREE ENERGY PREDICTED BY IDOCK:   -5.71 KCAL/MOL
REMARK 924 INTRA-LIGAND FREE ENERGY PREDICTED BY IDOCK:   -0.11 KCAL/MOL
REMARK 927      BINDING AFFINITY PREDICTED BY RF-SCORE:    0.00 PKD
ROOT
HETATM    1  C   UNL     1      -6.418  14.720  70.175  1.00  0.00    -0.163 C  
HETATM    2  C   UNL     1      -6.917  15.865  69.311  1.00  0.00    -0.198 C  
ENDROOT
BRANCH   2   3
HETATM    3  O   UNL     1      -8.346  15.771  69.255  1.00  0.00    -0.231 OA 
BRANCH   3   4
HETATM    4  C   UNL     1      -8.849  14.847  68.400  1.00  0.00    -0.178 C  
HETATM    5  O   UNL     1      -9.533  13.878  68.704  1.00  0.00    -0.199 OA 
BRANCH   4   6
HETATM    6  C   UNL     1      -8.614  15.287  66.984  1.00  0.00    -0.256 C  
BRANCH   6   7
HETATM    7  C   UNL     1      -9.901  15.786  66.341  1.00  0.00    -0.276 C  
BRANCH   7   8
HETATM    8  S   UNL     1     -11.198  14.485  66.201  1.00  0.00    -0.343 SA 
BRANCH   8   9
HETATM    9  P   UNL     1     -10.452  12.947  64.947  1.00  0.00    -0.328 P  
HETATM   10  S   UNL     1     -10.840  11.490  66.309  1.00  0.00    -0.266 S  
BRANCH   9  11
HETATM   11  O   UNL     1     -11.685  13.131  63.854  1.00  0.00    -0.413 OA 
HETATM   12  C   UNL     1     -12.522  12.055  63.453  1.00  0.00    -0.509 C  
ENDBRANCH   9  11
BRANCH   9  13
HETATM   13  O   UNL     1      -9.843  11.691  63.925  1.00  0.00    -0.272 OA 
HETATM   14  C   UNL     1      -9.355  10.547  64.598  1.00  0.00    -0.248 C  
ENDBRANCH   9  13
ENDBRANCH   8   9
ENDBRANCH   7   8
BRANCH   7  15
HETATM   15  C   UNL     1     -10.491  16.885  67.215  1.00  0.00    -0.301 C  
HETATM   16  O   UNL     1     -11.408  16.728  68.010  1.00  0.00    -0.224 OA 
BRANCH  15  17
HETATM   17  O   UNL     1      -9.920  18.084  66.905  1.00  0.00    -0.308 OA 
BRANCH  17  18
HETATM   18  C   UNL     1     -10.553  19.226  67.495  1.00  0.00    -0.474 C  
HETATM   19  C   UNL     1      -9.890  19.486  68.835  1.00  0.00    -0.522 C  
ENDBRANCH  17  18
ENDBRANCH  15  17
ENDBRANCH   7  15
ENDBRANCH   6   7
ENDBRANCH   4   6
ENDBRANCH   3   4
ENDBRANCH   2   3
TORSDOF 11
ENDMDL
MODEL      220
REMARK 921   NORMALIZED FREE ENERGY PREDICTED BY IDOCK:   -3.10 KCAL/MOL
REMARK 922        TOTAL FREE ENERGY PREDICTED BY IDOCK:   -5.79 KCAL/MOL
REMARK 923 INTER-LIGAND FREE ENERGY PREDICTED BY IDOCK:   -5.00 KCAL/MOL
REMARK 924 INTRA-LIGAND FREE ENERGY PREDICTED BY IDOCK:   -0.79 KCAL/MOL
REMARK 927      BINDING AFFINITY PREDICTED BY RF-SCORE:    0.00 PKD
ROOT
HETATM    1  C   UNL     1     -10.388  19.788  67.101  1.00  0.00    -0.589 C  
HETATM    2  C   UNL     1      -9.216  19.744  66.137  1.00  0.00    -0.350 C  
ENDROOT
BRANCH   2   3
HETATM    3  O   UNL     1      -9.106  18.400  65.653  1.00  0.00    -0.272 OA 
BRANCH   3   4
HETATM    4  C   UNL     1      -8.058  17.681  66.126  1.00  0.00    -0.193 C  
HETATM    5  O   UNL     1      -6.983  18.131  66.500  1.00  0.00    -0.189 OA 
BRANCH   4   6
HETATM    6  C   UNL     1      -8.473  16.250  66.318  1.00  0.00    -0.369 C  
BRANCH   6   7
HETATM    7  C   UNL     1      -9.886  16.156  66.875  1.00  0.00    -0.241 C  
BRANCH   7   8
HETATM    8  S   UNL     1     -11.013  15.136  65.833  1.00  0.00    -0.324 SA 
BRANCH   8   9
HETATM    9  P   UNL     1     -10.211  13.177  65.722  1.00  0.00    -0.265 P  
HETATM   10  S   UNL     1     -11.721  12.371  66.815  1.00  0.00    -0.315 S  
BRANCH   9  11
HETATM   11  O   UNL     1     -10.488  13.070  64.090  1.00  0.00    -0.413 OA 
HETATM   12  C   UNL     1     -11.400  12.137  63.527  1.00  0.00    -0.453 C  
ENDBRANCH   9  11
BRANCH   9  13
HETATM   13  O   UNL     1      -9.556  11.578  65.632  1.00  0.00    -0.223 OA 
HETATM   14  C   UNL     1      -8.996  11.086  66.833  1.00  0.00    -0.157 C  
ENDBRANCH   9  13
ENDBRANCH   8   9
ENDBRANCH   7   8
BRANCH   7  15
HETATM   15  C   UNL     1      -9.832  15.477  68.237  1.00  0.00    -0.213 C  
HETATM   16  O   UNL     1     -10.804  15.265  68.950  1.00  0.00    -0.229 OA 
BRANCH  15  17
HETATM   17  O   UNL     1      -8.536  15.237  68.587  1.00  0.00    -0.155 OA 
BRANCH  17  18
HETATM   18  C   UNL     1      -8.246  13.878  68.935  1.00  0.00     0.051 C  
HETATM   19  C   UNL     1      -6.898  13.522  68.336  1.00  0.00    -0.102 C  
ENDBRANCH  17  18
ENDBRANCH  15  17
ENDBRANCH   7  15
ENDBRANCH   6   7
ENDBRANCH   4   6
ENDBRANCH   3   4
ENDBRANCH   2   3
TORSDOF 11
ENDMDL
MODEL      221
REMARK 921   NORMALIZED FREE ENERGY PREDICTED BY IDOCK:   -3.10 KCAL/MOL
REMARK 922        TOTAL FREE ENERGY PREDICTED BY IDOCK:   -5.79 KCAL/MOL
REMARK 923 INTER-LIGAND FREE ENERGY PREDICTED BY IDOCK:   -5.12 KCAL/MOL
REMARK 924 INTRA-LIGAND FREE ENERGY PREDICTED BY IDOCK:   -0.67 KCAL/MOL
REMARK 927      BINDING AFFINITY PREDICTED BY RF-SCORE:    0.00 PKD
ROOT
HETATM    1  C   UNL     1     -11.089   6.181  69.495  1.00  0.00    -0.490 C  
HETATM    2  C   UNL     1     -10.305   7.479  69.582  1.00  0.00    -0.225 C  
ENDROOT
BRANCH   2   3
HETATM    3  O   UNL     1     -10.742   8.320  68.508  1.00  0.00    -0.142 OA 
BRANCH   3   4
HETATM    4  C   UNL     1     -10.235   9.577  68.492  1.00  0.00    -0.199 C  
HETATM    5  O   UNL     1     -10.025  10.284  69.471  1.00  0.00    -0.223 OA 
BRANCH   4   6
HETATM    6  C   UNL     1      -9.775   9.920  67.105  1.00  0.00    -0.224 C  
BRANCH   6   7
HETATM    7  C   UNL     1     -10.143  11.352  66.740  1.00  0.00    -0.216 C  
BRANCH   7   8
HETATM    8  S   UNL     1      -8.734  12.528  66.895  1.00  0.00    -0.146 SA 
BRANCH   8   9
HETATM    9  P   UNL     1      -9.459  14.307  67.792  1.00  0.00    -0.231 P  
HETATM   10  S   UNL     1     -11.080  13.380  68.593  1.00  0.00    -0.275 S  
BRANCH   9  11
HETATM   11  O   UNL     1      -8.189  14.384  68.855  1.00  0.00    -0.141 OA 
HETATM   12  C   UNL     1      -7.551  15.606  69.200  1.00  0.00    -0.206 C  
ENDBRANCH   9  11
BRANCH   9  13
HETATM   13  O   UNL     1     -10.052  15.758  68.523  1.00  0.00    -0.210 OA 
HETATM   14  C   UNL     1     -11.460  15.894  68.543  1.00  0.00    -0.377 C  
ENDBRANCH   9  13
ENDBRANCH   8   9
ENDBRANCH   7   8
BRANCH   7  15
HETATM   15  C   UNL     1     -10.574  11.390  65.280  1.00  0.00    -0.277 C  
HETATM   16  O   UNL     1     -10.418  10.476  64.481  1.00  0.00    -0.310 OA 
BRANCH  15  17
HETATM   17  O   UNL     1     -11.061  12.626  64.970  1.00  0.00    -0.279 OA 
BRANCH  17  18
HETATM   18  C   UNL     1     -12.490  12.719  64.928  1.00  0.00    -0.497 C  
HETATM   19  C   UNL     1     -12.886  14.059  65.523  1.00  0.00    -0.453 C  
ENDBRANCH  17  18
ENDBRANCH  15  17
ENDBRANCH   7  15
ENDBRANCH   6   7
ENDBRANCH   4   6
ENDBRANCH   3   4
ENDBRANCH   2   3
TORSDOF 11
ENDMDL
MODEL      222
REMARK 921   NORMALIZED FREE ENERGY PREDICTED BY IDOCK:   -3.10 KCAL/MOL
REMARK 922        TOTAL FREE ENERGY PREDICTED BY IDOCK:   -5.79 KCAL/MOL
REMARK 923 INTER-LIGAND FREE ENERGY PREDICTED BY IDOCK:   -4.91 KCAL/MOL
REMARK 924 INTRA-LIGAND FREE ENERGY PREDICTED BY IDOCK:   -0.89 KCAL/MOL
REMARK 927      BINDING AFFINITY PREDICTED BY RF-SCORE:    0.00 PKD
ROOT
HETATM    1  C   UNL     1     -12.239  12.362  64.722  1.00  0.00    -0.493 C  
HETATM    2  C   UNL     1     -12.504  13.856  64.769  1.00  0.00    -0.354 C  
ENDROOT
BRANCH   2   3
HETATM    3  O   UNL     1     -11.759  14.392  65.869  1.00  0.00    -0.360 OA 
BRANCH   3   4
HETATM    4  C   UNL     1     -10.556  14.938  65.563  1.00  0.00    -0.357 C  
HETATM    5  O   UNL     1     -10.372  15.978  64.942  1.00  0.00    -0.543 OA 
BRANCH   4   6
HETATM    6  C   UNL     1      -9.465  14.188  66.270  1.00  0.00    -0.264 C  
BRANCH   6   7
HETATM    7  C   UNL     1      -9.840  13.905  67.718  1.00  0.00    -0.237 C  
BRANCH   7   8
HETATM    8  S   UNL     1      -9.306  12.239  68.297  1.00  0.00    -0.172 SA 
BRANCH   8   9
HETATM    9  P   UNL     1      -8.524  11.185  66.633  1.00  0.00    -0.169 P  
HETATM   10  S   UNL     1      -6.970  10.425  67.698  1.00  0.00    -0.084 S  
BRANCH   9  11
HETATM   11  O   UNL     1      -9.818  10.149  66.580  1.00  0.00    -0.193 OA 
HETATM   12  C   UNL     1     -10.199   9.341  67.685  1.00  0.00    -0.230 C  
ENDBRANCH   9  11
BRANCH   9  13
HETATM   13  O   UNL     1      -7.885  10.325  65.275  1.00  0.00    -0.140 OA 
HETATM   14  C   UNL     1      -6.483  10.137  65.284  1.00  0.00    -0.119 C  
ENDBRANCH   9  13
ENDBRANCH   8   9
ENDBRANCH   7   8
BRANCH   7  15
HETATM   15  C   UNL     1      -9.134  14.915  68.614  1.00  0.00    -0.185 C  
HETATM   16  O   UNL     1      -8.022  14.760  69.099  1.00  0.00    -0.156 OA 
BRANCH  15  17
HETATM   17  O   UNL     1      -9.964  15.964  68.877  1.00  0.00    -0.205 OA 
BRANCH  17  18
HETATM   18  C   UNL     1      -9.466  17.245  68.472  1.00  0.00    -0.285 C  
HETATM   19  C   UNL     1     -10.651  18.095  68.054  1.00  0.00    -0.359 C  
ENDBRANCH  17  18
ENDBRANCH  15  17
ENDBRANCH   7  15
ENDBRANCH   6   7
ENDBRANCH   4   6
ENDBRANCH   3   4
ENDBRANCH   2   3
TORSDOF 11
ENDMDL
MODEL      223
REMARK 921   NORMALIZED FREE ENERGY PREDICTED BY IDOCK:   -3.09 KCAL/MOL
REMARK 922        TOTAL FREE ENERGY PREDICTED BY IDOCK:   -5.78 KCAL/MOL
REMARK 923 INTER-LIGAND FREE ENERGY PREDICTED BY IDOCK:   -5.16 KCAL/MOL
REMARK 924 INTRA-LIGAND FREE ENERGY PREDICTED BY IDOCK:   -0.62 KCAL/MOL
REMARK 927      BINDING AFFINITY PREDICTED BY RF-SCORE:    0.00 PKD
ROOT
HETATM    1  C   UNL     1     -11.414   6.289  70.085  1.00  0.00    -0.452 C  
HETATM    2  C   UNL     1     -10.679   7.583  70.387  1.00  0.00    -0.239 C  
ENDROOT
BRANCH   2   3
HETATM    3  O   UNL     1     -10.825   8.437  69.247  1.00  0.00    -0.175 OA 
BRANCH   3   4
HETATM    4  C   UNL     1      -9.799   8.429  68.360  1.00  0.00    -0.176 C  
HETATM    5  O   UNL     1      -8.618   8.237  68.624  1.00  0.00    -0.131 OA 
BRANCH   4   6
HETATM    6  C   UNL     1     -10.339   8.493  66.961  1.00  0.00    -0.379 C  
BRANCH   6   7
HETATM    7  C   UNL     1     -10.232   9.901  66.392  1.00  0.00    -0.222 C  
BRANCH   7   8
HETATM    8  S   UNL     1     -10.463  11.218  67.660  1.00  0.00    -0.204 SA 
BRANCH   8   9
HETATM    9  P   UNL     1     -11.477  12.839  66.745  1.00  0.00    -0.381 P  
HETATM   10  S   UNL     1     -12.016  13.656  68.524  1.00  0.00    -0.306 S  
BRANCH   9  11
HETATM   11  O   UNL     1     -10.070  13.490  66.154  1.00  0.00    -0.290 OA 
HETATM   12  C   UNL     1      -9.189  14.267  66.953  1.00  0.00    -0.254 C  
ENDBRANCH   9  11
BRANCH   9  13
HETATM   13  O   UNL     1     -12.305  14.162  65.999  1.00  0.00    -0.444 OA 
HETATM   14  C   UNL     1     -12.253  14.189  64.586  1.00  0.00    -0.445 C  
ENDBRANCH   9  13
ENDBRANCH   8   9
ENDBRANCH   7   8
BRANCH   7  15
HETATM   15  C   UNL     1      -8.832  10.096  65.824  1.00  0.00    -0.158 C  
HETATM   16  O   UNL     1      -7.927  10.695  66.388  1.00  0.00    -0.130 OA 
BRANCH  15  17
HETATM   17  O   UNL     1      -8.770   9.595  64.557  1.00  0.00    -0.174 OA 
BRANCH  17  18
HETATM   18  C   UNL     1      -9.631  10.240  63.609  1.00  0.00    -0.277 C  
HETATM   19  C   UNL     1      -8.794  10.612  62.399  1.00  0.00    -0.320 C  
ENDBRANCH  17  18
ENDBRANCH  15  17
ENDBRANCH   7  15
ENDBRANCH   6   7
ENDBRANCH   4   6
ENDBRANCH   3   4
ENDBRANCH   2   3
TORSDOF 11
ENDMDL
MODEL      224
REMARK 921   NORMALIZED FREE ENERGY PREDICTED BY IDOCK:   -3.09 KCAL/MOL
REMARK 922        TOTAL FREE ENERGY PREDICTED BY IDOCK:   -5.78 KCAL/MOL
REMARK 923 INTER-LIGAND FREE ENERGY PREDICTED BY IDOCK:   -4.91 KCAL/MOL
REMARK 924 INTRA-LIGAND FREE ENERGY PREDICTED BY IDOCK:   -0.86 KCAL/MOL
REMARK 927      BINDING AFFINITY PREDICTED BY RF-SCORE:    0.00 PKD
ROOT
HETATM    1  C   UNL     1      -6.814  11.204  69.600  1.00  0.00    -0.117 C  
HETATM    2  C   UNL     1      -7.717  10.032  69.260  1.00  0.00    -0.117 C  
ENDROOT
BRANCH   2   3
HETATM    3  O   UNL     1      -9.071  10.492  69.346  1.00  0.00    -0.181 OA 
BRANCH   3   4
HETATM    4  C   UNL     1      -9.876  10.171  68.303  1.00  0.00    -0.145 C  
HETATM    5  O   UNL     1      -9.546   9.550  67.300  1.00  0.00    -0.142 OA 
BRANCH   4   6
HETATM    6  C   UNL     1     -11.299  10.515  68.638  1.00  0.00    -0.315 C  
BRANCH   6   7
HETATM    7  C   UNL     1     -11.381  11.343  69.912  1.00  0.00    -0.219 C  
BRANCH   7   8
HETATM    8  S   UNL     1     -12.140  13.002  69.656  1.00  0.00    -0.188 SA 
BRANCH   8   9
HETATM    9  P   UNL     1     -10.828  14.145  68.445  1.00  0.00    -0.273 P  
HETATM   10  S   UNL     1     -12.049  14.044  66.825  1.00  0.00    -0.414 S  
BRANCH   9  11
HETATM   11  O   UNL     1     -11.076  15.521  69.336  1.00  0.00    -0.252 OA 
HETATM   12  C   UNL     1     -12.246  15.730  70.115  1.00  0.00    -0.314 C  
ENDBRANCH   9  11
BRANCH   9  13
HETATM   13  O   UNL     1      -9.758  15.077  67.456  1.00  0.00    -0.214 OA 
HETATM   14  C   UNL     1      -8.451  14.553  67.319  1.00  0.00    -0.215 C  
ENDBRANCH   9  13
ENDBRANCH   8   9
ENDBRANCH   7   8
BRANCH   7  15
HETATM   15  C   UNL     1     -12.269  10.616  70.913  1.00  0.00    -0.395 C  
HETATM   16  O   UNL     1     -13.037  11.165  71.692  1.00  0.00    -0.449 OA 
BRANCH  15  17
HETATM   17  O   UNL     1     -12.007   9.278  70.885  1.00  0.00    -0.283 OA 
BRANCH  17  18
HETATM   18  C   UNL     1     -11.685   8.698  72.154  1.00  0.00    -0.371 C  
HETATM   19  C   UNL     1     -10.178   8.757  72.324  1.00  0.00    -0.310 C  
ENDBRANCH  17  18
ENDBRANCH  15  17
ENDBRANCH   7  15
ENDBRANCH   6   7
ENDBRANCH   4   6
ENDBRANCH   3   4
ENDBRANCH   2   3
TORSDOF 11
ENDMDL
MODEL      225
REMARK 921   NORMALIZED FREE ENERGY PREDICTED BY IDOCK:   -3.09 KCAL/MOL
REMARK 922        TOTAL FREE ENERGY PREDICTED BY IDOCK:   -5.77 KCAL/MOL
REMARK 923 INTER-LIGAND FREE ENERGY PREDICTED BY IDOCK:   -5.20 KCAL/MOL
REMARK 924 INTRA-LIGAND FREE ENERGY PREDICTED BY IDOCK:   -0.57 KCAL/MOL
REMARK 927      BINDING AFFINITY PREDICTED BY RF-SCORE:    0.00 PKD
ROOT
HETATM    1  C   UNL     1     -10.724   8.680  71.843  1.00  0.00    -0.414 C  
HETATM    2  C   UNL     1     -11.287   9.871  71.087  1.00  0.00    -0.370 C  
ENDROOT
BRANCH   2   3
HETATM    3  O   UNL     1     -11.178   9.584  69.688  1.00  0.00    -0.206 OA 
BRANCH   3   4
HETATM    4  C   UNL     1     -11.311  10.643  68.851  1.00  0.00    -0.274 C  
HETATM    5  O   UNL     1     -12.365  11.165  68.509  1.00  0.00    -0.561 OA 
BRANCH   4   6
HETATM    6  C   UNL     1      -9.960  11.224  68.550  1.00  0.00    -0.206 C  
BRANCH   6   7
HETATM    7  C   UNL     1      -9.522  10.893  67.131  1.00  0.00    -0.160 C  
BRANCH   7   8
HETATM    8  S   UNL     1     -10.270   9.341  66.480  1.00  0.00    -0.208 SA 
BRANCH   8   9
HETATM    9  P   UNL     1      -8.704   7.963  66.103  1.00  0.00    -0.157 P  
HETATM   10  S   UNL     1      -7.563   8.666  67.629  1.00  0.00    -0.098 S  
BRANCH   9  11
HETATM   11  O   UNL     1      -9.629   6.664  66.556  1.00  0.00    -0.168 OA 
HETATM   12  C   UNL     1     -10.899   6.806  67.177  1.00  0.00    -0.392 C  
ENDBRANCH   9  11
BRANCH   9  13
HETATM   13  O   UNL     1      -7.424   6.840  65.796  1.00  0.00    -0.079 OA 
HETATM   14  C   UNL     1      -6.814   6.951  64.525  1.00  0.00    -0.046 C  
ENDBRANCH   9  13
ENDBRANCH   8   9
ENDBRANCH   7   8
BRANCH   7  15
HETATM   15  C   UNL     1      -9.981  12.010  66.203  1.00  0.00    -0.231 C  
HETATM   16  O   UNL     1      -9.610  13.174  66.275  1.00  0.00    -0.268 OA 
BRANCH  15  17
HETATM   17  O   UNL     1     -10.939  11.545  65.352  1.00  0.00    -0.282 OA 
BRANCH  17  18
HETATM   18  C   UNL     1     -11.931  12.508  64.973  1.00  0.00    -0.427 C  
HETATM   19  C   UNL     1     -12.139  12.397  63.474  1.00  0.00    -0.651 C  
ENDBRANCH  17  18
ENDBRANCH  15  17
ENDBRANCH   7  15
ENDBRANCH   6   7
ENDBRANCH   4   6
ENDBRANCH   3   4
ENDBRANCH   2   3
TORSDOF 11
ENDMDL
MODEL      226
REMARK 921   NORMALIZED FREE ENERGY PREDICTED BY IDOCK:   -3.08 KCAL/MOL
REMARK 922        TOTAL FREE ENERGY PREDICTED BY IDOCK:   -5.76 KCAL/MOL
REMARK 923 INTER-LIGAND FREE ENERGY PREDICTED BY IDOCK:   -5.01 KCAL/MOL
REMARK 924 INTRA-LIGAND FREE ENERGY PREDICTED BY IDOCK:   -0.75 KCAL/MOL
REMARK 927      BINDING AFFINITY PREDICTED BY RF-SCORE:    0.00 PKD
ROOT
HETATM    1  C   UNL     1      -6.711  11.393  69.788  1.00  0.00    -0.076 C  
HETATM    2  C   UNL     1      -7.003   9.943  70.134  1.00  0.00    -0.138 C  
ENDROOT
BRANCH   2   3
HETATM    3  O   UNL     1      -8.421   9.757  70.052  1.00  0.00    -0.190 OA 
BRANCH   3   4
HETATM    4  C   UNL     1      -8.857   8.944  69.058  1.00  0.00    -0.136 C  
HETATM    5  O   UNL     1      -8.175   8.147  68.424  1.00  0.00    -0.126 OA 
BRANCH   4   6
HETATM    6  C   UNL     1     -10.354   9.010  68.971  1.00  0.00    -0.233 C  
BRANCH   6   7
HETATM    7  C   UNL     1     -10.883  10.317  69.545  1.00  0.00    -0.256 C  
BRANCH   7   8
HETATM    8  S   UNL     1     -11.897  11.281  68.348  1.00  0.00    -0.186 SA 
BRANCH   8   9
HETATM    9  P   UNL     1     -10.584  12.462  67.175  1.00  0.00    -0.233 P  
HETATM   10  S   UNL     1     -10.137  10.928  65.922  1.00  0.00    -0.262 S  
BRANCH   9  11
HETATM   11  O   UNL     1     -11.819  13.407  66.598  1.00  0.00    -0.356 OA 
HETATM   12  C   UNL     1     -12.509  13.114  65.391  1.00  0.00    -0.481 C  
ENDBRANCH   9  11
BRANCH   9  13
HETATM   13  O   UNL     1      -9.512  13.425  66.218  1.00  0.00    -0.254 OA 
HETATM   14  C   UNL     1      -9.488  14.802  66.538  1.00  0.00    -0.293 C  
ENDBRANCH   9  13
ENDBRANCH   8   9
ENDBRANCH   7   8
BRANCH   7  15
HETATM   15  C   UNL     1     -11.796  10.002  70.723  1.00  0.00    -0.346 C  
HETATM   16  O   UNL     1     -12.365  10.841  71.409  1.00  0.00    -0.358 OA 
BRANCH  15  17
HETATM   17  O   UNL     1     -11.802   8.659  70.962  1.00  0.00    -0.286 OA 
BRANCH  17  18
HETATM   18  C   UNL     1     -11.920   8.292  72.342  1.00  0.00    -0.384 C  
HETATM   19  C   UNL     1     -10.553   7.842  72.823  1.00  0.00    -0.418 C  
ENDBRANCH  17  18
ENDBRANCH  15  17
ENDBRANCH   7  15
ENDBRANCH   6   7
ENDBRANCH   4   6
ENDBRANCH   3   4
ENDBRANCH   2   3
TORSDOF 11
ENDMDL
MODEL      227
REMARK 921   NORMALIZED FREE ENERGY PREDICTED BY IDOCK:   -3.07 KCAL/MOL
REMARK 922        TOTAL FREE ENERGY PREDICTED BY IDOCK:   -5.74 KCAL/MOL
REMARK 923 INTER-LIGAND FREE ENERGY PREDICTED BY IDOCK:   -5.18 KCAL/MOL
REMARK 924 INTRA-LIGAND FREE ENERGY PREDICTED BY IDOCK:   -0.56 KCAL/MOL
REMARK 927      BINDING AFFINITY PREDICTED BY RF-SCORE:    0.00 PKD
ROOT
HETATM    1  C   UNL     1     -12.284  14.404  66.780  1.00  0.00    -0.319 C  
HETATM    2  C   UNL     1     -12.847  13.966  65.439  1.00  0.00    -0.427 C  
ENDROOT
BRANCH   2   3
HETATM    3  O   UNL     1     -12.660  12.549  65.335  1.00  0.00    -0.656 OA 
BRANCH   3   4
HETATM    4  C   UNL     1     -11.991  12.115  64.238  1.00  0.00    -0.380 C  
HETATM    5  O   UNL     1     -12.486  11.849  63.150  1.00  0.00    -0.515 OA 
BRANCH   4   6
HETATM    6  C   UNL     1     -10.512  12.195  64.483  1.00  0.00    -0.339 C  
BRANCH   6   7
HETATM    7  C   UNL     1     -10.114  11.394  65.715  1.00  0.00    -0.246 C  
BRANCH   7   8
HETATM    8  S   UNL     1      -8.709  10.241  65.412  1.00  0.00    -0.178 SA 
BRANCH   8   9
HETATM    9  P   UNL     1      -9.109   8.433  66.443  1.00  0.00    -0.210 P  
HETATM   10  S   UNL     1      -7.849   7.352  65.274  1.00  0.00    -0.127 S  
BRANCH   9  11
HETATM   11  O   UNL     1      -8.376   8.969  67.831  1.00  0.00    -0.116 OA 
HETATM   12  C   UNL     1      -7.545   8.138  68.629  1.00  0.00    -0.103 C  
ENDBRANCH   9  11
BRANCH   9  13
HETATM   13  O   UNL     1      -9.436   6.957  67.284  1.00  0.00    -0.130 OA 
HETATM   14  C   UNL     1     -10.804   6.621  67.407  1.00  0.00    -0.363 C  
ENDBRANCH   9  13
ENDBRANCH   8   9
ENDBRANCH   7   8
BRANCH   7  15
HETATM   15  C   UNL     1      -9.648  12.359  66.798  1.00  0.00    -0.224 C  
HETATM   16  O   UNL     1      -9.830  12.202  67.997  1.00  0.00    -0.190 OA 
BRANCH  15  17
HETATM   17  O   UNL     1      -9.094  13.467  66.228  1.00  0.00    -0.125 OA 
BRANCH  17  18
HETATM   18  C   UNL     1      -8.878  14.564  67.124  1.00  0.00    -0.229 C  
HETATM   19  C   UNL     1      -8.631  15.806  66.288  1.00  0.00    -0.307 C  
ENDBRANCH  17  18
ENDBRANCH  15  17
ENDBRANCH   7  15
ENDBRANCH   6   7
ENDBRANCH   4   6
ENDBRANCH   3   4
ENDBRANCH   2   3
TORSDOF 11
ENDMDL
MODEL      228
REMARK 921   NORMALIZED FREE ENERGY PREDICTED BY IDOCK:   -3.05 KCAL/MOL
REMARK 922        TOTAL FREE ENERGY PREDICTED BY IDOCK:   -5.70 KCAL/MOL
REMARK 923 INTER-LIGAND FREE ENERGY PREDICTED BY IDOCK:   -4.96 KCAL/MOL
REMARK 924 INTRA-LIGAND FREE ENERGY PREDICTED BY IDOCK:   -0.74 KCAL/MOL
REMARK 927      BINDING AFFINITY PREDICTED BY RF-SCORE:    0.00 PKD
ROOT
HETATM    1  C   UNL     1      -5.490  13.800  68.369  1.00  0.00    -0.099 C  
HETATM    2  C   UNL     1      -6.717  13.232  69.060  1.00  0.00    -0.107 C  
ENDROOT
BRANCH   2   3
HETATM    3  O   UNL     1      -7.726  13.043  68.062  1.00  0.00    -0.118 OA 
BRANCH   3   4
HETATM    4  C   UNL     1      -7.815  11.797  67.533  1.00  0.00    -0.148 C  
HETATM    5  O   UNL     1      -7.333  11.428  66.470  1.00  0.00    -0.133 OA 
BRANCH   4   6
HETATM    6  C   UNL     1      -8.427  10.864  68.538  1.00  0.00    -0.147 C  
BRANCH   6   7
HETATM    7  C   UNL     1      -9.913  11.146  68.718  1.00  0.00    -0.198 C  
BRANCH   7   8
HETATM    8  S   UNL     1     -10.804  11.402  67.126  1.00  0.00    -0.281 SA 
BRANCH   8   9
HETATM    9  P   UNL     1     -11.195  13.475  66.919  1.00  0.00    -0.335 P  
HETATM   10  S   UNL     1     -12.230  13.225  65.189  1.00  0.00    -0.470 S  
BRANCH   9  11
HETATM   11  O   UNL     1     -12.187  13.502  68.247  1.00  0.00    -0.313 OA 
HETATM   12  C   UNL     1     -11.923  14.311  69.385  1.00  0.00    -0.337 C  
ENDBRANCH   9  11
BRANCH   9  13
HETATM   13  O   UNL     1     -11.514  15.167  66.748  1.00  0.00    -0.303 OA 
HETATM   14  C   UNL     1     -10.383  15.971  66.479  1.00  0.00    -0.299 C  
ENDBRANCH   9  13
ENDBRANCH   8   9
ENDBRANCH   7   8
BRANCH   7  15
HETATM   15  C   UNL     1     -10.563   9.939  69.382  1.00  0.00    -0.229 C  
HETATM   16  O   UNL     1     -10.734   8.854  68.844  1.00  0.00    -0.197 OA 
BRANCH  15  17
HETATM   17  O   UNL     1     -11.018  10.279  70.622  1.00  0.00    -0.308 OA 
BRANCH  17  18
HETATM   18  C   UNL     1     -12.328  10.860  70.647  1.00  0.00    -0.376 C  
HETATM   19  C   UNL     1     -13.039  10.349  71.887  1.00  0.00    -0.563 C  
ENDBRANCH  17  18
ENDBRANCH  15  17
ENDBRANCH   7  15
ENDBRANCH   6   7
ENDBRANCH   4   6
ENDBRANCH   3   4
ENDBRANCH   2   3
TORSDOF 11
ENDMDL
MODEL      229
REMARK 921   NORMALIZED FREE ENERGY PREDICTED BY IDOCK:   -3.04 KCAL/MOL
REMARK 922        TOTAL FREE ENERGY PREDICTED BY IDOCK:   -5.69 KCAL/MOL
REMARK 923 INTER-LIGAND FREE ENERGY PREDICTED BY IDOCK:   -5.00 KCAL/MOL
REMARK 924 INTRA-LIGAND FREE ENERGY PREDICTED BY IDOCK:   -0.69 KCAL/MOL
REMARK 927      BINDING AFFINITY PREDICTED BY RF-SCORE:    0.00 PKD
ROOT
HETATM    1  C   UNL     1      -8.893   6.062  66.084  1.00  0.00    -0.152 C  
HETATM    2  C   UNL     1      -8.798   6.703  67.457  1.00  0.00    -0.116 C  
ENDROOT
BRANCH   2   3
HETATM    3  O   UNL     1      -9.130   8.089  67.309  1.00  0.00    -0.131 OA 
BRANCH   3   4
HETATM    4  C   UNL     1      -9.101   8.832  68.443  1.00  0.00    -0.141 C  
HETATM    5  O   UNL     1      -8.204   9.593  68.786  1.00  0.00    -0.101 OA 
BRANCH   4   6
HETATM    6  C   UNL     1     -10.429   8.745  69.139  1.00  0.00    -0.230 C  
BRANCH   6   7
HETATM    7  C   UNL     1     -10.738  10.027  69.899  1.00  0.00    -0.286 C  
BRANCH   7   8
HETATM    8  S   UNL     1     -11.896  11.144  69.002  1.00  0.00    -0.322 SA 
BRANCH   8   9
HETATM    9  P   UNL     1     -10.915  12.998  68.694  1.00  0.00    -0.261 P  
HETATM   10  S   UNL     1     -11.871  13.343  66.935  1.00  0.00    -0.400 S  
BRANCH   9  11
HETATM   11  O   UNL     1     -11.684  13.710  69.979  1.00  0.00    -0.284 OA 
HETATM   12  C   UNL     1     -12.074  15.077  69.977  1.00  0.00    -0.337 C  
ENDBRANCH   9  11
BRANCH   9  13
HETATM   13  O   UNL     1     -10.114  14.510  68.441  1.00  0.00    -0.227 OA 
HETATM   14  C   UNL     1      -8.955  14.453  67.632  1.00  0.00    -0.192 C  
ENDBRANCH   9  13
ENDBRANCH   8   9
ENDBRANCH   7   8
BRANCH   7  15
HETATM   15  C   UNL     1     -11.421   9.667  71.211  1.00  0.00    -0.392 C  
HETATM   16  O   UNL     1     -12.458  10.172  71.620  1.00  0.00    -0.383 OA 
BRANCH  15  17
HETATM   17  O   UNL     1     -10.655   8.780  71.908  1.00  0.00    -0.309 OA 
BRANCH  17  18
HETATM   18  C   UNL     1     -11.387   7.872  72.740  1.00  0.00    -0.393 C  
HETATM   19  C   UNL     1     -11.421   6.525  72.042  1.00  0.00    -0.342 C  
ENDBRANCH  17  18
ENDBRANCH  15  17
ENDBRANCH   7  15
ENDBRANCH   6   7
ENDBRANCH   4   6
ENDBRANCH   3   4
ENDBRANCH   2   3
TORSDOF 11
ENDMDL
MODEL      230
REMARK 921   NORMALIZED FREE ENERGY PREDICTED BY IDOCK:   -3.04 KCAL/MOL
REMARK 922        TOTAL FREE ENERGY PREDICTED BY IDOCK:   -5.68 KCAL/MOL
REMARK 923 INTER-LIGAND FREE ENERGY PREDICTED BY IDOCK:   -4.78 KCAL/MOL
REMARK 924 INTRA-LIGAND FREE ENERGY PREDICTED BY IDOCK:   -0.90 KCAL/MOL
REMARK 927      BINDING AFFINITY PREDICTED BY RF-SCORE:    0.00 PKD
ROOT
HETATM    1  C   UNL     1     -12.180  12.506  70.452  1.00  0.00    -0.368 C  
HETATM    2  C   UNL     1     -12.658  11.152  69.955  1.00  0.00    -0.147 C  
ENDROOT
BRANCH   2   3
HETATM    3  O   UNL     1     -11.642  10.194  70.273  1.00  0.00    -0.267 OA 
BRANCH   3   4
HETATM    4  C   UNL     1     -11.784   9.544  71.455  1.00  0.00    -0.393 C  
HETATM    5  O   UNL     1     -12.829   9.402  72.079  1.00  0.00    -0.369 OA 
BRANCH   4   6
HETATM    6  C   UNL     1     -10.504   8.843  71.804  1.00  0.00    -0.431 C  
BRANCH   6   7
HETATM    7  C   UNL     1     -10.717   7.832  72.922  1.00  0.00    -0.385 C  
BRANCH   7   8
HETATM    8  S   UNL     1     -11.257   6.178  72.316  1.00  0.00    -0.302 SA 
BRANCH   8   9
HETATM    9  P   UNL     1      -9.781   5.456  70.976  1.00  0.00    -0.197 P  
HETATM   10  S   UNL     1      -9.773   3.600  71.803  1.00  0.00    -0.161 S  
BRANCH   9  11
HETATM   11  O   UNL     1     -10.800   5.559  69.672  1.00  0.00    -0.328 OA 
HETATM   12  C   UNL     1     -10.753   6.635  68.745  1.00  0.00    -0.258 C  
ENDBRANCH   9  11
BRANCH   9  13
HETATM   13  O   UNL     1      -8.577   4.866  69.884  1.00  0.00    -0.085 OA 
HETATM   14  C   UNL     1      -7.290   5.431  70.040  1.00  0.00    -0.068 C  
ENDBRANCH   9  13
ENDBRANCH   8   9
ENDBRANCH   7   8
BRANCH   7  15
HETATM   15  C   UNL     1      -9.394   7.612  73.644  1.00  0.00    -0.287 C  
HETATM   16  O   UNL     1      -9.217   6.806  74.548  1.00  0.00    -0.196 OA 
BRANCH  15  17
HETATM   17  O   UNL     1      -8.469   8.512  73.205  1.00  0.00    -0.372 OA 
BRANCH  17  18
HETATM   18  C   UNL     1      -7.146   7.988  73.040  1.00  0.00    -0.099 C  
HETATM   19  C   UNL     1      -6.471   8.770  71.927  1.00  0.00    -0.071 C  
ENDBRANCH  17  18
ENDBRANCH  15  17
ENDBRANCH   7  15
ENDBRANCH   6   7
ENDBRANCH   4   6
ENDBRANCH   3   4
ENDBRANCH   2   3
TORSDOF 11
ENDMDL
MODEL      231
REMARK 921   NORMALIZED FREE ENERGY PREDICTED BY IDOCK:   -3.03 KCAL/MOL
REMARK 922        TOTAL FREE ENERGY PREDICTED BY IDOCK:   -5.68 KCAL/MOL
REMARK 923 INTER-LIGAND FREE ENERGY PREDICTED BY IDOCK:   -5.58 KCAL/MOL
REMARK 924 INTRA-LIGAND FREE ENERGY PREDICTED BY IDOCK:   -0.09 KCAL/MOL
REMARK 927      BINDING AFFINITY PREDICTED BY RF-SCORE:    0.00 PKD
ROOT
HETATM    1  C   UNL     1     -11.804  15.228  68.809  1.00  0.00    -0.332 C  
HETATM    2  C   UNL     1     -10.322  15.517  68.970  1.00  0.00    -0.235 C  
ENDROOT
BRANCH   2   3
HETATM    3  O   UNL     1      -9.619  14.282  68.787  1.00  0.00    -0.210 OA 
BRANCH   3   4
HETATM    4  C   UNL     1      -9.461  13.873  67.503  1.00  0.00    -0.216 C  
HETATM    5  O   UNL     1      -9.634  14.555  66.501  1.00  0.00    -0.267 OA 
BRANCH   4   6
HETATM    6  C   UNL     1      -8.846  12.504  67.482  1.00  0.00    -0.184 C  
BRANCH   6   7
HETATM    7  C   UNL     1      -9.892  11.434  67.201  1.00  0.00    -0.190 C  
BRANCH   7   8
HETATM    8  S   UNL     1     -11.254  11.403  68.440  1.00  0.00    -0.293 SA 
BRANCH   8   9
HETATM    9  P   UNL     1     -10.704  10.064  69.989  1.00  0.00    -0.315 P  
HETATM   10  S   UNL     1     -12.468  10.292  70.970  1.00  0.00    -0.419 S  
BRANCH   9  11
HETATM   11  O   UNL     1     -10.714   8.756  68.970  1.00  0.00    -0.203 OA 
HETATM   12  C   UNL     1      -9.603   7.880  68.834  1.00  0.00    -0.155 C  
ENDBRANCH   9  11
BRANCH   9  13
HETATM   13  O   UNL     1     -10.255   8.972  71.253  1.00  0.00    -0.258 OA 
HETATM   14  C   UNL     1     -11.272   8.684  72.192  1.00  0.00    -0.367 C  
ENDBRANCH   9  13
ENDBRANCH   8   9
ENDBRANCH   7   8
BRANCH   7  15
HETATM   15  C   UNL     1     -10.544  11.726  65.856  1.00  0.00    -0.271 C  
HETATM   16  O   UNL     1      -9.937  11.896  64.808  1.00  0.00    -0.253 OA 
BRANCH  15  17
HETATM   17  O   UNL     1     -11.891  11.873  66.013  1.00  0.00    -0.497 OA 
BRANCH  17  18
HETATM   18  C   UNL     1     -12.495  12.854  65.162  1.00  0.00    -0.501 C  
HETATM   19  C   UNL     1     -12.908  12.164  63.875  1.00  0.00    -0.420 C  
ENDBRANCH  17  18
ENDBRANCH  15  17
ENDBRANCH   7  15
ENDBRANCH   6   7
ENDBRANCH   4   6
ENDBRANCH   3   4
ENDBRANCH   2   3
TORSDOF 11
ENDMDL
MODEL      232
REMARK 921   NORMALIZED FREE ENERGY PREDICTED BY IDOCK:   -3.03 KCAL/MOL
REMARK 922        TOTAL FREE ENERGY PREDICTED BY IDOCK:   -5.68 KCAL/MOL
REMARK 923 INTER-LIGAND FREE ENERGY PREDICTED BY IDOCK:   -4.93 KCAL/MOL
REMARK 924 INTRA-LIGAND FREE ENERGY PREDICTED BY IDOCK:   -0.75 KCAL/MOL
REMARK 927      BINDING AFFINITY PREDICTED BY RF-SCORE:    0.00 PKD
ROOT
HETATM    1  C   UNL     1     -10.644  15.420  66.303  1.00  0.00    -0.311 C  
HETATM    2  C   UNL     1     -11.662  14.624  67.101  1.00  0.00    -0.373 C  
ENDROOT
BRANCH   2   3
HETATM    3  O   UNL     1     -11.100  13.331  67.350  1.00  0.00    -0.265 OA 
BRANCH   3   4
HETATM    4  C   UNL     1     -11.699  12.290  66.720  1.00  0.00    -0.342 C  
HETATM    5  O   UNL     1     -12.405  12.360  65.721  1.00  0.00    -0.644 OA 
BRANCH   4   6
HETATM    6  C   UNL     1     -11.213  10.996  67.306  1.00  0.00    -0.330 C  
BRANCH   6   7
HETATM    7  C   UNL     1      -9.692  10.949  67.352  1.00  0.00    -0.168 C  
BRANCH   7   8
HETATM    8  S   UNL     1      -9.036   9.923  68.735  1.00  0.00    -0.154 SA 
BRANCH   8   9
HETATM    9  P   UNL     1     -10.088   8.082  68.742  1.00  0.00    -0.197 P  
HETATM   10  S   UNL     1      -8.402   6.986  68.455  1.00  0.00    -0.124 S  
BRANCH   9  11
HETATM   11  O   UNL     1     -10.482   8.222  70.347  1.00  0.00    -0.206 OA 
HETATM   12  C   UNL     1      -9.915   9.213  71.193  1.00  0.00    -0.307 C  
ENDBRANCH   9  11
BRANCH   9  13
HETATM   13  O   UNL     1     -10.945   6.579  68.747  1.00  0.00    -0.282 OA 
HETATM   14  C   UNL     1     -11.146   6.002  70.022  1.00  0.00    -0.381 C  
ENDBRANCH   9  13
ENDBRANCH   8   9
ENDBRANCH   7   8
BRANCH   7  15
HETATM   15  C   UNL     1      -9.181  10.311  66.067  1.00  0.00    -0.164 C  
HETATM   16  O   UNL     1      -9.825   9.544  65.365  1.00  0.00    -0.302 OA 
BRANCH  15  17
HETATM   17  O   UNL     1      -7.871  10.638  65.873  1.00  0.00    -0.151 OA 
BRANCH  17  18
HETATM   18  C   UNL     1      -7.043   9.567  65.405  1.00  0.00    -0.095 C  
HETATM   19  C   UNL     1      -6.324  10.045  64.157  1.00  0.00    -0.132 C  
ENDBRANCH  17  18
ENDBRANCH  15  17
ENDBRANCH   7  15
ENDBRANCH   6   7
ENDBRANCH   4   6
ENDBRANCH   3   4
ENDBRANCH   2   3
TORSDOF 11
ENDMDL
MODEL      233
REMARK 921   NORMALIZED FREE ENERGY PREDICTED BY IDOCK:   -3.03 KCAL/MOL
REMARK 922        TOTAL FREE ENERGY PREDICTED BY IDOCK:   -5.67 KCAL/MOL
REMARK 923 INTER-LIGAND FREE ENERGY PREDICTED BY IDOCK:   -4.91 KCAL/MOL
REMARK 924 INTRA-LIGAND FREE ENERGY PREDICTED BY IDOCK:   -0.75 KCAL/MOL
REMARK 927      BINDING AFFINITY PREDICTED BY RF-SCORE:    0.00 PKD
ROOT
HETATM    1  C   UNL     1     -10.850  11.561  64.019  1.00  0.00    -0.453 C  
HETATM    2  C   UNL     1     -10.374  11.785  65.444  1.00  0.00    -0.268 C  
ENDROOT
BRANCH   2   3
HETATM    3  O   UNL     1     -10.002  10.510  65.980  1.00  0.00    -0.216 OA 
BRANCH   3   4
HETATM    4  C   UNL     1     -10.770  10.044  66.996  1.00  0.00    -0.178 C  
HETATM    5  O   UNL     1     -11.660  10.660  67.570  1.00  0.00    -0.482 OA 
BRANCH   4   6
HETATM    6  C   UNL     1     -10.510   8.579  67.197  1.00  0.00    -0.370 C  
BRANCH   6   7
HETATM    7  C   UNL     1      -9.432   8.349  68.246  1.00  0.00    -0.138 C  
BRANCH   7   8
HETATM    8  S   UNL     1     -10.044   7.454  69.736  1.00  0.00    -0.197 SA 
BRANCH   8   9
HETATM    9  P   UNL     1     -11.206   8.806  70.883  1.00  0.00    -0.292 P  
HETATM   10  S   UNL     1     -12.576   7.390  71.378  1.00  0.00    -0.361 S  
BRANCH   9  11
HETATM   11  O   UNL     1     -10.025   8.969  72.035  1.00  0.00    -0.321 OA 
HETATM   12  C   UNL     1      -8.756   8.339  71.927  1.00  0.00    -0.171 C  
ENDBRANCH   9  11
BRANCH   9  13
HETATM   13  O   UNL     1     -12.155   9.909  71.819  1.00  0.00    -0.389 OA 
HETATM   14  C   UNL     1     -13.484   9.497  72.075  1.00  0.00    -0.443 C  
ENDBRANCH   9  13
ENDBRANCH   8   9
ENDBRANCH   7   8
BRANCH   7  15
HETATM   15  C   UNL     1      -8.339   7.477  67.643  1.00  0.00    -0.118 C  
HETATM   16  O   UNL     1      -7.506   7.862  66.834  1.00  0.00    -0.088 OA 
BRANCH  15  17
HETATM   17  O   UNL     1      -8.490   6.187  68.058  1.00  0.00    -0.116 OA 
BRANCH  17  18
HETATM   18  C   UNL     1      -8.237   5.196  67.054  1.00  0.00    -0.107 C  
HETATM   19  C   UNL     1      -9.426   4.253  67.021  1.00  0.00    -0.205 C  
ENDBRANCH  17  18
ENDBRANCH  15  17
ENDBRANCH   7  15
ENDBRANCH   6   7
ENDBRANCH   4   6
ENDBRANCH   3   4
ENDBRANCH   2   3
TORSDOF 11
ENDMDL
MODEL      234
REMARK 921   NORMALIZED FREE ENERGY PREDICTED BY IDOCK:   -3.03 KCAL/MOL
REMARK 922        TOTAL FREE ENERGY PREDICTED BY IDOCK:   -5.67 KCAL/MOL
REMARK 923 INTER-LIGAND FREE ENERGY PREDICTED BY IDOCK:   -6.28 KCAL/MOL
REMARK 924 INTRA-LIGAND FREE ENERGY PREDICTED BY IDOCK:    0.62 KCAL/MOL
REMARK 927      BINDING AFFINITY PREDICTED BY RF-SCORE:    0.00 PKD
ROOT
HETATM    1  C   UNL     1      -9.042  19.506  66.307  1.00  0.00    -0.403 C  
HETATM    2  C   UNL     1      -8.875  18.067  66.763  1.00  0.00    -0.263 C  
ENDROOT
BRANCH   2   3
HETATM    3  O   UNL     1      -8.971  17.233  65.603  1.00  0.00    -0.481 OA 
BRANCH   3   4
HETATM    4  C   UNL     1     -10.139  16.560  65.448  1.00  0.00    -0.066 C  
HETATM    5  O   UNL     1     -11.042  16.849  64.673  1.00  0.00    -0.934 OA 
BRANCH   4   6
HETATM    6  C   UNL     1     -10.092  15.278  66.229  1.00  0.00    -0.297 C  
BRANCH   6   7
HETATM    7  C   UNL     1     -11.432  14.984  66.887  1.00  0.00    -0.263 C  
BRANCH   7   8
HETATM    8  S   UNL     1     -11.733  13.186  67.156  1.00  0.00    -0.378 SA 
BRANCH   8   9
HETATM    9  P   UNL     1     -10.331  12.104  65.991  1.00  0.00    -0.255 P  
HETATM   10  S   UNL     1     -10.882  13.021  64.265  1.00  0.00    -0.410 S  
BRANCH   9  11
HETATM   11  O   UNL     1      -9.036  12.848  66.713  1.00  0.00    -0.218 OA 
HETATM   12  C   UNL     1      -8.730  12.687  68.091  1.00  0.00    -0.190 C  
ENDBRANCH   9  11
BRANCH   9  13
HETATM   13  O   UNL     1      -9.187  11.221  65.040  1.00  0.00    -0.203 OA 
HETATM   14  C   UNL     1      -9.610   9.937  64.624  1.00  0.00    -0.252 C  
ENDBRANCH   9  13
ENDBRANCH   8   9
ENDBRANCH   7   8
BRANCH   7  15
HETATM   15  C   UNL     1     -11.455  15.632  68.265  1.00  0.00    -0.350 C  
HETATM   16  O   UNL     1     -11.337  16.832  68.474  1.00  0.00    -0.268 OA 
BRANCH  15  17
HETATM   17  O   UNL     1     -11.522  14.671  69.231  1.00  0.00    -0.260 OA 
BRANCH  17  18
HETATM   18  C   UNL     1     -11.571  15.167  70.574  1.00  0.00    -0.300 C  
HETATM   19  C   UNL     1     -13.026  15.202  71.004  1.00  0.00    -0.494 C  
ENDBRANCH  17  18
ENDBRANCH  15  17
ENDBRANCH   7  15
ENDBRANCH   6   7
ENDBRANCH   4   6
ENDBRANCH   3   4
ENDBRANCH   2   3
TORSDOF 11
ENDMDL
MODEL      235
REMARK 921   NORMALIZED FREE ENERGY PREDICTED BY IDOCK:   -3.02 KCAL/MOL
REMARK 922        TOTAL FREE ENERGY PREDICTED BY IDOCK:   -5.66 KCAL/MOL
REMARK 923 INTER-LIGAND FREE ENERGY PREDICTED BY IDOCK:   -4.84 KCAL/MOL
REMARK 924 INTRA-LIGAND FREE ENERGY PREDICTED BY IDOCK:   -0.82 KCAL/MOL
REMARK 927      BINDING AFFINITY PREDICTED BY RF-SCORE:    0.00 PKD
ROOT
HETATM    1  C   UNL     1     -11.121  14.843  68.705  1.00  0.00    -0.274 C  
HETATM    2  C   UNL     1     -12.083  13.781  69.206  1.00  0.00    -0.329 C  
ENDROOT
BRANCH   2   3
HETATM    3  O   UNL     1     -11.308  12.628  69.555  1.00  0.00    -0.232 OA 
BRANCH   3   4
HETATM    4  C   UNL     1     -11.853  11.426  69.239  1.00  0.00    -0.349 C  
HETATM    5  O   UNL     1     -12.566  10.743  69.963  1.00  0.00    -0.308 OA 
BRANCH   4   6
HETATM    6  C   UNL     1     -11.621  11.133  67.784  1.00  0.00    -0.303 C  
BRANCH   6   7
HETATM    7  C   UNL     1     -10.134  11.044  67.470  1.00  0.00    -0.180 C  
BRANCH   7   8
HETATM    8  S   UNL     1      -9.360   9.476  68.048  1.00  0.00    -0.132 SA 
BRANCH   8   9
HETATM    9  P   UNL     1      -7.921   9.959  69.528  1.00  0.00    -0.177 P  
HETATM   10  S   UNL     1      -8.870   8.886  70.967  1.00  0.00    -0.242 S  
BRANCH   9  11
HETATM   11  O   UNL     1      -6.732   9.084  68.771  1.00  0.00    -0.053 OA 
HETATM   12  C   UNL     1      -6.486   9.172  67.375  1.00  0.00    -0.064 C  
ENDBRANCH   9  11
BRANCH   9  13
HETATM   13  O   UNL     1      -6.747  10.354  70.736  1.00  0.00    -0.340 OA 
HETATM   14  C   UNL     1      -5.945  11.483  70.453  1.00  0.00    -0.138 C  
ENDBRANCH   9  13
ENDBRANCH   8   9
ENDBRANCH   7   8
BRANCH   7  15
HETATM   15  C   UNL     1      -9.949  11.081  65.959  1.00  0.00    -0.237 C  
HETATM   16  O   UNL     1      -8.898  10.844  65.379  1.00  0.00    -0.193 OA 
BRANCH  15  17
HETATM   17  O   UNL     1     -11.094  11.516  65.359  1.00  0.00    -0.267 OA 
BRANCH  17  18
HETATM   18  C   UNL     1     -10.896  12.298  64.175  1.00  0.00    -0.365 C  
HETATM   19  C   UNL     1     -12.243  12.460  63.495  1.00  0.00    -0.661 C  
ENDBRANCH  17  18
ENDBRANCH  15  17
ENDBRANCH   7  15
ENDBRANCH   6   7
ENDBRANCH   4   6
ENDBRANCH   3   4
ENDBRANCH   2   3
TORSDOF 11
ENDMDL
MODEL      236
REMARK 921   NORMALIZED FREE ENERGY PREDICTED BY IDOCK:   -3.02 KCAL/MOL
REMARK 922        TOTAL FREE ENERGY PREDICTED BY IDOCK:   -5.66 KCAL/MOL
REMARK 923 INTER-LIGAND FREE ENERGY PREDICTED BY IDOCK:   -5.08 KCAL/MOL
REMARK 924 INTRA-LIGAND FREE ENERGY PREDICTED BY IDOCK:   -0.58 KCAL/MOL
REMARK 927      BINDING AFFINITY PREDICTED BY RF-SCORE:    0.00 PKD
ROOT
HETATM    1  C   UNL     1      -6.662  16.796  69.350  1.00  0.00    -0.226 C  
HETATM    2  C   UNL     1      -8.080  16.655  68.824  1.00  0.00    -0.247 C  
ENDROOT
BRANCH   2   3
HETATM    3  O   UNL     1      -8.594  15.406  69.302  1.00  0.00    -0.224 OA 
BRANCH   3   4
HETATM    4  C   UNL     1      -8.774  14.440  68.367  1.00  0.00    -0.180 C  
HETATM    5  O   UNL     1      -7.911  13.978  67.630  1.00  0.00    -0.149 OA 
BRANCH   4   6
HETATM    6  C   UNL     1     -10.155  13.864  68.494  1.00  0.00    -0.234 C  
BRANCH   6   7
HETATM    7  C   UNL     1     -10.336  12.659  67.582  1.00  0.00    -0.220 C  
BRANCH   7   8
HETATM    8  S   UNL     1     -11.462  11.379  68.281  1.00  0.00    -0.304 SA 
BRANCH   8   9
HETATM    9  P   UNL     1     -10.533   9.488  68.049  1.00  0.00    -0.212 P  
HETATM   10  S   UNL     1      -8.792  10.296  67.385  1.00  0.00    -0.131 S  
BRANCH   9  11
HETATM   11  O   UNL     1     -10.513   9.208  69.684  1.00  0.00    -0.210 OA 
HETATM   12  C   UNL     1     -11.083  10.110  70.623  1.00  0.00    -0.322 C  
ENDBRANCH   9  11
BRANCH   9  13
HETATM   13  O   UNL     1      -9.774   7.945  67.859  1.00  0.00    -0.147 OA 
HETATM   14  C   UNL     1      -9.108   7.746  66.627  1.00  0.00    -0.161 C  
ENDBRANCH   9  13
ENDBRANCH   8   9
ENDBRANCH   7   8
BRANCH   7  15
HETATM   15  C   UNL     1     -10.971  13.121  66.277  1.00  0.00    -0.280 C  
HETATM   16  O   UNL     1     -10.742  14.192  65.731  1.00  0.00    -0.285 OA 
BRANCH  15  17
HETATM   17  O   UNL     1     -11.903  12.215  65.866  1.00  0.00    -0.504 OA 
BRANCH  17  18
HETATM   18  C   UNL     1     -12.646  12.598  64.702  1.00  0.00    -0.440 C  
HETATM   19  C   UNL     1     -11.924  12.046  63.487  1.00  0.00    -0.605 C  
ENDBRANCH  17  18
ENDBRANCH  15  17
ENDBRANCH   7  15
ENDBRANCH   6   7
ENDBRANCH   4   6
ENDBRANCH   3   4
ENDBRANCH   2   3
TORSDOF 11
ENDMDL
MODEL      237
REMARK 921   NORMALIZED FREE ENERGY PREDICTED BY IDOCK:   -3.01 KCAL/MOL
REMARK 922        TOTAL FREE ENERGY PREDICTED BY IDOCK:   -5.65 KCAL/MOL
REMARK 923 INTER-LIGAND FREE ENERGY PREDICTED BY IDOCK:   -5.47 KCAL/MOL
REMARK 924 INTRA-LIGAND FREE ENERGY PREDICTED BY IDOCK:   -0.18 KCAL/MOL
REMARK 927      BINDING AFFINITY PREDICTED BY RF-SCORE:    0.00 PKD
ROOT
HETATM    1  C   UNL     1      -7.567  20.901  67.086  1.00  0.00    -0.295 C  
HETATM    2  C   UNL     1      -9.044  20.589  67.256  1.00  0.00    -0.343 C  
ENDROOT
BRANCH   2   3
HETATM    3  O   UNL     1      -9.498  19.979  66.042  1.00  0.00    -0.396 OA 
BRANCH   3   4
HETATM    4  C   UNL     1     -10.343  18.928  66.183  1.00  0.00    -0.460 C  
HETATM    5  O   UNL     1     -11.026  18.426  65.299  1.00  0.00    -0.563 OA 
BRANCH   4   6
HETATM    6  C   UNL     1     -10.179  18.328  67.550  1.00  0.00    -0.384 C  
BRANCH   6   7
HETATM    7  C   UNL     1      -9.523  16.956  67.474  1.00  0.00    -0.241 C  
BRANCH   7   8
HETATM    8  S   UNL     1     -10.540  15.711  66.574  1.00  0.00    -0.296 SA 
BRANCH   8   9
HETATM    9  P   UNL     1     -10.742  14.006  67.817  1.00  0.00    -0.248 P  
HETATM   10  S   UNL     1      -9.189  13.037  66.938  1.00  0.00    -0.229 S  
BRANCH   9  11
HETATM   11  O   UNL     1     -10.277  14.840  69.173  1.00  0.00    -0.233 OA 
HETATM   12  C   UNL     1     -11.186  15.188  70.209  1.00  0.00    -0.277 C  
ENDBRANCH   9  11
BRANCH   9  13
HETATM   13  O   UNL     1     -10.907  12.614  68.831  1.00  0.00    -0.237 OA 
HETATM   14  C   UNL     1     -11.512  11.490  68.221  1.00  0.00    -0.299 C  
ENDBRANCH   9  13
ENDBRANCH   8   9
ENDBRANCH   7   8
BRANCH   7  15
HETATM   15  C   UNL     1      -8.216  17.079  66.701  1.00  0.00    -0.260 C  
HETATM   16  O   UNL     1      -8.099  16.907  65.496  1.00  0.00    -0.084 OA 
BRANCH  15  17
HETATM   17  O   UNL     1      -7.185  17.307  67.564  1.00  0.00    -0.156 OA 
BRANCH  17  18
HETATM   18  C   UNL     1      -7.383  16.801  68.890  1.00  0.00    -0.235 C  
HETATM   19  C   UNL     1      -6.124  17.083  69.689  1.00  0.00    -0.231 C  
ENDBRANCH  17  18
ENDBRANCH  15  17
ENDBRANCH   7  15
ENDBRANCH   6   7
ENDBRANCH   4   6
ENDBRANCH   3   4
ENDBRANCH   2   3
TORSDOF 11
ENDMDL
MODEL      238
REMARK 921   NORMALIZED FREE ENERGY PREDICTED BY IDOCK:   -3.00 KCAL/MOL
REMARK 922        TOTAL FREE ENERGY PREDICTED BY IDOCK:   -5.62 KCAL/MOL
REMARK 923 INTER-LIGAND FREE ENERGY PREDICTED BY IDOCK:   -4.81 KCAL/MOL
REMARK 924 INTRA-LIGAND FREE ENERGY PREDICTED BY IDOCK:   -0.81 KCAL/MOL
REMARK 927      BINDING AFFINITY PREDICTED BY RF-SCORE:    0.00 PKD
ROOT
HETATM    1  C   UNL     1      -8.697   6.856  65.894  1.00  0.00    -0.146 C  
HETATM    2  C   UNL     1      -8.285   8.266  65.507  1.00  0.00    -0.138 C  
ENDROOT
BRANCH   2   3
HETATM    3  O   UNL     1      -8.641   9.132  66.591  1.00  0.00    -0.124 OA 
BRANCH   3   4
HETATM    4  C   UNL     1      -9.594  10.059  66.324  1.00  0.00    -0.202 C  
HETATM    5  O   UNL     1      -9.557  10.897  65.432  1.00  0.00    -0.201 OA 
BRANCH   4   6
HETATM    6  C   UNL     1     -10.811   9.788  67.161  1.00  0.00    -0.207 C  
BRANCH   6   7
HETATM    7  C   UNL     1     -10.648  10.348  68.567  1.00  0.00    -0.209 C  
BRANCH   7   8
HETATM    8  S   UNL     1     -12.033  11.451  69.077  1.00  0.00    -0.262 SA 
BRANCH   8   9
HETATM    9  P   UNL     1     -11.557  13.426  68.468  1.00  0.00    -0.376 P  
HETATM   10  S   UNL     1     -12.056  14.224  70.268  1.00  0.00    -0.355 S  
BRANCH   9  11
HETATM   11  O   UNL     1      -9.937  13.087  68.357  1.00  0.00    -0.231 OA 
HETATM   12  C   UNL     1      -9.075  13.751  67.443  1.00  0.00    -0.221 C  
ENDBRANCH   9  11
BRANCH   9  13
HETATM   13  O   UNL     1     -11.169  15.037  67.972  1.00  0.00    -0.290 OA 
HETATM   14  C   UNL     1     -11.505  16.052  68.899  1.00  0.00    -0.362 C  
ENDBRANCH   9  13
ENDBRANCH   8   9
ENDBRANCH   7   8
BRANCH   7  15
HETATM   15  C   UNL     1     -10.638   9.191  69.558  1.00  0.00    -0.223 C  
HETATM   16  O   UNL     1     -10.631   8.007  69.248  1.00  0.00    -0.222 OA 
BRANCH  15  17
HETATM   17  O   UNL     1     -10.741   9.667  70.832  1.00  0.00    -0.302 OA 
BRANCH  17  18
HETATM   18  C   UNL     1     -11.421   8.799  71.748  1.00  0.00    -0.342 C  
HETATM   19  C   UNL     1     -10.372   8.117  72.607  1.00  0.00    -0.398 C  
ENDBRANCH  17  18
ENDBRANCH  15  17
ENDBRANCH   7  15
ENDBRANCH   6   7
ENDBRANCH   4   6
ENDBRANCH   3   4
ENDBRANCH   2   3
TORSDOF 11
ENDMDL
MODEL      239
REMARK 921   NORMALIZED FREE ENERGY PREDICTED BY IDOCK:   -2.99 KCAL/MOL
REMARK 922        TOTAL FREE ENERGY PREDICTED BY IDOCK:   -5.62 KCAL/MOL
REMARK 923 INTER-LIGAND FREE ENERGY PREDICTED BY IDOCK:   -4.62 KCAL/MOL
REMARK 924 INTRA-LIGAND FREE ENERGY PREDICTED BY IDOCK:   -1.00 KCAL/MOL
REMARK 927      BINDING AFFINITY PREDICTED BY RF-SCORE:    0.00 PKD
ROOT
HETATM    1  C   UNL     1     -12.841  10.646  71.260  1.00  0.00    -0.535 C  
HETATM    2  C   UNL     1     -11.791  11.161  70.291  1.00  0.00    -0.366 C  
ENDROOT
BRANCH   2   3
HETATM    3  O   UNL     1     -12.136  10.681  68.987  1.00  0.00    -0.327 OA 
BRANCH   3   4
HETATM    4  C   UNL     1     -11.124  10.622  68.087  1.00  0.00    -0.285 C  
HETATM    5  O   UNL     1     -11.145  10.034  67.012  1.00  0.00    -0.139 OA 
BRANCH   4   6
HETATM    6  C   UNL     1     -10.023  11.555  68.502  1.00  0.00    -0.207 C  
BRANCH   6   7
HETATM    7  C   UNL     1      -9.262  12.083  67.294  1.00  0.00    -0.182 C  
BRANCH   7   8
HETATM    8  S   UNL     1      -9.537  13.879  66.989  1.00  0.00    -0.262 SA 
BRANCH   8   9
HETATM    9  P   UNL     1     -10.527  14.689  68.679  1.00  0.00    -0.252 P  
HETATM   10  S   UNL     1      -9.484  16.430  68.602  1.00  0.00    -0.247 S  
BRANCH   9  11
HETATM   11  O   UNL     1     -11.978  14.789  67.881  1.00  0.00    -0.330 OA 
HETATM   12  C   UNL     1     -12.192  14.203  66.604  1.00  0.00    -0.418 C  
ENDBRANCH   9  11
BRANCH   9  13
HETATM   13  O   UNL     1     -11.335  15.350  70.059  1.00  0.00    -0.257 OA 
HETATM   14  C   UNL     1     -12.563  14.734  70.393  1.00  0.00    -0.346 C  
ENDBRANCH   9  13
ENDBRANCH   8   9
ENDBRANCH   7   8
BRANCH   7  15
HETATM   15  C   UNL     1      -7.769  11.915  67.543  1.00  0.00    -0.151 C  
HETATM   16  O   UNL     1      -6.888  12.454  66.887  1.00  0.00    -0.056 OA 
BRANCH  15  17
HETATM   17  O   UNL     1      -7.561  10.999  68.531  1.00  0.00    -0.099 OA 
BRANCH  17  18
HETATM   18  C   UNL     1      -6.735   9.888  68.161  1.00  0.00    -0.060 C  
HETATM   19  C   UNL     1      -7.636   8.681  67.974  1.00  0.00    -0.098 C  
ENDBRANCH  17  18
ENDBRANCH  15  17
ENDBRANCH   7  15
ENDBRANCH   6   7
ENDBRANCH   4   6
ENDBRANCH   3   4
ENDBRANCH   2   3
TORSDOF 11
ENDMDL
MODEL      240
REMARK 921   NORMALIZED FREE ENERGY PREDICTED BY IDOCK:   -2.99 KCAL/MOL
REMARK 922        TOTAL FREE ENERGY PREDICTED BY IDOCK:   -5.61 KCAL/MOL
REMARK 923 INTER-LIGAND FREE ENERGY PREDICTED BY IDOCK:   -5.34 KCAL/MOL
REMARK 924 INTRA-LIGAND FREE ENERGY PREDICTED BY IDOCK:   -0.27 KCAL/MOL
REMARK 927      BINDING AFFINITY PREDICTED BY RF-SCORE:    0.00 PKD
ROOT
HETATM    1  C   UNL     1     -13.245  14.403  70.583  1.00  0.00    -0.203 C  
HETATM    2  C   UNL     1     -12.234  13.272  70.643  1.00  0.00    -0.338 C  
ENDROOT
BRANCH   2   3
HETATM    3  O   UNL     1     -11.553  13.235  69.383  1.00  0.00    -0.281 OA 
BRANCH   3   4
HETATM    4  C   UNL     1     -11.541  14.394  68.678  1.00  0.00    -0.314 C  
HETATM    5  O   UNL     1     -11.168  15.485  69.090  1.00  0.00    -0.259 OA 
BRANCH   4   6
HETATM    6  C   UNL     1     -11.867  14.114  67.240  1.00  0.00    -0.452 C  
BRANCH   6   7
HETATM    7  C   UNL     1     -10.602  13.938  66.412  1.00  0.00    -0.280 C  
BRANCH   7   8
HETATM    8  S   UNL     1     -10.111  12.176  66.197  1.00  0.00    -0.233 SA 
BRANCH   8   9
HETATM    9  P   UNL     1      -8.271  11.879  67.208  1.00  0.00    -0.182 P  
HETATM   10  S   UNL     1      -8.038  13.857  67.607  1.00  0.00    -0.192 S  
BRANCH   9  11
HETATM   11  O   UNL     1      -8.997  11.065  68.458  1.00  0.00    -0.151 OA 
HETATM   12  C   UNL     1      -8.276  10.222  69.345  1.00  0.00    -0.165 C  
ENDBRANCH   9  11
BRANCH   9  13
HETATM   13  O   UNL     1      -6.769  11.637  68.032  1.00  0.00    -0.060 OA 
HETATM   14  C   UNL     1      -5.624  12.111  67.352  1.00  0.00    -0.128 C  
ENDBRANCH   9  13
ENDBRANCH   8   9
ENDBRANCH   7   8
BRANCH   7  15
HETATM   15  C   UNL     1     -10.852  14.486  65.013  1.00  0.00    -0.412 C  
HETATM   16  O   UNL     1     -10.989  15.671  64.741  1.00  0.00    -0.436 OA 
BRANCH  15  17
HETATM   17  O   UNL     1     -11.002  13.457  64.130  1.00  0.00    -0.378 OA 
BRANCH  17  18
HETATM   18  C   UNL     1     -12.246  13.447  63.419  1.00  0.00    -0.349 C  
HETATM   19  C   UNL     1     -12.778  12.026  63.432  1.00  0.00    -0.527 C  
ENDBRANCH  17  18
ENDBRANCH  15  17
ENDBRANCH   7  15
ENDBRANCH   6   7
ENDBRANCH   4   6
ENDBRANCH   3   4
ENDBRANCH   2   3
TORSDOF 11
ENDMDL
MODEL      241
REMARK 921   NORMALIZED FREE ENERGY PREDICTED BY IDOCK:   -2.98 KCAL/MOL
REMARK 922        TOTAL FREE ENERGY PREDICTED BY IDOCK:   -5.59 KCAL/MOL
REMARK 923 INTER-LIGAND FREE ENERGY PREDICTED BY IDOCK:   -5.11 KCAL/MOL
REMARK 924 INTRA-LIGAND FREE ENERGY PREDICTED BY IDOCK:   -0.48 KCAL/MOL
REMARK 927      BINDING AFFINITY PREDICTED BY RF-SCORE:    0.00 PKD
ROOT
HETATM    1  C   UNL     1     -13.830   9.257  72.158  1.00  0.00    -0.478 C  
HETATM    2  C   UNL     1     -12.667   8.292  72.312  1.00  0.00    -0.298 C  
ENDROOT
BRANCH   2   3
HETATM    3  O   UNL     1     -12.732   7.361  71.225  1.00  0.00    -0.349 OA 
BRANCH   3   4
HETATM    4  C   UNL     1     -11.686   6.506  71.110  1.00  0.00    -0.335 C  
HETATM    5  O   UNL     1     -11.212   5.819  72.007  1.00  0.00    -0.265 OA 
BRANCH   4   6
HETATM    6  C   UNL     1     -11.304   6.365  69.665  1.00  0.00    -0.479 C  
BRANCH   6   7
HETATM    7  C   UNL     1     -10.141   7.281  69.310  1.00  0.00    -0.183 C  
BRANCH   7   8
HETATM    8  S   UNL     1     -10.469   9.054  69.687  1.00  0.00    -0.225 SA 
BRANCH   8   9
HETATM    9  P   UNL     1     -10.178  10.168  67.906  1.00  0.00    -0.208 P  
HETATM   10  S   UNL     1     -10.223   8.515  66.727  1.00  0.00    -0.270 S  
BRANCH   9  11
HETATM   11  O   UNL     1     -11.663  10.897  68.025  1.00  0.00    -0.540 OA 
HETATM   12  C   UNL     1     -11.889  12.246  67.640  1.00  0.00    -0.264 C  
ENDBRANCH   9  11
BRANCH   9  13
HETATM   13  O   UNL     1      -9.940  11.076  66.453  1.00  0.00    -0.208 OA 
HETATM   14  C   UNL     1      -8.794  10.727  65.703  1.00  0.00    -0.190 C  
ENDBRANCH   9  13
ENDBRANCH   8   9
ENDBRANCH   7   8
BRANCH   7  15
HETATM   15  C   UNL     1      -8.931   6.884  70.146  1.00  0.00    -0.149 C  
HETATM   16  O   UNL     1      -8.450   5.759  70.187  1.00  0.00    -0.117 OA 
BRANCH  15  17
HETATM   17  O   UNL     1      -8.530   7.935  70.916  1.00  0.00    -0.121 OA 
BRANCH  17  18
HETATM   18  C   UNL     1      -7.998   7.578  72.197  1.00  0.00    -0.098 C  
HETATM   19  C   UNL     1      -8.975   8.056  73.256  1.00  0.00    -0.338 C  
ENDBRANCH  17  18
ENDBRANCH  15  17
ENDBRANCH   7  15
ENDBRANCH   6   7
ENDBRANCH   4   6
ENDBRANCH   3   4
ENDBRANCH   2   3
TORSDOF 11
ENDMDL
MODEL      242
REMARK 921   NORMALIZED FREE ENERGY PREDICTED BY IDOCK:   -2.97 KCAL/MOL
REMARK 922        TOTAL FREE ENERGY PREDICTED BY IDOCK:   -5.57 KCAL/MOL
REMARK 923 INTER-LIGAND FREE ENERGY PREDICTED BY IDOCK:   -4.67 KCAL/MOL
REMARK 924 INTRA-LIGAND FREE ENERGY PREDICTED BY IDOCK:   -0.91 KCAL/MOL
REMARK 927      BINDING AFFINITY PREDICTED BY RF-SCORE:    0.00 PKD
ROOT
HETATM    1  C   UNL     1      -6.217  11.905  69.129  1.00  0.00    -0.085 C  
HETATM    2  C   UNL     1      -6.503  11.678  67.655  1.00  0.00    -0.075 C  
ENDROOT
BRANCH   2   3
HETATM    3  O   UNL     1      -7.818  11.118  67.552  1.00  0.00    -0.111 OA 
BRANCH   3   4
HETATM    4  C   UNL     1      -8.611  11.634  66.581  1.00  0.00    -0.179 C  
HETATM    5  O   UNL     1      -8.869  11.109  65.504  1.00  0.00    -0.195 OA 
BRANCH   4   6
HETATM    6  C   UNL     1      -9.299  12.867  67.091  1.00  0.00    -0.229 C  
BRANCH   6   7
HETATM    7  C   UNL     1     -10.806  12.667  67.163  1.00  0.00    -0.253 C  
BRANCH   7   8
HETATM    8  S   UNL     1     -11.434  12.481  68.885  1.00  0.00    -0.328 SA 
BRANCH   8   9
HETATM    9  P   UNL     1     -10.927  10.537  69.563  1.00  0.00    -0.292 P  
HETATM   10  S   UNL     1     -12.501  10.446  70.842  1.00  0.00    -0.414 S  
BRANCH   9  11
HETATM   11  O   UNL     1     -11.269   9.848  68.094  1.00  0.00    -0.207 OA 
HETATM   12  C   UNL     1     -10.565   8.720  67.593  1.00  0.00    -0.213 C  
ENDBRANCH   9  11
BRANCH   9  13
HETATM   13  O   UNL     1     -10.512   8.952  70.117  1.00  0.00    -0.200 OA 
HETATM   14  C   UNL     1      -9.714   8.908  71.284  1.00  0.00    -0.289 C  
ENDBRANCH   9  13
ENDBRANCH   8   9
ENDBRANCH   7   8
BRANCH   7  15
HETATM   15  C   UNL     1     -11.493  13.899  66.589  1.00  0.00    -0.355 C  
HETATM   16  O   UNL     1     -12.596  13.900  66.060  1.00  0.00    -0.467 OA 
BRANCH  15  17
HETATM   17  O   UNL     1     -10.657  14.974  66.659  1.00  0.00    -0.289 OA 
BRANCH  17  18
HETATM   18  C   UNL     1     -11.051  15.987  67.592  1.00  0.00    -0.243 C  
HETATM   19  C   UNL     1      -9.795  16.692  68.073  1.00  0.00    -0.245 C  
ENDBRANCH  17  18
ENDBRANCH  15  17
ENDBRANCH   7  15
ENDBRANCH   6   7
ENDBRANCH   4   6
ENDBRANCH   3   4
ENDBRANCH   2   3
TORSDOF 11
ENDMDL
MODEL      243
REMARK 921   NORMALIZED FREE ENERGY PREDICTED BY IDOCK:   -2.96 KCAL/MOL
REMARK 922        TOTAL FREE ENERGY PREDICTED BY IDOCK:   -5.57 KCAL/MOL
REMARK 923 INTER-LIGAND FREE ENERGY PREDICTED BY IDOCK:   -4.64 KCAL/MOL
REMARK 924 INTRA-LIGAND FREE ENERGY PREDICTED BY IDOCK:   -0.92 KCAL/MOL
REMARK 927      BINDING AFFINITY PREDICTED BY RF-SCORE:    0.00 PKD
ROOT
HETATM    1  C   UNL     1     -11.861   6.628  72.011  1.00  0.00    -0.365 C  
HETATM    2  C   UNL     1     -11.490   7.956  72.647  1.00  0.00    -0.395 C  
ENDROOT
BRANCH   2   3
HETATM    3  O   UNL     1     -11.132   8.854  71.590  1.00  0.00    -0.298 OA 
BRANCH   3   4
HETATM    4  C   UNL     1      -9.809   9.126  71.463  1.00  0.00    -0.265 C  
HETATM    5  O   UNL     1      -8.940   8.892  72.295  1.00  0.00    -0.388 OA 
BRANCH   4   6
HETATM    6  C   UNL     1      -9.518   9.583  70.063  1.00  0.00    -0.265 C  
BRANCH   6   7
HETATM    7  C   UNL     1     -10.655   9.219  69.118  1.00  0.00    -0.212 C  
BRANCH   7   8
HETATM    8  S   UNL     1     -11.087  10.571  67.943  1.00  0.00    -0.284 SA 
BRANCH   8   9
HETATM    9  P   UNL     1      -9.605  12.079  68.103  1.00  0.00    -0.191 P  
HETATM   10  S   UNL     1      -8.665  11.498  66.399  1.00  0.00    -0.153 S  
BRANCH   9  11
HETATM   11  O   UNL     1     -10.700  13.295  67.835  1.00  0.00    -0.231 OA 
HETATM   12  C   UNL     1     -11.839  13.132  67.001  1.00  0.00    -0.379 C  
ENDBRANCH   9  11
BRANCH   9  13
HETATM   13  O   UNL     1      -8.396  13.309  68.234  1.00  0.00    -0.152 OA 
HETATM   14  C   UNL     1      -7.145  12.876  68.733  1.00  0.00    -0.096 C  
ENDBRANCH   9  13
ENDBRANCH   8   9
ENDBRANCH   7   8
BRANCH   7  15
HETATM   15  C   UNL     1     -10.223   8.034  68.264  1.00  0.00    -0.205 C  
HETATM   16  O   UNL     1      -9.766   8.118  67.132  1.00  0.00    -0.168 OA 
BRANCH  15  17
HETATM   17  O   UNL     1     -10.516   6.866  68.905  1.00  0.00    -0.190 OA 
BRANCH  17  18
HETATM   18  C   UNL     1      -9.383   6.049  69.223  1.00  0.00    -0.133 C  
HETATM   19  C   UNL     1      -9.879   4.633  69.447  1.00  0.00    -0.272 C  
ENDBRANCH  17  18
ENDBRANCH  15  17
ENDBRANCH   7  15
ENDBRANCH   6   7
ENDBRANCH   4   6
ENDBRANCH   3   4
ENDBRANCH   2   3
TORSDOF 11
ENDMDL
MODEL      244
REMARK 921   NORMALIZED FREE ENERGY PREDICTED BY IDOCK:   -2.96 KCAL/MOL
REMARK 922        TOTAL FREE ENERGY PREDICTED BY IDOCK:   -5.56 KCAL/MOL
REMARK 923 INTER-LIGAND FREE ENERGY PREDICTED BY IDOCK:   -5.20 KCAL/MOL
REMARK 924 INTRA-LIGAND FREE ENERGY PREDICTED BY IDOCK:   -0.37 KCAL/MOL
REMARK 927      BINDING AFFINITY PREDICTED BY RF-SCORE:    0.00 PKD
ROOT
HETATM    1  C   UNL     1     -10.128   5.070  70.615  1.00  0.00    -0.313 C  
HETATM    2  C   UNL     1     -10.934   6.357  70.642  1.00  0.00    -0.298 C  
ENDROOT
BRANCH   2   3
HETATM    3  O   UNL     1     -10.473   7.176  69.561  1.00  0.00    -0.212 OA 
BRANCH   3   4
HETATM    4  C   UNL     1      -9.515   8.085  69.869  1.00  0.00    -0.160 C  
HETATM    5  O   UNL     1      -8.378   8.118  69.416  1.00  0.00    -0.120 OA 
BRANCH   4   6
HETATM    6  C   UNL     1     -10.108   9.181  70.707  1.00  0.00    -0.333 C  
BRANCH   6   7
HETATM    7  C   UNL     1     -10.536  10.362  69.847  1.00  0.00    -0.218 C  
BRANCH   7   8
HETATM    8  S   UNL     1     -10.871   9.904  68.094  1.00  0.00    -0.204 SA 
BRANCH   8   9
HETATM    9  P   UNL     1     -10.376  11.566  66.875  1.00  0.00    -0.242 P  
HETATM   10  S   UNL     1      -9.096  12.340  68.248  1.00  0.00    -0.157 S  
BRANCH   9  11
HETATM   11  O   UNL     1      -9.601  10.617  65.757  1.00  0.00    -0.189 OA 
HETATM   12  C   UNL     1      -8.221  10.290  65.852  1.00  0.00    -0.148 C  
ENDBRANCH   9  11
BRANCH   9  13
HETATM   13  O   UNL     1      -9.972  12.923  65.880  1.00  0.00    -0.273 OA 
HETATM   14  C   UNL     1     -10.781  13.093  64.733  1.00  0.00    -0.364 C  
ENDBRANCH   9  13
ENDBRANCH   8   9
ENDBRANCH   7   8
BRANCH   7  15
HETATM   15  C   UNL     1     -11.840  10.924  70.398  1.00  0.00    -0.357 C  
HETATM   16  O   UNL     1     -12.066  12.112  70.581  1.00  0.00    -0.365 OA 
BRANCH  15  17
HETATM   17  O   UNL     1     -12.673   9.904  70.753  1.00  0.00    -0.292 OA 
BRANCH  17  18
HETATM   18  C   UNL     1     -13.237  10.014  72.066  1.00  0.00    -0.443 C  
HETATM   19  C   UNL     1     -14.074   8.773  72.317  1.00  0.00    -0.511 C  
ENDBRANCH  17  18
ENDBRANCH  15  17
ENDBRANCH   7  15
ENDBRANCH   6   7
ENDBRANCH   4   6
ENDBRANCH   3   4
ENDBRANCH   2   3
TORSDOF 11
ENDMDL
MODEL      245
REMARK 921   NORMALIZED FREE ENERGY PREDICTED BY IDOCK:   -2.95 KCAL/MOL
REMARK 922        TOTAL FREE ENERGY PREDICTED BY IDOCK:   -5.54 KCAL/MOL
REMARK 923 INTER-LIGAND FREE ENERGY PREDICTED BY IDOCK:   -4.81 KCAL/MOL
REMARK 924 INTRA-LIGAND FREE ENERGY PREDICTED BY IDOCK:   -0.73 KCAL/MOL
REMARK 927      BINDING AFFINITY PREDICTED BY RF-SCORE:    0.00 PKD
ROOT
HETATM    1  C   UNL     1     -10.799   7.035  73.143  1.00  0.00    -0.350 C  
HETATM    2  C   UNL     1     -11.812   7.884  72.394  1.00  0.00    -0.348 C  
ENDROOT
BRANCH   2   3
HETATM    3  O   UNL     1     -11.254   9.196  72.253  1.00  0.00    -0.249 OA 
BRANCH   3   4
HETATM    4  C   UNL     1     -11.220   9.696  70.993  1.00  0.00    -0.375 C  
HETATM    5  O   UNL     1     -12.069  10.411  70.476  1.00  0.00    -0.284 OA 
BRANCH   4   6
HETATM    6  C   UNL     1      -9.883   9.410  70.372  1.00  0.00    -0.313 C  
BRANCH   6   7
HETATM    7  C   UNL     1     -10.037   8.725  69.022  1.00  0.00    -0.198 C  
BRANCH   7   8
HETATM    8  S   UNL     1      -8.607   9.004  67.895  1.00  0.00    -0.125 SA 
BRANCH   8   9
HETATM    9  P   UNL     1      -9.339   9.886  66.111  1.00  0.00    -0.213 P  
HETATM   10  S   UNL     1     -10.905  10.770  67.054  1.00  0.00    -0.220 S  
BRANCH   9  11
HETATM   11  O   UNL     1      -8.031  10.897  65.980  1.00  0.00    -0.159 OA 
HETATM   12  C   UNL     1      -7.728  11.889  66.951  1.00  0.00    -0.106 C  
ENDBRANCH   9  11
BRANCH   9  13
HETATM   13  O   UNL     1      -9.937  10.606  64.656  1.00  0.00    -0.287 OA 
HETATM   14  C   UNL     1      -9.345  10.135  63.461  1.00  0.00    -0.290 C  
ENDBRANCH   9  13
ENDBRANCH   8   9
ENDBRANCH   7   8
BRANCH   7  15
HETATM   15  C   UNL     1     -10.120   7.220  69.242  1.00  0.00    -0.183 C  
HETATM   16  O   UNL     1      -9.300   6.560  69.866  1.00  0.00    -0.151 OA 
BRANCH  15  17
HETATM   17  O   UNL     1     -11.181   6.706  68.557  1.00  0.00    -0.235 OA 
BRANCH  17  18
HETATM   18  C   UNL     1     -11.004   6.629  67.137  1.00  0.00    -0.408 C  
HETATM   19  C   UNL     1     -10.384   5.281  66.818  1.00  0.00    -0.320 C  
ENDBRANCH  17  18
ENDBRANCH  15  17
ENDBRANCH   7  15
ENDBRANCH   6   7
ENDBRANCH   4   6
ENDBRANCH   3   4
ENDBRANCH   2   3
TORSDOF 11
ENDMDL
MODEL      246
REMARK 921   NORMALIZED FREE ENERGY PREDICTED BY IDOCK:   -2.95 KCAL/MOL
REMARK 922        TOTAL FREE ENERGY PREDICTED BY IDOCK:   -5.54 KCAL/MOL
REMARK 923 INTER-LIGAND FREE ENERGY PREDICTED BY IDOCK:   -4.91 KCAL/MOL
REMARK 924 INTRA-LIGAND FREE ENERGY PREDICTED BY IDOCK:   -0.64 KCAL/MOL
REMARK 927      BINDING AFFINITY PREDICTED BY RF-SCORE:    0.00 PKD
ROOT
HETATM    1  C   UNL     1     -11.496   9.219  71.268  1.00  0.00    -0.418 C  
HETATM    2  C   UNL     1     -11.126   9.744  69.892  1.00  0.00    -0.254 C  
ENDROOT
BRANCH   2   3
HETATM    3  O   UNL     1      -9.793  10.264  69.974  1.00  0.00    -0.191 OA 
BRANCH   3   4
HETATM    4  C   UNL     1      -8.987  10.003  68.915  1.00  0.00    -0.152 C  
HETATM    5  O   UNL     1      -9.128   9.093  68.107  1.00  0.00    -0.132 OA 
BRANCH   4   6
HETATM    6  C   UNL     1      -7.991  11.115  68.751  1.00  0.00    -0.144 C  
BRANCH   6   7
HETATM    7  C   UNL     1      -8.223  11.874  67.452  1.00  0.00    -0.164 C  
BRANCH   7   8
HETATM    8  S   UNL     1      -9.934  12.535  67.289  1.00  0.00    -0.213 SA 
BRANCH   8   9
HETATM    9  P   UNL     1     -10.447  12.532  65.232  1.00  0.00    -0.299 P  
HETATM   10  S   UNL     1     -10.054  10.550  65.019  1.00  0.00    -0.296 S  
BRANCH   9  11
HETATM   11  O   UNL     1     -12.049  12.825  65.549  1.00  0.00    -0.423 OA 
HETATM   12  C   UNL     1     -12.488  13.949  66.300  1.00  0.00    -0.409 C  
ENDBRANCH   9  11
BRANCH   9  13
HETATM   13  O   UNL     1     -10.865  12.528  63.553  1.00  0.00    -0.440 OA 
HETATM   14  C   UNL     1     -12.174  12.082  63.257  1.00  0.00    -0.421 C  
ENDBRANCH   9  13
ENDBRANCH   8   9
ENDBRANCH   7   8
BRANCH   7  15
HETATM   15  C   UNL     1      -7.293  13.080  67.416  1.00  0.00    -0.116 C  
HETATM   16  O   UNL     1      -6.100  13.034  67.149  1.00  0.00    -0.307 OA 
BRANCH  15  17
HETATM   17  O   UNL     1      -7.962  14.196  67.825  1.00  0.00    -0.140 OA 
BRANCH  17  18
HETATM   18  C   UNL     1      -7.485  15.425  67.264  1.00  0.00    -0.207 C  
HETATM   19  C   UNL     1      -8.457  16.523  67.656  1.00  0.00    -0.182 C  
ENDBRANCH  17  18
ENDBRANCH  15  17
ENDBRANCH   7  15
ENDBRANCH   6   7
ENDBRANCH   4   6
ENDBRANCH   3   4
ENDBRANCH   2   3
TORSDOF 11
ENDMDL
MODEL      247
REMARK 921   NORMALIZED FREE ENERGY PREDICTED BY IDOCK:   -2.95 KCAL/MOL
REMARK 922        TOTAL FREE ENERGY PREDICTED BY IDOCK:   -5.54 KCAL/MOL
REMARK 923 INTER-LIGAND FREE ENERGY PREDICTED BY IDOCK:   -4.93 KCAL/MOL
REMARK 924 INTRA-LIGAND FREE ENERGY PREDICTED BY IDOCK:   -0.61 KCAL/MOL
REMARK 927      BINDING AFFINITY PREDICTED BY RF-SCORE:    0.00 PKD
ROOT
HETATM    1  C   UNL     1     -13.894   8.729  71.611  1.00  0.00    -0.443 C  
HETATM    2  C   UNL     1     -12.449   8.582  71.166  1.00  0.00    -0.174 C  
ENDROOT
BRANCH   2   3
HETATM    3  O   UNL     1     -11.894   9.898  71.064  1.00  0.00    -0.317 OA 
BRANCH   3   4
HETATM    4  C   UNL     1     -10.567   9.965  70.790  1.00  0.00    -0.239 C  
HETATM    5  O   UNL     1      -9.695   9.249  71.265  1.00  0.00    -0.282 OA 
BRANCH   4   6
HETATM    6  C   UNL     1     -10.332  10.922  69.657  1.00  0.00    -0.080 C  
BRANCH   6   7
HETATM    7  C   UNL     1     -11.150  10.538  68.432  1.00  0.00    -0.281 C  
BRANCH   7   8
HETATM    8  S   UNL     1     -11.783  11.991  67.493  1.00  0.00    -0.213 SA 
BRANCH   8   9
HETATM    9  P   UNL     1     -10.730  13.708  68.152  1.00  0.00    -0.262 P  
HETATM   10  S   UNL     1     -10.419  14.386  66.263  1.00  0.00    -0.299 S  
BRANCH   9  11
HETATM   11  O   UNL     1     -12.084  14.371  68.844  1.00  0.00    -0.311 OA 
HETATM   12  C   UNL     1     -12.563  13.977  70.122  1.00  0.00    -0.251 C  
ENDBRANCH   9  11
BRANCH   9  13
HETATM   13  O   UNL     1      -9.870  15.110  68.690  1.00  0.00    -0.204 OA 
HETATM   14  C   UNL     1      -9.303  15.902  67.664  1.00  0.00    -0.217 C  
ENDBRANCH   9  13
ENDBRANCH   8   9
ENDBRANCH   7   8
BRANCH   7  15
HETATM   15  C   UNL     1     -10.258   9.763  67.470  1.00  0.00    -0.220 C  
HETATM   16  O   UNL     1      -9.793  10.214  66.433  1.00  0.00    -0.200 OA 
BRANCH  15  17
HETATM   17  O   UNL     1     -10.142   8.468  67.882  1.00  0.00    -0.186 OA 
BRANCH  17  18
HETATM   18  C   UNL     1     -10.659   7.494  66.968  1.00  0.00    -0.339 C  
HETATM   19  C   UNL     1     -10.887   6.207  67.738  1.00  0.00    -0.413 C  
ENDBRANCH  17  18
ENDBRANCH  15  17
ENDBRANCH   7  15
ENDBRANCH   6   7
ENDBRANCH   4   6
ENDBRANCH   3   4
ENDBRANCH   2   3
TORSDOF 11
ENDMDL
MODEL      248
REMARK 921   NORMALIZED FREE ENERGY PREDICTED BY IDOCK:   -2.95 KCAL/MOL
REMARK 922        TOTAL FREE ENERGY PREDICTED BY IDOCK:   -5.54 KCAL/MOL
REMARK 923 INTER-LIGAND FREE ENERGY PREDICTED BY IDOCK:   -4.56 KCAL/MOL
REMARK 924 INTRA-LIGAND FREE ENERGY PREDICTED BY IDOCK:   -0.97 KCAL/MOL
REMARK 927      BINDING AFFINITY PREDICTED BY RF-SCORE:    0.00 PKD
ROOT
HETATM    1  C   UNL     1     -13.164  11.667  71.926  1.00  0.00    -0.475 C  
HETATM    2  C   UNL     1     -13.096  10.157  71.784  1.00  0.00    -0.463 C  
ENDROOT
BRANCH   2   3
HETATM    3  O   UNL     1     -11.929   9.848  71.013  1.00  0.00    -0.311 OA 
BRANCH   3   4
HETATM    4  C   UNL     1     -10.966   9.137  71.650  1.00  0.00    -0.374 C  
HETATM    5  O   UNL     1     -11.140   8.348  72.570  1.00  0.00    -0.361 OA 
BRANCH   4   6
HETATM    6  C   UNL     1      -9.658   9.301  70.932  1.00  0.00    -0.339 C  
BRANCH   6   7
HETATM    7  C   UNL     1      -8.727   8.128  71.207  1.00  0.00    -0.145 C  
BRANCH   7   8
HETATM    8  S   UNL     1      -8.610   6.945  69.799  1.00  0.00    -0.141 SA 
BRANCH   8   9
HETATM    9  P   UNL     1      -9.636   7.787  68.146  1.00  0.00    -0.158 P  
HETATM   10  S   UNL     1      -8.200   7.231  66.823  1.00  0.00    -0.124 S  
BRANCH   9  11
HETATM   11  O   UNL     1     -10.866   6.679  68.243  1.00  0.00    -0.238 OA 
HETATM   12  C   UNL     1     -11.517   6.360  69.466  1.00  0.00    -0.343 C  
ENDBRANCH   9  11
BRANCH   9  13
HETATM   13  O   UNL     1     -10.473   8.475  66.797  1.00  0.00    -0.303 OA 
HETATM   14  C   UNL     1     -10.222   9.847  66.566  1.00  0.00    -0.222 C  
ENDBRANCH   9  13
ENDBRANCH   8   9
ENDBRANCH   7   8
BRANCH   7  15
HETATM   15  C   UNL     1      -7.319   8.662  71.434  1.00  0.00    -0.102 C  
HETATM   16  O   UNL     1      -6.477   8.131  72.146  1.00  0.00    -0.052 OA 
BRANCH  15  17
HETATM   17  O   UNL     1      -7.171   9.867  70.812  1.00  0.00    -0.305 OA 
BRANCH  17  18
HETATM   18  C   UNL     1      -6.011   9.979  69.979  1.00  0.00    -0.053 C  
HETATM   19  C   UNL     1      -6.480  10.270  68.565  1.00  0.00    -0.052 C  
ENDBRANCH  17  18
ENDBRANCH  15  17
ENDBRANCH   7  15
ENDBRANCH   6   7
ENDBRANCH   4   6
ENDBRANCH   3   4
ENDBRANCH   2   3
TORSDOF 11
ENDMDL
MODEL      249
REMARK 921   NORMALIZED FREE ENERGY PREDICTED BY IDOCK:   -2.95 KCAL/MOL
REMARK 922        TOTAL FREE ENERGY PREDICTED BY IDOCK:   -5.54 KCAL/MOL
REMARK 923 INTER-LIGAND FREE ENERGY PREDICTED BY IDOCK:   -4.87 KCAL/MOL
REMARK 924 INTRA-LIGAND FREE ENERGY PREDICTED BY IDOCK:   -0.67 KCAL/MOL
REMARK 927      BINDING AFFINITY PREDICTED BY RF-SCORE:    0.00 PKD
ROOT
HETATM    1  C   UNL     1     -11.498   8.829  70.987  1.00  0.00    -0.337 C  
HETATM    2  C   UNL     1     -12.076  10.222  71.159  1.00  0.00    -0.395 C  
ENDROOT
BRANCH   2   3
HETATM    3  O   UNL     1     -12.599  10.632  69.890  1.00  0.00    -0.277 OA 
BRANCH   3   4
HETATM    4  C   UNL     1     -12.154  11.823  69.418  1.00  0.00    -0.238 C  
HETATM    5  O   UNL     1     -11.925  12.824  70.086  1.00  0.00    -0.342 OA 
BRANCH   4   6
HETATM    6  C   UNL     1     -11.785  11.688  67.969  1.00  0.00    -0.351 C  
BRANCH   6   7
HETATM    7  C   UNL     1     -10.280  11.538  67.795  1.00  0.00    -0.182 C  
BRANCH   7   8
HETATM    8  S   UNL     1      -9.809  10.702  66.223  1.00  0.00    -0.223 SA 
BRANCH   8   9
HETATM    9  P   UNL     1      -9.145   8.744  66.693  1.00  0.00    -0.183 P  
HETATM   10  S   UNL     1      -8.223   9.343  68.401  1.00  0.00    -0.118 S  
BRANCH   9  11
HETATM   11  O   UNL     1     -10.688   8.201  66.968  1.00  0.00    -0.321 OA 
HETATM   12  C   UNL     1     -11.016   6.820  67.023  1.00  0.00    -0.368 C  
ENDBRANCH   9  11
BRANCH   9  13
HETATM   13  O   UNL     1      -8.603   7.147  67.078  1.00  0.00    -0.119 OA 
HETATM   14  C   UNL     1      -7.403   6.748  66.446  1.00  0.00    -0.073 C  
ENDBRANCH   9  13
ENDBRANCH   8   9
ENDBRANCH   7   8
BRANCH   7  15
HETATM   15  C   UNL     1      -9.652  12.925  67.746  1.00  0.00    -0.212 C  
HETATM   16  O   UNL     1      -8.543  13.204  68.182  1.00  0.00    -0.169 OA 
BRANCH  15  17
HETATM   17  O   UNL     1     -10.545  13.824  67.243  1.00  0.00    -0.271 OA 
BRANCH  17  18
HETATM   18  C   UNL     1      -9.959  14.972  66.616  1.00  0.00    -0.256 C  
HETATM   19  C   UNL     1     -10.640  15.168  65.274  1.00  0.00    -0.432 C  
ENDBRANCH  17  18
ENDBRANCH  15  17
ENDBRANCH   7  15
ENDBRANCH   6   7
ENDBRANCH   4   6
ENDBRANCH   3   4
ENDBRANCH   2   3
TORSDOF 11
ENDMDL
MODEL      250
REMARK 921   NORMALIZED FREE ENERGY PREDICTED BY IDOCK:   -2.94 KCAL/MOL
REMARK 922        TOTAL FREE ENERGY PREDICTED BY IDOCK:   -5.53 KCAL/MOL
REMARK 923 INTER-LIGAND FREE ENERGY PREDICTED BY IDOCK:   -4.80 KCAL/MOL
REMARK 924 INTRA-LIGAND FREE ENERGY PREDICTED BY IDOCK:   -0.72 KCAL/MOL
REMARK 927      BINDING AFFINITY PREDICTED BY RF-SCORE:    0.00 PKD
ROOT
HETATM    1  C   UNL     1     -10.290  19.304  67.587  1.00  0.00    -0.532 C  
HETATM    2  C   UNL     1     -10.633  18.916  66.159  1.00  0.00    -0.407 C  
ENDROOT
BRANCH   2   3
HETATM    3  O   UNL     1      -9.607  18.031  65.695  1.00  0.00    -0.437 OA 
BRANCH   3   4
HETATM    4  C   UNL     1      -9.885  16.705  65.770  1.00  0.00    -0.211 C  
HETATM    5  O   UNL     1     -10.911  16.160  65.382  1.00  0.00    -0.356 OA 
BRANCH   4   6
HETATM    6  C   UNL     1      -8.664  15.957  66.219  1.00  0.00    -0.372 C  
BRANCH   6   7
HETATM    7  C   UNL     1      -8.983  15.031  67.385  1.00  0.00    -0.186 C  
BRANCH   7   8
HETATM    8  S   UNL     1      -7.494  14.209  68.092  1.00  0.00    -0.148 SA 
BRANCH   8   9
HETATM    9  P   UNL     1      -7.365  12.260  67.267  1.00  0.00    -0.067 P  
HETATM   10  S   UNL     1      -6.732  11.438  69.013  1.00  0.00    -0.101 S  
BRANCH   9  11
HETATM   11  O   UNL     1      -9.008  12.145  67.077  1.00  0.00    -0.187 OA 
HETATM   12  C   UNL     1      -9.613  11.758  65.851  1.00  0.00    -0.230 C  
ENDBRANCH   9  11
BRANCH   9  13
HETATM   13  O   UNL     1      -7.259  10.670  66.595  1.00  0.00    -0.113 OA 
HETATM   14  C   UNL     1      -6.703   9.689  67.448  1.00  0.00    -0.071 C  
ENDBRANCH   9  13
ENDBRANCH   8   9
ENDBRANCH   7   8
BRANCH   7  15
HETATM   15  C   UNL     1      -9.593  15.853  68.512  1.00  0.00    -0.205 C  
HETATM   16  O   UNL     1      -8.982  16.667  69.191  1.00  0.00    -0.239 OA 
BRANCH  15  17
HETATM   17  O   UNL     1     -10.886  15.474  68.719  1.00  0.00    -0.235 OA 
BRANCH  17  18
HETATM   18  C   UNL     1     -11.522  16.085  69.848  1.00  0.00    -0.326 C  
HETATM   19  C   UNL     1     -12.050  14.976  70.740  1.00  0.00    -0.377 C  
ENDBRANCH  17  18
ENDBRANCH  15  17
ENDBRANCH   7  15
ENDBRANCH   6   7
ENDBRANCH   4   6
ENDBRANCH   3   4
ENDBRANCH   2   3
TORSDOF 11
ENDMDL
MODEL      251
REMARK 921   NORMALIZED FREE ENERGY PREDICTED BY IDOCK:   -2.93 KCAL/MOL
REMARK 922        TOTAL FREE ENERGY PREDICTED BY IDOCK:   -5.51 KCAL/MOL
REMARK 923 INTER-LIGAND FREE ENERGY PREDICTED BY IDOCK:   -4.83 KCAL/MOL
REMARK 924 INTRA-LIGAND FREE ENERGY PREDICTED BY IDOCK:   -0.68 KCAL/MOL
REMARK 927      BINDING AFFINITY PREDICTED BY RF-SCORE:    0.00 PKD
ROOT
HETATM    1  C   UNL     1      -5.948  14.679  67.977  1.00  0.00    -0.158 C  
HETATM    2  C   UNL     1      -7.293  14.054  68.302  1.00  0.00    -0.115 C  
ENDROOT
BRANCH   2   3
HETATM    3  O   UNL     1      -7.594  13.114  67.264  1.00  0.00    -0.152 OA 
BRANCH   3   4
HETATM    4  C   UNL     1      -7.319  11.815  67.540  1.00  0.00    -0.127 C  
HETATM    5  O   UNL     1      -6.451  11.132  67.011  1.00  0.00    -0.086 OA 
BRANCH   4   6
HETATM    6  C   UNL     1      -8.107  11.375  68.741  1.00  0.00    -0.112 C  
BRANCH   6   7
HETATM    7  C   UNL     1      -9.552  11.074  68.372  1.00  0.00    -0.181 C  
BRANCH   7   8
HETATM    8  S   UNL     1      -9.774  10.630  66.597  1.00  0.00    -0.190 SA 
BRANCH   8   9
HETATM    9  P   UNL     1     -11.388  11.773  65.832  1.00  0.00    -0.088 P  
HETATM   10  S   UNL     1     -11.423  13.014  67.439  1.00  0.00    -0.352 S  
BRANCH   9  11
HETATM   11  O   UNL     1     -10.473  12.379  64.588  1.00  0.00    -0.285 OA 
HETATM   12  C   UNL     1     -10.669  11.996  63.234  1.00  0.00    -0.342 C  
ENDBRANCH   9  11
BRANCH   9  13
HETATM   13  O   UNL     1     -12.705  12.705  65.208  1.00  0.00    -0.652 OA 
HETATM   14  C   UNL     1     -12.733  14.059  65.615  1.00  0.00    -0.481 C  
ENDBRANCH   9  13
ENDBRANCH   8   9
ENDBRANCH   7   8
BRANCH   7  15
HETATM   15  C   UNL     1     -10.022   9.868  69.175  1.00  0.00    -0.198 C  
HETATM   16  O   UNL     1     -10.053   8.719  68.756  1.00  0.00    -0.187 OA 
BRANCH  15  17
HETATM   17  O   UNL     1     -10.500  10.273  70.387  1.00  0.00    -0.247 OA 
BRANCH  17  18
HETATM   18  C   UNL     1     -11.850  10.751  70.376  1.00  0.00    -0.358 C  
HETATM   19  C   UNL     1     -12.617  10.004  71.451  1.00  0.00    -0.518 C  
ENDBRANCH  17  18
ENDBRANCH  15  17
ENDBRANCH   7  15
ENDBRANCH   6   7
ENDBRANCH   4   6
ENDBRANCH   3   4
ENDBRANCH   2   3
TORSDOF 11
ENDMDL
MODEL      252
REMARK 921   NORMALIZED FREE ENERGY PREDICTED BY IDOCK:   -2.93 KCAL/MOL
REMARK 922        TOTAL FREE ENERGY PREDICTED BY IDOCK:   -5.51 KCAL/MOL
REMARK 923 INTER-LIGAND FREE ENERGY PREDICTED BY IDOCK:   -4.69 KCAL/MOL
REMARK 924 INTRA-LIGAND FREE ENERGY PREDICTED BY IDOCK:   -0.82 KCAL/MOL
REMARK 927      BINDING AFFINITY PREDICTED BY RF-SCORE:    0.00 PKD
ROOT
HETATM    1  C   UNL     1      -8.409   6.248  65.929  1.00  0.00    -0.142 C  
HETATM    2  C   UNL     1      -7.846   7.460  65.206  1.00  0.00    -0.121 C  
ENDROOT
BRANCH   2   3
HETATM    3  O   UNL     1      -7.947   8.578  66.096  1.00  0.00    -0.098 OA 
BRANCH   3   4
HETATM    4  C   UNL     1      -8.568   9.678  65.601  1.00  0.00    -0.136 C  
HETATM    5  O   UNL     1      -8.145  10.407  64.712  1.00  0.00    -0.160 OA 
BRANCH   4   6
HETATM    6  C   UNL     1      -9.956   9.772  66.164  1.00  0.00    -0.338 C  
BRANCH   6   7
HETATM    7  C   UNL     1     -10.090  10.961  67.106  1.00  0.00    -0.198 C  
BRANCH   7   8
HETATM    8  S   UNL     1     -11.783  11.686  67.128  1.00  0.00    -0.003 SA 
BRANCH   8   9
HETATM    9  P   UNL     1     -11.773  13.417  65.904  1.00  0.00    -0.399 P  
HETATM   10  S   UNL     1     -10.720  14.508  67.255  1.00  0.00    -0.292 S  
BRANCH   9  11
HETATM   11  O   UNL     1     -10.794  12.706  64.769  1.00  0.00    -0.280 OA 
HETATM   12  C   UNL     1     -11.294  12.177  63.549  1.00  0.00    -0.453 C  
ENDBRANCH   9  11
BRANCH   9  13
HETATM   13  O   UNL     1     -11.765  14.830  64.905  1.00  0.00    -0.375 OA 
HETATM   14  C   UNL     1     -10.621  15.652  65.031  1.00  0.00    -0.396 C  
ENDBRANCH   9  13
ENDBRANCH   8   9
ENDBRANCH   7   8
BRANCH   7  15
HETATM   15  C   UNL     1      -9.805  10.495  68.528  1.00  0.00    -0.168 C  
HETATM   16  O   UNL     1      -8.750  10.670  69.122  1.00  0.00    -0.163 OA 
BRANCH  15  17
HETATM   17  O   UNL     1     -10.858   9.768  68.999  1.00  0.00    -0.219 OA 
BRANCH  17  18
HETATM   18  C   UNL     1     -10.846   9.533  70.412  1.00  0.00    -0.282 C  
HETATM   19  C   UNL     1     -12.157  10.044  70.981  1.00  0.00    -0.469 C  
ENDBRANCH  17  18
ENDBRANCH  15  17
ENDBRANCH   7  15
ENDBRANCH   6   7
ENDBRANCH   4   6
ENDBRANCH   3   4
ENDBRANCH   2   3
TORSDOF 11
ENDMDL
MODEL      253
REMARK 921   NORMALIZED FREE ENERGY PREDICTED BY IDOCK:   -2.93 KCAL/MOL
REMARK 922        TOTAL FREE ENERGY PREDICTED BY IDOCK:   -5.51 KCAL/MOL
REMARK 923 INTER-LIGAND FREE ENERGY PREDICTED BY IDOCK:   -4.50 KCAL/MOL
REMARK 924 INTRA-LIGAND FREE ENERGY PREDICTED BY IDOCK:   -1.01 KCAL/MOL
REMARK 927      BINDING AFFINITY PREDICTED BY RF-SCORE:    0.00 PKD
ROOT
HETATM    1  C   UNL     1     -12.855  10.661  71.261  1.00  0.00    -0.535 C  
HETATM    2  C   UNL     1     -11.790  11.326  70.407  1.00  0.00    -0.350 C  
ENDROOT
BRANCH   2   3
HETATM    3  O   UNL     1     -12.035  10.954  69.045  1.00  0.00    -0.342 OA 
BRANCH   3   4
HETATM    4  C   UNL     1     -10.983  11.073  68.197  1.00  0.00    -0.247 C  
HETATM    5  O   UNL     1     -10.283  12.067  68.050  1.00  0.00    -0.187 OA 
BRANCH   4   6
HETATM    6  C   UNL     1     -10.666   9.735  67.595  1.00  0.00    -0.334 C  
BRANCH   6   7
HETATM    7  C   UNL     1      -9.171   9.582  67.348  1.00  0.00    -0.133 C  
BRANCH   7   8
HETATM    8  S   UNL     1      -8.387   8.291  68.402  1.00  0.00    -0.133 SA 
BRANCH   8   9
HETATM    9  P   UNL     1      -9.931   7.152  69.303  1.00  0.00    -0.176 P  
HETATM   10  S   UNL     1      -8.892   5.413  69.157  1.00  0.00    -0.101 S  
BRANCH   9  11
HETATM   11  O   UNL     1      -9.724   7.887  70.775  1.00  0.00    -0.172 OA 
HETATM   12  C   UNL     1      -8.899   9.031  70.952  1.00  0.00    -0.240 C  
ENDBRANCH   9  11
BRANCH   9  13
HETATM   13  O   UNL     1     -11.191   6.221  70.039  1.00  0.00    -0.350 OA 
HETATM   14  C   UNL     1     -12.134   6.965  70.785  1.00  0.00    -0.349 C  
ENDBRANCH   9  13
ENDBRANCH   8   9
ENDBRANCH   7   8
BRANCH   7  15
HETATM   15  C   UNL     1      -8.954   9.146  65.905  1.00  0.00    -0.189 C  
HETATM   16  O   UNL     1      -7.911   8.682  65.465  1.00  0.00    -0.092 OA 
BRANCH  15  17
HETATM   17  O   UNL     1     -10.055   9.444  65.157  1.00  0.00     0.011 OA 
BRANCH  17  18
HETATM   18  C   UNL     1      -9.808  10.292  64.029  1.00  0.00    -0.218 C  
HETATM   19  C   UNL     1     -10.331  11.677  64.363  1.00  0.00    -0.362 C  
ENDBRANCH  17  18
ENDBRANCH  15  17
ENDBRANCH   7  15
ENDBRANCH   6   7
ENDBRANCH   4   6
ENDBRANCH   3   4
ENDBRANCH   2   3
TORSDOF 11
ENDMDL
MODEL      254
REMARK 921   NORMALIZED FREE ENERGY PREDICTED BY IDOCK:   -2.93 KCAL/MOL
REMARK 922        TOTAL FREE ENERGY PREDICTED BY IDOCK:   -5.50 KCAL/MOL
REMARK 923 INTER-LIGAND FREE ENERGY PREDICTED BY IDOCK:   -4.73 KCAL/MOL
REMARK 924 INTRA-LIGAND FREE ENERGY PREDICTED BY IDOCK:   -0.77 KCAL/MOL
REMARK 927      BINDING AFFINITY PREDICTED BY RF-SCORE:    0.00 PKD
ROOT
HETATM    1  C   UNL     1     -11.391  15.533  64.596  1.00  0.00    -0.363 C  
HETATM    2  C   UNL     1     -11.558  14.779  65.903  1.00  0.00    -0.286 C  
ENDROOT
BRANCH   2   3
HETATM    3  O   UNL     1     -10.679  15.379  66.863  1.00  0.00    -0.306 OA 
BRANCH   3   4
HETATM    4  C   UNL     1      -9.843  14.533  67.515  1.00  0.00    -0.222 C  
HETATM    5  O   UNL     1      -9.081  14.832  68.426  1.00  0.00    -0.176 OA 
BRANCH   4   6
HETATM    6  C   UNL     1     -10.125  13.120  67.095  1.00  0.00    -0.242 C  
BRANCH   6   7
HETATM    7  C   UNL     1      -8.856  12.278  67.106  1.00  0.00    -0.194 C  
BRANCH   7   8
HETATM    8  S   UNL     1      -8.604  11.361  68.684  1.00  0.00    -0.083 SA 
BRANCH   8   9
HETATM    9  P   UNL     1      -9.726   9.566  68.587  1.00  0.00    -0.164 P  
HETATM   10  S   UNL     1      -9.118   8.950  70.425  1.00  0.00    -0.209 S  
BRANCH   9  11
HETATM   11  O   UNL     1     -11.173  10.373  68.641  1.00  0.00    -0.256 OA 
HETATM   12  C   UNL     1     -11.789  10.765  69.861  1.00  0.00    -0.335 C  
ENDBRANCH   9  11
BRANCH   9  13
HETATM   13  O   UNL     1     -10.641   8.099  68.509  1.00  0.00    -0.186 OA 
HETATM   14  C   UNL     1     -10.538   7.387  67.291  1.00  0.00    -0.323 C  
ENDBRANCH   9  13
ENDBRANCH   8   9
ENDBRANCH   7   8
BRANCH   7  15
HETATM   15  C   UNL     1      -8.957  11.225  66.011  1.00  0.00    -0.200 C  
HETATM   16  O   UNL     1      -8.014  10.577  65.577  1.00  0.00    -0.155 OA 
BRANCH  15  17
HETATM   17  O   UNL     1     -10.228  11.185  65.517  1.00  0.00    -0.243 OA 
BRANCH  17  18
HETATM   18  C   UNL     1     -10.328  10.823  64.135  1.00  0.00    -0.311 C  
HETATM   19  C   UNL     1     -10.734  12.061  63.357  1.00  0.00    -0.475 C  
ENDBRANCH  17  18
ENDBRANCH  15  17
ENDBRANCH   7  15
ENDBRANCH   6   7
ENDBRANCH   4   6
ENDBRANCH   3   4
ENDBRANCH   2   3
TORSDOF 11
ENDMDL
MODEL      255
REMARK 921   NORMALIZED FREE ENERGY PREDICTED BY IDOCK:   -2.92 KCAL/MOL
REMARK 922        TOTAL FREE ENERGY PREDICTED BY IDOCK:   -5.50 KCAL/MOL
REMARK 923 INTER-LIGAND FREE ENERGY PREDICTED BY IDOCK:   -4.75 KCAL/MOL
REMARK 924 INTRA-LIGAND FREE ENERGY PREDICTED BY IDOCK:   -0.75 KCAL/MOL
REMARK 927      BINDING AFFINITY PREDICTED BY RF-SCORE:    0.00 PKD
ROOT
HETATM    1  C   UNL     1     -11.302  11.637  63.738  1.00  0.00    -0.482 C  
HETATM    2  C   UNL     1     -11.106  11.901  65.221  1.00  0.00    -0.299 C  
ENDROOT
BRANCH   2   3
HETATM    3  O   UNL     1     -10.405  10.779  65.770  1.00  0.00    -0.251 OA 
BRANCH   3   4
HETATM    4  C   UNL     1     -10.767  10.406  67.022  1.00  0.00    -0.235 C  
HETATM    5  O   UNL     1     -11.352  11.102  67.843  1.00  0.00    -0.283 OA 
BRANCH   4   6
HETATM    6  C   UNL     1     -10.523   8.935  67.202  1.00  0.00    -0.344 C  
BRANCH   6   7
HETATM    7  C   UNL     1      -9.441   8.679  68.241  1.00  0.00    -0.141 C  
BRANCH   7   8
HETATM    8  S   UNL     1     -10.010   7.627  69.642  1.00  0.00    -0.189 SA 
BRANCH   8   9
HETATM    9  P   UNL     1     -11.376   8.759  70.802  1.00  0.00    -0.240 P  
HETATM   10  S   UNL     1     -12.470   7.128  71.317  1.00  0.00    -0.368 S  
BRANCH   9  11
HETATM   11  O   UNL     1     -10.227   9.131  71.938  1.00  0.00    -0.332 OA 
HETATM   12  C   UNL     1      -9.190   8.230  72.304  1.00  0.00    -0.228 C  
ENDBRANCH   9  11
BRANCH   9  13
HETATM   13  O   UNL     1     -12.492   9.683  71.748  1.00  0.00    -0.365 OA 
HETATM   14  C   UNL     1     -13.638   8.981  72.186  1.00  0.00    -0.469 C  
ENDBRANCH   9  13
ENDBRANCH   8   9
ENDBRANCH   7   8
BRANCH   7  15
HETATM   15  C   UNL     1      -8.294   7.925  67.580  1.00  0.00    -0.124 C  
HETATM   16  O   UNL     1      -7.778   6.909  68.024  1.00  0.00    -0.108 OA 
BRANCH  15  17
HETATM   17  O   UNL     1      -7.863   8.606  66.479  1.00  0.00    -0.097 OA 
BRANCH  17  18
HETATM   18  C   UNL     1      -6.618   9.296  66.645  1.00  0.00    -0.068 C  
HETATM   19  C   UNL     1      -6.816  10.729  66.186  1.00  0.00    -0.126 C  
ENDBRANCH  17  18
ENDBRANCH  15  17
ENDBRANCH   7  15
ENDBRANCH   6   7
ENDBRANCH   4   6
ENDBRANCH   3   4
ENDBRANCH   2   3
TORSDOF 11
ENDMDL
MODEL      256
REMARK 921   NORMALIZED FREE ENERGY PREDICTED BY IDOCK:   -2.92 KCAL/MOL
REMARK 922        TOTAL FREE ENERGY PREDICTED BY IDOCK:   -5.50 KCAL/MOL
REMARK 923 INTER-LIGAND FREE ENERGY PREDICTED BY IDOCK:   -4.90 KCAL/MOL
REMARK 924 INTRA-LIGAND FREE ENERGY PREDICTED BY IDOCK:   -0.60 KCAL/MOL
REMARK 927      BINDING AFFINITY PREDICTED BY RF-SCORE:    0.00 PKD
ROOT
HETATM    1  C   UNL     1      -8.574   7.499  73.669  1.00  0.00    -0.242 C  
HETATM    2  C   UNL     1      -9.915   7.800  73.022  1.00  0.00    -0.293 C  
ENDROOT
BRANCH   2   3
HETATM    3  O   UNL     1      -9.740   8.947  72.181  1.00  0.00    -0.306 OA 
BRANCH   3   4
HETATM    4  C   UNL     1     -10.417   8.932  71.007  1.00  0.00    -0.248 C  
HETATM    5  O   UNL     1     -11.441   8.302  70.770  1.00  0.00    -0.271 OA 
BRANCH   4   6
HETATM    6  C   UNL     1      -9.843   9.964  70.079  1.00  0.00    -0.291 C  
BRANCH   6   7
HETATM    7  C   UNL     1     -10.584   9.984  68.750  1.00  0.00    -0.217 C  
BRANCH   7   8
HETATM    8  S   UNL     1     -11.893  11.277  68.664  1.00  0.00    -0.245 SA 
BRANCH   8   9
HETATM    9  P   UNL     1     -10.941  13.163  68.487  1.00  0.00    -0.282 P  
HETATM   10  S   UNL     1     -11.897  13.612  66.752  1.00  0.00    -0.425 S  
BRANCH   9  11
HETATM   11  O   UNL     1     -11.726  13.774  69.814  1.00  0.00    -0.282 OA 
HETATM   12  C   UNL     1     -12.326  12.944  70.799  1.00  0.00    -0.299 C  
ENDBRANCH   9  11
BRANCH   9  13
HETATM   13  O   UNL     1     -10.165  14.702  68.341  1.00  0.00    -0.224 OA 
HETATM   14  C   UNL     1     -11.035  15.815  68.274  1.00  0.00    -0.325 C  
ENDBRANCH   9  13
ENDBRANCH   8   9
ENDBRANCH   7   8
BRANCH   7  15
HETATM   15  C   UNL     1      -9.592  10.305  67.640  1.00  0.00    -0.152 C  
HETATM   16  O   UNL     1      -8.482  10.789  67.814  1.00  0.00    -0.118 OA 
BRANCH  15  17
HETATM   17  O   UNL     1     -10.162  10.071  66.423  1.00  0.00    -0.236 OA 
BRANCH  17  18
HETATM   18  C   UNL     1      -9.327   9.379  65.487  1.00  0.00    -0.251 C  
HETATM   19  C   UNL     1      -9.090   7.978  66.022  1.00  0.00    -0.193 C  
ENDBRANCH  17  18
ENDBRANCH  15  17
ENDBRANCH   7  15
ENDBRANCH   6   7
ENDBRANCH   4   6
ENDBRANCH   3   4
ENDBRANCH   2   3
TORSDOF 11
ENDMDL
MODEL      257
REMARK 921   NORMALIZED FREE ENERGY PREDICTED BY IDOCK:   -2.92 KCAL/MOL
REMARK 922        TOTAL FREE ENERGY PREDICTED BY IDOCK:   -5.49 KCAL/MOL
REMARK 923 INTER-LIGAND FREE ENERGY PREDICTED BY IDOCK:   -4.77 KCAL/MOL
REMARK 924 INTRA-LIGAND FREE ENERGY PREDICTED BY IDOCK:   -0.71 KCAL/MOL
REMARK 927      BINDING AFFINITY PREDICTED BY RF-SCORE:    0.00 PKD
ROOT
HETATM    1  C   UNL     1      -9.320   6.718  66.443  1.00  0.00    -0.175 C  
HETATM    2  C   UNL     1     -10.001   8.056  66.670  1.00  0.00    -0.256 C  
ENDROOT
BRANCH   2   3
HETATM    3  O   UNL     1      -9.516   8.962  65.673  1.00  0.00    -0.229 OA 
BRANCH   3   4
HETATM    4  C   UNL     1      -8.741   9.981  66.121  1.00  0.00    -0.140 C  
HETATM    5  O   UNL     1      -7.525   9.956  66.263  1.00  0.00    -0.098 OA 
BRANCH   4   6
HETATM    6  C   UNL     1      -9.566  11.231  66.234  1.00  0.00    -0.235 C  
BRANCH   6   7
HETATM    7  C   UNL     1      -9.123  12.078  67.419  1.00  0.00    -0.178 C  
BRANCH   7   8
HETATM    8  S   UNL     1      -9.709  13.822  67.328  1.00  0.00    -0.249 SA 
BRANCH   8   9
HETATM    9  P   UNL     1     -10.649  14.102  65.448  1.00  0.00    -0.393 P  
HETATM   10  S   UNL     1     -12.470  13.533  66.144  1.00  0.00    -0.303 S  
BRANCH   9  11
HETATM   11  O   UNL     1     -10.441  15.746  65.499  1.00  0.00    -0.353 OA 
HETATM   12  C   UNL     1     -10.167  16.447  66.705  1.00  0.00    -0.294 C  
ENDBRANCH   9  11
BRANCH   9  13
HETATM   13  O   UNL     1     -11.416  14.329  63.914  1.00  0.00    -0.087 OA 
HETATM   14  C   UNL     1     -12.214  13.250  63.472  1.00  0.00    -0.441 C  
ENDBRANCH   9  13
ENDBRANCH   8   9
ENDBRANCH   7   8
BRANCH   7  15
HETATM   15  C   UNL     1      -9.722  11.492  68.691  1.00  0.00    -0.165 C  
HETATM   16  O   UNL     1      -9.247  10.554  69.318  1.00  0.00    -0.191 OA 
BRANCH  15  17
HETATM   17  O   UNL     1     -10.913  12.096  68.967  1.00  0.00    -0.230 OA 
BRANCH  17  18
HETATM   18  C   UNL     1     -11.823  11.309  69.745  1.00  0.00    -0.364 C  
HETATM   19  C   UNL     1     -12.408  12.204  70.823  1.00  0.00    -0.391 C  
ENDBRANCH  17  18
ENDBRANCH  15  17
ENDBRANCH   7  15
ENDBRANCH   6   7
ENDBRANCH   4   6
ENDBRANCH   3   4
ENDBRANCH   2   3
TORSDOF 11
ENDMDL
MODEL      258
REMARK 921   NORMALIZED FREE ENERGY PREDICTED BY IDOCK:   -2.92 KCAL/MOL
REMARK 922        TOTAL FREE ENERGY PREDICTED BY IDOCK:   -5.49 KCAL/MOL
REMARK 923 INTER-LIGAND FREE ENERGY PREDICTED BY IDOCK:   -4.70 KCAL/MOL
REMARK 924 INTRA-LIGAND FREE ENERGY PREDICTED BY IDOCK:   -0.78 KCAL/MOL
REMARK 927      BINDING AFFINITY PREDICTED BY RF-SCORE:    0.00 PKD
ROOT
HETATM    1  C   UNL     1      -5.714  12.455  70.296  1.00  0.00    -0.166 C  
HETATM    2  C   UNL     1      -6.112  11.160  69.610  1.00  0.00    -0.093 C  
ENDROOT
BRANCH   2   3
HETATM    3  O   UNL     1      -7.009  10.466  70.484  1.00  0.00    -0.305 OA 
BRANCH   3   4
HETATM    4  C   UNL     1      -8.104   9.918  69.901  1.00  0.00    -0.188 C  
HETATM    5  O   UNL     1      -9.180   9.701  70.445  1.00  0.00    -0.250 OA 
BRANCH   4   6
HETATM    6  C   UNL     1      -7.880   9.791  68.422  1.00  0.00    -0.081 C  
BRANCH   6   7
HETATM    7  C   UNL     1      -9.117  10.208  67.639  1.00  0.00    -0.137 C  
BRANCH   7   8
HETATM    8  S   UNL     1      -8.817  11.627  66.503  1.00  0.00    -0.175 SA 
BRANCH   8   9
HETATM    9  P   UNL     1     -10.562  12.830  66.480  1.00  0.00    -0.262 P  
HETATM   10  S   UNL     1     -11.013  12.342  64.561  1.00  0.00    -0.338 S  
BRANCH   9  11
HETATM   11  O   UNL     1     -11.342  11.860  67.576  1.00  0.00    -0.273 OA 
HETATM   12  C   UNL     1     -11.864  12.354  68.802  1.00  0.00    -0.311 C  
ENDBRANCH   9  11
BRANCH   9  13
HETATM   13  O   UNL     1     -11.986  13.812  66.460  1.00  0.00    -0.387 OA 
HETATM   14  C   UNL     1     -12.734  13.767  65.261  1.00  0.00    -0.439 C  
ENDBRANCH   9  13
ENDBRANCH   8   9
ENDBRANCH   7   8
BRANCH   7  15
HETATM   15  C   UNL     1      -9.557   9.044  66.761  1.00  0.00    -0.200 C  
HETATM   16  O   UNL     1      -9.875   9.139  65.583  1.00  0.00    -0.264 OA 
BRANCH  15  17
HETATM   17  O   UNL     1      -9.642   7.904  67.505  1.00  0.00    -0.144 OA 
BRANCH  17  18
HETATM   18  C   UNL     1     -10.766   7.069  67.205  1.00  0.00    -0.363 C  
HETATM   19  C   UNL     1     -10.773   5.922  68.199  1.00  0.00    -0.329 C  
ENDBRANCH  17  18
ENDBRANCH  15  17
ENDBRANCH   7  15
ENDBRANCH   6   7
ENDBRANCH   4   6
ENDBRANCH   3   4
ENDBRANCH   2   3
TORSDOF 11
ENDMDL
MODEL      259
REMARK 921   NORMALIZED FREE ENERGY PREDICTED BY IDOCK:   -2.91 KCAL/MOL
REMARK 922        TOTAL FREE ENERGY PREDICTED BY IDOCK:   -5.48 KCAL/MOL
REMARK 923 INTER-LIGAND FREE ENERGY PREDICTED BY IDOCK:   -5.54 KCAL/MOL
REMARK 924 INTRA-LIGAND FREE ENERGY PREDICTED BY IDOCK:    0.06 KCAL/MOL
REMARK 927      BINDING AFFINITY PREDICTED BY RF-SCORE:    0.00 PKD
ROOT
HETATM    1  C   UNL     1      -7.252  19.495  65.653  1.00  0.00    -0.283 C  
HETATM    2  C   UNL     1      -8.290  18.966  66.627  1.00  0.00    -0.296 C  
ENDROOT
BRANCH   2   3
HETATM    3  O   UNL     1      -8.767  17.717  66.112  1.00  0.00    -0.447 OA 
BRANCH   3   4
HETATM    4  C   UNL     1      -9.846  17.187  66.740  1.00  0.00    -0.285 C  
HETATM    5  O   UNL     1     -10.815  16.669  66.198  1.00  0.00    -0.179 OA 
BRANCH   4   6
HETATM    6  C   UNL     1      -9.600  17.144  68.220  1.00  0.00    -0.280 C  
BRANCH   6   7
HETATM    7  C   UNL     1     -10.045  15.816  68.815  1.00  0.00    -0.215 C  
BRANCH   7   8
HETATM    8  S   UNL     1     -11.826  15.446  68.521  1.00  0.00    -0.185 SA 
BRANCH   8   9
HETATM    9  P   UNL     1     -12.731  15.044  70.395  1.00  0.00    -0.244 P  
HETATM   10  S   UNL     1     -12.200  13.083  70.361  1.00  0.00    -0.236 S  
BRANCH   9  11
HETATM   11  O   UNL     1     -11.635  15.978  71.216  1.00  0.00    -0.408 OA 
HETATM   12  C   UNL     1     -11.823  16.373  72.568  1.00  0.00    -0.453 C  
ENDBRANCH   9  11
BRANCH   9  13
HETATM   13  O   UNL     1     -13.470  14.714  71.924  1.00  0.00    -0.321 OA 
HETATM   14  C   UNL     1     -13.694  13.346  72.205  1.00  0.00    -0.607 C  
ENDBRANCH   9  13
ENDBRANCH   8   9
ENDBRANCH   7   8
BRANCH   7  15
HETATM   15  C   UNL     1      -9.261  14.692  68.149  1.00  0.00    -0.192 C  
HETATM   16  O   UNL     1      -8.040  14.635  68.087  1.00  0.00    -0.124 OA 
BRANCH  15  17
HETATM   17  O   UNL     1     -10.117  13.819  67.546  1.00  0.00    -0.236 OA 
BRANCH  17  18
HETATM   18  C   UNL     1      -9.616  13.210  66.350  1.00  0.00    -0.255 C  
HETATM   19  C   UNL     1     -10.574  12.100  65.957  1.00  0.00    -0.292 C  
ENDBRANCH  17  18
ENDBRANCH  15  17
ENDBRANCH   7  15
ENDBRANCH   6   7
ENDBRANCH   4   6
ENDBRANCH   3   4
ENDBRANCH   2   3
TORSDOF 11
ENDMDL
MODEL      260
REMARK 921   NORMALIZED FREE ENERGY PREDICTED BY IDOCK:   -2.91 KCAL/MOL
REMARK 922        TOTAL FREE ENERGY PREDICTED BY IDOCK:   -5.47 KCAL/MOL
REMARK 923 INTER-LIGAND FREE ENERGY PREDICTED BY IDOCK:   -4.89 KCAL/MOL
REMARK 924 INTRA-LIGAND FREE ENERGY PREDICTED BY IDOCK:   -0.58 KCAL/MOL
REMARK 927      BINDING AFFINITY PREDICTED BY RF-SCORE:    0.00 PKD
ROOT
HETATM    1  C   UNL     1     -11.158   6.305  70.416  1.00  0.00    -0.416 C  
HETATM    2  C   UNL     1     -11.418   7.681  71.002  1.00  0.00    -0.276 C  
ENDROOT
BRANCH   2   3
HETATM    3  O   UNL     1     -11.610   8.586  69.908  1.00  0.00     0.054 OA 
BRANCH   3   4
HETATM    4  C   UNL     1     -11.075   9.823  70.058  1.00  0.00    -0.267 C  
HETATM    5  O   UNL     1      -9.918  10.077  70.370  1.00  0.00    -0.222 OA 
BRANCH   4   6
HETATM    6  C   UNL     1     -12.057  10.859  69.591  1.00  0.00    -0.400 C  
BRANCH   6   7
HETATM    7  C   UNL     1     -11.344  12.106  69.086  1.00  0.00    -0.276 C  
BRANCH   7   8
HETATM    8  S   UNL     1     -11.904  12.638  67.414  1.00  0.00    -0.256 SA 
BRANCH   8   9
HETATM    9  P   UNL     1     -10.479  11.958  65.998  1.00  0.00    -0.267 P  
HETATM   10  S   UNL     1     -11.858  11.797  64.516  1.00  0.00    -0.078 S  
BRANCH   9  11
HETATM   11  O   UNL     1      -9.693  13.418  65.970  1.00  0.00    -0.273 OA 
HETATM   12  C   UNL     1     -10.304  14.609  65.493  1.00  0.00    -0.362 C  
ENDBRANCH   9  11
BRANCH   9  13
HETATM   13  O   UNL     1      -9.318  11.403  64.842  1.00  0.00    -0.203 OA 
HETATM   14  C   UNL     1      -9.747  11.425  63.495  1.00  0.00    -0.339 C  
ENDBRANCH   9  13
ENDBRANCH   8   9
ENDBRANCH   7   8
BRANCH   7  15
HETATM   15  C   UNL     1     -11.653  13.262  70.028  1.00  0.00    -0.142 C  
HETATM   16  O   UNL     1     -12.167  13.145  71.132  1.00  0.00    -0.284 OA 
BRANCH  15  17
HETATM   17  O   UNL     1     -11.369  14.449  69.418  1.00  0.00    -0.257 OA 
BRANCH  17  18
HETATM   18  C   UNL     1     -11.389  15.592  70.281  1.00  0.00    -0.344 C  
HETATM   19  C   UNL     1     -10.654  16.719  69.578  1.00  0.00    -0.283 C  
ENDBRANCH  17  18
ENDBRANCH  15  17
ENDBRANCH   7  15
ENDBRANCH   6   7
ENDBRANCH   4   6
ENDBRANCH   3   4
ENDBRANCH   2   3
TORSDOF 11
ENDMDL
MODEL      261
REMARK 921   NORMALIZED FREE ENERGY PREDICTED BY IDOCK:   -2.88 KCAL/MOL
REMARK 922        TOTAL FREE ENERGY PREDICTED BY IDOCK:   -5.43 KCAL/MOL
REMARK 923 INTER-LIGAND FREE ENERGY PREDICTED BY IDOCK:   -4.67 KCAL/MOL
REMARK 924 INTRA-LIGAND FREE ENERGY PREDICTED BY IDOCK:   -0.76 KCAL/MOL
REMARK 927      BINDING AFFINITY PREDICTED BY RF-SCORE:    0.00 PKD
ROOT
HETATM    1  C   UNL     1      -9.736   5.661  66.343  1.00  0.00    -0.180 C  
HETATM    2  C   UNL     1     -10.151   5.000  67.645  1.00  0.00    -0.140 C  
ENDROOT
BRANCH   2   3
HETATM    3  O   UNL     1     -11.014   5.911  68.336  1.00  0.00    -0.274 OA 
BRANCH   3   4
HETATM    4  C   UNL     1     -10.868   5.963  69.683  1.00  0.00    -0.374 C  
HETATM    5  O   UNL     1     -10.070   5.315  70.349  1.00  0.00    -0.215 OA 
BRANCH   4   6
HETATM    6  C   UNL     1     -11.696   7.086  70.238  1.00  0.00    -0.284 C  
BRANCH   6   7
HETATM    7  C   UNL     1     -10.831   8.287  70.591  1.00  0.00    -0.236 C  
BRANCH   7   8
HETATM    8  S   UNL     1     -11.632   9.901  70.206  1.00  0.00    -0.227 SA 
BRANCH   8   9
HETATM    9  P   UNL     1     -10.439  10.901  68.768  1.00  0.00    -0.223 P  
HETATM   10  S   UNL     1     -10.548   9.367  67.441  1.00  0.00    -0.209 S  
BRANCH   9  11
HETATM   11  O   UNL     1     -11.597  12.055  68.492  1.00  0.00    -0.264 OA 
HETATM   12  C   UNL     1     -11.662  12.804  67.286  1.00  0.00    -0.378 C  
ENDBRANCH   9  11
BRANCH   9  13
HETATM   13  O   UNL     1      -9.464  11.716  67.594  1.00  0.00    -0.172 OA 
HETATM   14  C   UNL     1      -8.081  11.765  67.885  1.00  0.00    -0.144 C  
ENDBRANCH   9  13
ENDBRANCH   8   9
ENDBRANCH   7   8
BRANCH   7  15
HETATM   15  C   UNL     1     -10.575   8.284  72.092  1.00  0.00    -0.310 C  
HETATM   16  O   UNL     1     -11.411   8.007  72.942  1.00  0.00    -0.408 OA 
BRANCH  15  17
HETATM   17  O   UNL     1      -9.314   8.735  72.351  1.00  0.00    -0.331 OA 
BRANCH  17  18
HETATM   18  C   UNL     1      -8.577   7.955  73.300  1.00  0.00    -0.218 C  
HETATM   19  C   UNL     1      -7.426   7.293  72.564  1.00  0.00    -0.086 C  
ENDBRANCH  17  18
ENDBRANCH  15  17
ENDBRANCH   7  15
ENDBRANCH   6   7
ENDBRANCH   4   6
ENDBRANCH   3   4
ENDBRANCH   2   3
TORSDOF 11
ENDMDL
MODEL      262
REMARK 921   NORMALIZED FREE ENERGY PREDICTED BY IDOCK:   -2.88 KCAL/MOL
REMARK 922        TOTAL FREE ENERGY PREDICTED BY IDOCK:   -5.42 KCAL/MOL
REMARK 923 INTER-LIGAND FREE ENERGY PREDICTED BY IDOCK:   -4.79 KCAL/MOL
REMARK 924 INTRA-LIGAND FREE ENERGY PREDICTED BY IDOCK:   -0.64 KCAL/MOL
REMARK 927      BINDING AFFINITY PREDICTED BY RF-SCORE:    0.00 PKD
ROOT
HETATM    1  C   UNL     1     -11.181   8.199  72.064  1.00  0.00    -0.372 C  
HETATM    2  C   UNL     1     -10.667   9.419  71.321  1.00  0.00    -0.350 C  
ENDROOT
BRANCH   2   3
HETATM    3  O   UNL     1     -11.148   9.338  69.974  1.00  0.00    -0.235 OA 
BRANCH   3   4
HETATM    4  C   UNL     1     -10.201   9.219  69.010  1.00  0.00    -0.206 C  
HETATM    5  O   UNL     1      -9.018   8.958  69.188  1.00  0.00    -0.138 OA 
BRANCH   4   6
HETATM    6  C   UNL     1     -10.850   9.257  67.656  1.00  0.00    -0.188 C  
BRANCH   6   7
HETATM    7  C   UNL     1     -10.729  10.638  67.026  1.00  0.00    -0.259 C  
BRANCH   7   8
HETATM    8  S   UNL     1      -9.699  11.802  68.014  1.00  0.00    -0.190 SA 
BRANCH   8   9
HETATM    9  P   UNL     1     -10.950  13.373  68.693  1.00  0.00    -0.264 P  
HETATM   10  S   UNL     1     -11.617  13.805  66.824  1.00  0.00    -0.392 S  
BRANCH   9  11
HETATM   11  O   UNL     1     -11.958  12.330  69.497  1.00  0.00    -0.302 OA 
HETATM   12  C   UNL     1     -12.466  12.602  70.796  1.00  0.00    -0.270 C  
ENDBRANCH   9  11
BRANCH   9  13
HETATM   13  O   UNL     1     -11.970  14.656  69.247  1.00  0.00    -0.303 OA 
HETATM   14  C   UNL     1     -11.748  15.911  68.636  1.00  0.00    -0.322 C  
ENDBRANCH   9  13
ENDBRANCH   8   9
ENDBRANCH   7   8
BRANCH   7  15
HETATM   15  C   UNL     1     -10.043  10.502  65.674  1.00  0.00    -0.268 C  
HETATM   16  O   UNL     1      -9.863  11.421  64.887  1.00  0.00    -0.240 OA 
BRANCH  15  17
HETATM   17  O   UNL     1      -9.753   9.192  65.428  1.00  0.00    -0.207 OA 
BRANCH  17  18
HETATM   18  C   UNL     1      -8.503   8.963  64.767  1.00  0.00    -0.176 C  
HETATM   19  C   UNL     1      -7.757   7.892  65.542  1.00  0.00    -0.101 C  
ENDBRANCH  17  18
ENDBRANCH  15  17
ENDBRANCH   7  15
ENDBRANCH   6   7
ENDBRANCH   4   6
ENDBRANCH   3   4
ENDBRANCH   2   3
TORSDOF 11
ENDMDL
MODEL      263
REMARK 921   NORMALIZED FREE ENERGY PREDICTED BY IDOCK:   -2.87 KCAL/MOL
REMARK 922        TOTAL FREE ENERGY PREDICTED BY IDOCK:   -5.41 KCAL/MOL
REMARK 923 INTER-LIGAND FREE ENERGY PREDICTED BY IDOCK:   -4.54 KCAL/MOL
REMARK 924 INTRA-LIGAND FREE ENERGY PREDICTED BY IDOCK:   -0.88 KCAL/MOL
REMARK 927      BINDING AFFINITY PREDICTED BY RF-SCORE:    0.00 PKD
ROOT
HETATM    1  C   UNL     1     -14.290   7.452  71.496  1.00  0.00    -0.594 C  
HETATM    2  C   UNL     1     -12.775   7.385  71.402  1.00  0.00    -0.369 C  
ENDROOT
BRANCH   2   3
HETATM    3  O   UNL     1     -12.243   8.338  72.330  1.00  0.00    -0.344 OA 
BRANCH   3   4
HETATM    4  C   UNL     1     -10.992   8.086  72.790  1.00  0.00    -0.382 C  
HETATM    5  O   UNL     1     -10.703   7.365  73.737  1.00  0.00    -0.331 OA 
BRANCH   4   6
HETATM    6  C   UNL     1      -9.979   8.663  71.844  1.00  0.00    -0.392 C  
BRANCH   6   7
HETATM    7  C   UNL     1      -9.073   7.579  71.277  1.00  0.00    -0.141 C  
BRANCH   7   8
HETATM    8  S   UNL     1      -9.176   7.429  69.444  1.00  0.00    -0.144 SA 
BRANCH   8   9
HETATM    9  P   UNL     1      -9.501   5.389  68.969  1.00  0.00    -0.153 P  
HETATM   10  S   UNL     1      -9.985   4.901  70.881  1.00  0.00    -0.215 S  
BRANCH   9  11
HETATM   11  O   UNL     1     -10.838   5.733  68.050  1.00  0.00    -0.242 OA 
HETATM   12  C   UNL     1     -10.757   6.043  66.665  1.00  0.00    -0.244 C  
ENDBRANCH   9  11
BRANCH   9  13
HETATM   13  O   UNL     1      -9.767   3.724  68.582  1.00  0.00    -0.137 OA 
HETATM   14  C   UNL     1      -8.726   3.098  67.857  1.00  0.00    -0.109 C  
ENDBRANCH   9  13
ENDBRANCH   8   9
ENDBRANCH   7   8
BRANCH   7  15
HETATM   15  C   UNL     1      -7.627   7.932  71.597  1.00  0.00    -0.080 C  
HETATM   16  O   UNL     1      -6.653   7.492  71.001  1.00  0.00    -0.039 OA 
BRANCH  15  17
HETATM   17  O   UNL     1      -7.574   8.724  72.706  1.00  0.00    -0.361 OA 
BRANCH  17  18
HETATM   18  C   UNL     1      -6.964   8.119  73.853  1.00  0.00    -0.131 C  
HETATM   19  C   UNL     1      -5.722   8.921  74.197  1.00  0.00    -0.129 C  
ENDBRANCH  17  18
ENDBRANCH  15  17
ENDBRANCH   7  15
ENDBRANCH   6   7
ENDBRANCH   4   6
ENDBRANCH   3   4
ENDBRANCH   2   3
TORSDOF 11
ENDMDL
MODEL      264
REMARK 921   NORMALIZED FREE ENERGY PREDICTED BY IDOCK:   -2.87 KCAL/MOL
REMARK 922        TOTAL FREE ENERGY PREDICTED BY IDOCK:   -5.41 KCAL/MOL
REMARK 923 INTER-LIGAND FREE ENERGY PREDICTED BY IDOCK:   -4.59 KCAL/MOL
REMARK 924 INTRA-LIGAND FREE ENERGY PREDICTED BY IDOCK:   -0.82 KCAL/MOL
REMARK 927      BINDING AFFINITY PREDICTED BY RF-SCORE:    0.00 PKD
ROOT
HETATM    1  C   UNL     1     -13.258  10.893  72.079  1.00  0.00    -0.456 C  
HETATM    2  C   UNL     1     -12.722  10.020  70.958  1.00  0.00    -0.362 C  
ENDROOT
BRANCH   2   3
HETATM    3  O   UNL     1     -12.836  10.764  69.739  1.00  0.00    -0.174 OA 
BRANCH   3   4
HETATM    4  C   UNL     1     -11.840  11.649  69.487  1.00  0.00    -0.348 C  
HETATM    5  O   UNL     1     -11.858  12.848  69.739  1.00  0.00    -0.312 OA 
BRANCH   4   6
HETATM    6  C   UNL     1     -10.614  10.915  69.028  1.00  0.00    -0.248 C  
BRANCH   6   7
HETATM    7  C   UNL     1      -9.708  11.816  68.202  1.00  0.00    -0.192 C  
BRANCH   7   8
HETATM    8  S   UNL     1      -7.919  11.423  68.392  1.00  0.00    -0.147 SA 
BRANCH   8   9
HETATM    9  P   UNL     1      -6.846  13.251  68.440  1.00  0.00    -0.128 P  
HETATM   10  S   UNL     1      -5.855  12.759  70.143  1.00  0.00    -0.141 S  
BRANCH   9  11
HETATM   11  O   UNL     1      -5.981  12.872  67.076  1.00  0.00    -0.292 OA 
HETATM   12  C   UNL     1      -5.951  11.561  66.527  1.00  0.00    -0.101 C  
ENDBRANCH   9  11
BRANCH   9  13
HETATM   13  O   UNL     1      -5.970  14.743  68.480  1.00  0.00    -0.086 OA 
HETATM   14  C   UNL     1      -6.328  15.680  67.483  1.00  0.00    -0.151 C  
ENDBRANCH   9  13
ENDBRANCH   8   9
ENDBRANCH   7   8
BRANCH   7  15
HETATM   15  C   UNL     1     -10.034  11.620  66.727  1.00  0.00    -0.204 C  
HETATM   16  O   UNL     1     -10.193  10.535  66.185  1.00  0.00    -0.235 OA 
BRANCH  15  17
HETATM   17  O   UNL     1     -10.018  12.822  66.082  1.00  0.00    -0.258 OA 
BRANCH  17  18
HETATM   18  C   UNL     1     -10.597  13.909  66.815  1.00  0.00    -0.277 C  
HETATM   19  C   UNL     1     -12.055  14.020  66.409  1.00  0.00    -0.483 C  
ENDBRANCH  17  18
ENDBRANCH  15  17
ENDBRANCH   7  15
ENDBRANCH   6   7
ENDBRANCH   4   6
ENDBRANCH   3   4
ENDBRANCH   2   3
TORSDOF 11
ENDMDL
MODEL      265
REMARK 921   NORMALIZED FREE ENERGY PREDICTED BY IDOCK:   -2.87 KCAL/MOL
REMARK 922        TOTAL FREE ENERGY PREDICTED BY IDOCK:   -5.41 KCAL/MOL
REMARK 923 INTER-LIGAND FREE ENERGY PREDICTED BY IDOCK:   -4.56 KCAL/MOL
REMARK 924 INTRA-LIGAND FREE ENERGY PREDICTED BY IDOCK:   -0.85 KCAL/MOL
REMARK 927      BINDING AFFINITY PREDICTED BY RF-SCORE:    0.00 PKD
ROOT
HETATM    1  C   UNL     1     -10.822   5.805  68.636  1.00  0.00    -0.270 C  
HETATM    2  C   UNL     1      -9.792   6.799  68.127  1.00  0.00    -0.137 C  
ENDROOT
BRANCH   2   3
HETATM    3  O   UNL     1     -10.225   7.244  66.836  1.00  0.00    -0.238 OA 
BRANCH   3   4
HETATM    4  C   UNL     1      -9.938   8.533  66.524  1.00  0.00    -0.280 C  
HETATM    5  O   UNL     1      -9.207   8.911  65.617  1.00  0.00    -0.218 OA 
BRANCH   4   6
HETATM    6  C   UNL     1     -10.808   9.454  67.329  1.00  0.00    -0.165 C  
BRANCH   6   7
HETATM    7  C   UNL     1     -10.050  10.707  67.742  1.00  0.00    -0.174 C  
BRANCH   7   8
HETATM    8  S   UNL     1     -11.127  12.194  67.896  1.00  0.00    -0.265 SA 
BRANCH   8   9
HETATM    9  P   UNL     1     -10.426  13.657  66.532  1.00  0.00    -0.289 P  
HETATM   10  S   UNL     1     -10.088  12.294  65.064  1.00  0.00    -0.221 S  
BRANCH   9  11
HETATM   11  O   UNL     1     -11.920  14.366  66.400  1.00  0.00    -0.404 OA 
HETATM   12  C   UNL     1     -12.845  14.020  65.378  1.00  0.00    -0.410 C  
ENDBRANCH   9  11
BRANCH   9  13
HETATM   13  O   UNL     1      -9.854  14.851  65.418  1.00  0.00    -0.342 OA 
HETATM   14  C   UNL     1      -9.997  16.192  65.843  1.00  0.00    -0.356 C  
ENDBRANCH   9  13
ENDBRANCH   8   9
ENDBRANCH   7   8
BRANCH   7  15
HETATM   15  C   UNL     1      -9.437  10.480  69.118  1.00  0.00    -0.191 C  
HETATM   16  O   UNL     1     -10.034  10.014  70.079  1.00  0.00    -0.249 OA 
BRANCH  15  17
HETATM   17  O   UNL     1      -8.163  10.966  69.147  1.00  0.00    -0.146 OA 
BRANCH  17  18
HETATM   18  C   UNL     1      -7.199  10.099  69.758  1.00  0.00    -0.141 C  
HETATM   19  C   UNL     1      -6.875   8.994  68.770  1.00  0.00    -0.061 C  
ENDBRANCH  17  18
ENDBRANCH  15  17
ENDBRANCH   7  15
ENDBRANCH   6   7
ENDBRANCH   4   6
ENDBRANCH   3   4
ENDBRANCH   2   3
TORSDOF 11
ENDMDL
MODEL      266
REMARK 921   NORMALIZED FREE ENERGY PREDICTED BY IDOCK:   -2.86 KCAL/MOL
REMARK 922        TOTAL FREE ENERGY PREDICTED BY IDOCK:   -5.39 KCAL/MOL
REMARK 923 INTER-LIGAND FREE ENERGY PREDICTED BY IDOCK:   -4.89 KCAL/MOL
REMARK 924 INTRA-LIGAND FREE ENERGY PREDICTED BY IDOCK:   -0.50 KCAL/MOL
REMARK 927      BINDING AFFINITY PREDICTED BY RF-SCORE:    0.00 PKD
ROOT
HETATM    1  C   UNL     1     -12.953  14.206  72.639  1.00  0.00    -0.505 C  
HETATM    2  C   UNL     1     -13.504  13.091  71.768  1.00  0.00    -0.314 C  
ENDROOT
BRANCH   2   3
HETATM    3  O   UNL     1     -12.441  12.641  70.920  1.00  0.00    -0.369 OA 
BRANCH   3   4
HETATM    4  C   UNL     1     -12.350  11.300  70.741  1.00  0.00    -0.398 C  
HETATM    5  O   UNL     1     -13.277  10.500  70.782  1.00  0.00    -0.335 OA 
BRANCH   4   6
HETATM    6  C   UNL     1     -10.965  10.943  70.285  1.00  0.00    -0.061 C  
BRANCH   6   7
HETATM    7  C   UNL     1     -10.999  10.150  68.986  1.00  0.00    -0.226 C  
BRANCH   7   8
HETATM    8  S   UNL     1      -9.854  10.807  67.701  1.00  0.00    -0.173 SA 
BRANCH   8   9
HETATM    9  P   UNL     1     -11.010  11.844  66.259  1.00  0.00    -0.309 P  
HETATM   10  S   UNL     1     -11.358  13.415  67.498  1.00  0.00    -0.315 S  
BRANCH   9  11
HETATM   11  O   UNL     1      -9.700  12.098  65.274  1.00  0.00    -0.230 OA 
HETATM   12  C   UNL     1      -9.528  11.420  64.036  1.00  0.00    -0.141 C  
ENDBRANCH   9  11
BRANCH   9  13
HETATM   13  O   UNL     1     -11.954  12.691  65.082  1.00  0.00    -0.380 OA 
HETATM   14  C   UNL     1     -13.034  13.442  65.601  1.00  0.00    -0.077 C  
ENDBRANCH   9  13
ENDBRANCH   8   9
ENDBRANCH   7   8
BRANCH   7  15
HETATM   15  C   UNL     1     -10.549   8.723  69.270  1.00  0.00    -0.197 C  
HETATM   16  O   UNL     1     -10.015   7.984  68.455  1.00  0.00    -0.173 OA 
BRANCH  15  17
HETATM   17  O   UNL     1     -10.923   8.359  70.530  1.00  0.00    -0.237 OA 
BRANCH  17  18
HETATM   18  C   UNL     1      -9.984   7.528  71.223  1.00  0.00    -0.186 C  
HETATM   19  C   UNL     1     -10.765   6.449  71.950  1.00  0.00    -0.262 C  
ENDBRANCH  17  18
ENDBRANCH  15  17
ENDBRANCH   7  15
ENDBRANCH   6   7
ENDBRANCH   4   6
ENDBRANCH   3   4
ENDBRANCH   2   3
TORSDOF 11
ENDMDL
MODEL      267
REMARK 921   NORMALIZED FREE ENERGY PREDICTED BY IDOCK:   -2.85 KCAL/MOL
REMARK 922        TOTAL FREE ENERGY PREDICTED BY IDOCK:   -5.38 KCAL/MOL
REMARK 923 INTER-LIGAND FREE ENERGY PREDICTED BY IDOCK:   -4.54 KCAL/MOL
REMARK 924 INTRA-LIGAND FREE ENERGY PREDICTED BY IDOCK:   -0.84 KCAL/MOL
REMARK 927      BINDING AFFINITY PREDICTED BY RF-SCORE:    0.00 PKD
ROOT
HETATM    1  C   UNL     1     -10.157   5.423  70.142  1.00  0.00    -0.322 C  
HETATM    2  C   UNL     1     -11.079   6.328  70.940  1.00  0.00    -0.306 C  
ENDROOT
BRANCH   2   3
HETATM    3  O   UNL     1     -11.050   7.622  70.326  1.00  0.00    -0.260 OA 
BRANCH   3   4
HETATM    4  C   UNL     1     -10.970   8.680  71.170  1.00  0.00    -0.260 C  
HETATM    5  O   UNL     1     -11.191   8.661  72.375  1.00  0.00    -0.357 OA 
BRANCH   4   6
HETATM    6  C   UNL     1     -10.374   9.856  70.453  1.00  0.00    -0.322 C  
BRANCH   6   7
HETATM    7  C   UNL     1      -9.481   9.407  69.304  1.00  0.00    -0.164 C  
BRANCH   7   8
HETATM    8  S   UNL     1      -9.524  10.547  67.858  1.00  0.00    -0.148 SA 
BRANCH   8   9
HETATM    9  P   UNL     1     -10.875  12.120  68.302  1.00  0.00    -0.253 P  
HETATM   10  S   UNL     1      -9.430  13.544  68.204  1.00  0.00    -0.214 S  
BRANCH   9  11
HETATM   11  O   UNL     1     -11.681  11.941  66.864  1.00  0.00    -0.541 OA 
HETATM   12  C   UNL     1     -11.018  11.624  65.647  1.00  0.00    -0.266 C  
ENDBRANCH   9  11
BRANCH   9  13
HETATM   13  O   UNL     1     -11.977  13.404  68.665  1.00  0.00    -0.343 OA 
HETATM   14  C   UNL     1     -11.961  14.488  67.757  1.00  0.00    -0.310 C  
ENDBRANCH   9  13
ENDBRANCH   8   9
ENDBRANCH   7   8
BRANCH   7  15
HETATM   15  C   UNL     1      -8.037   9.382  69.786  1.00  0.00    -0.133 C  
HETATM   16  O   UNL     1      -7.304  10.360  69.845  1.00  0.00    -0.151 OA 
BRANCH  15  17
HETATM   17  O   UNL     1      -7.653   8.099  70.042  1.00  0.00    -0.074 OA 
BRANCH  17  18
HETATM   18  C   UNL     1      -6.507   7.653  69.306  1.00  0.00    -0.039 C  
HETATM   19  C   UNL     1      -6.877   6.356  68.610  1.00  0.00    -0.074 C  
ENDBRANCH  17  18
ENDBRANCH  15  17
ENDBRANCH   7  15
ENDBRANCH   6   7
ENDBRANCH   4   6
ENDBRANCH   3   4
ENDBRANCH   2   3
TORSDOF 11
ENDMDL
MODEL      268
REMARK 921   NORMALIZED FREE ENERGY PREDICTED BY IDOCK:   -2.85 KCAL/MOL
REMARK 922        TOTAL FREE ENERGY PREDICTED BY IDOCK:   -5.37 KCAL/MOL
REMARK 923 INTER-LIGAND FREE ENERGY PREDICTED BY IDOCK:   -4.77 KCAL/MOL
REMARK 924 INTRA-LIGAND FREE ENERGY PREDICTED BY IDOCK:   -0.60 KCAL/MOL
REMARK 927      BINDING AFFINITY PREDICTED BY RF-SCORE:    0.00 PKD
ROOT
HETATM    1  C   UNL     1     -10.786   7.541  72.141  1.00  0.00    -0.282 C  
HETATM    2  C   UNL     1     -11.816   8.654  72.216  1.00  0.00    -0.366 C  
ENDROOT
BRANCH   2   3
HETATM    3  O   UNL     1     -11.279   9.785  71.521  1.00  0.00    -0.360 OA 
BRANCH   3   4
HETATM    4  C   UNL     1     -12.075  10.331  70.568  1.00  0.00    -0.310 C  
HETATM    5  O   UNL     1     -13.298  10.270  70.527  1.00  0.00    -0.253 OA 
BRANCH   4   6
HETATM    6  C   UNL     1     -11.255  11.203  69.661  1.00  0.00    -0.333 C  
BRANCH   6   7
HETATM    7  C   UNL     1     -11.038  10.540  68.308  1.00  0.00    -0.284 C  
BRANCH   7   8
HETATM    8  S   UNL     1     -10.129  11.606  67.112  1.00  0.00    -0.206 SA 
BRANCH   8   9
HETATM    9  P   UNL     1     -10.826  13.595  67.343  1.00  0.00    -0.280 P  
HETATM   10  S   UNL     1      -9.441  14.039  68.761  1.00  0.00    -0.001 S  
BRANCH   9  11
HETATM   11  O   UNL     1     -10.331  14.030  65.821  1.00  0.00    -0.296 OA 
HETATM   12  C   UNL     1     -11.144  13.853  64.670  1.00  0.00    -0.385 C  
ENDBRANCH   9  11
BRANCH   9  13
HETATM   13  O   UNL     1     -11.395  15.218  67.533  1.00  0.00    -0.331 OA 
HETATM   14  C   UNL     1     -10.450  16.228  67.239  1.00  0.00    -0.300 C  
ENDBRANCH   9  13
ENDBRANCH   8   9
ENDBRANCH   7   8
BRANCH   7  15
HETATM   15  C   UNL     1     -10.185   9.294  68.503  1.00  0.00    -0.201 C  
HETATM   16  O   UNL     1     -10.589   8.145  68.383  1.00  0.00    -0.185 OA 
BRANCH  15  17
HETATM   17  O   UNL     1      -8.938   9.644  68.931  1.00  0.00    -0.135 OA 
BRANCH  17  18
HETATM   18  C   UNL     1      -8.288   8.673  69.760  1.00  0.00    -0.123 C  
HETATM   19  C   UNL     1      -7.308   9.408  70.656  1.00  0.00    -0.140 C  
ENDBRANCH  17  18
ENDBRANCH  15  17
ENDBRANCH   7  15
ENDBRANCH   6   7
ENDBRANCH   4   6
ENDBRANCH   3   4
ENDBRANCH   2   3
TORSDOF 11
ENDMDL
MODEL      269
REMARK 921   NORMALIZED FREE ENERGY PREDICTED BY IDOCK:   -2.84 KCAL/MOL
REMARK 922        TOTAL FREE ENERGY PREDICTED BY IDOCK:   -5.37 KCAL/MOL
REMARK 923 INTER-LIGAND FREE ENERGY PREDICTED BY IDOCK:   -4.72 KCAL/MOL
REMARK 924 INTRA-LIGAND FREE ENERGY PREDICTED BY IDOCK:   -0.65 KCAL/MOL
REMARK 927      BINDING AFFINITY PREDICTED BY RF-SCORE:    0.00 PKD
ROOT
HETATM    1  C   UNL     1     -11.949  12.134  63.922  1.00  0.00    -0.581 C  
HETATM    2  C   UNL     1     -11.111  12.573  65.109  1.00  0.00    -0.299 C  
ENDROOT
BRANCH   2   3
HETATM    3  O   UNL     1     -10.865  11.415  65.915  1.00  0.00    -0.272 OA 
BRANCH   3   4
HETATM    4  C   UNL     1     -11.426  11.420  67.150  1.00  0.00    -0.190 C  
HETATM    5  O   UNL     1     -12.262  12.216  67.561  1.00  0.00    -0.474 OA 
BRANCH   4   6
HETATM    6  C   UNL     1     -11.023  10.179  67.893  1.00  0.00    -0.335 C  
BRANCH   6   7
HETATM    7  C   UNL     1     -10.375  10.521  69.227  1.00  0.00    -0.227 C  
BRANCH   7   8
HETATM    8  S   UNL     1     -11.177   9.691  70.662  1.00  0.00    -0.346 SA 
BRANCH   8   9
HETATM    9  P   UNL     1     -10.710   7.625  70.572  1.00  0.00    -0.241 P  
HETATM   10  S   UNL     1      -9.860   7.619  72.416  1.00  0.00    -0.198 S  
BRANCH   9  11
HETATM   11  O   UNL     1     -12.307   7.180  70.613  1.00  0.00    -0.272 OA 
HETATM   12  C   UNL     1     -13.078   7.200  71.807  1.00  0.00    -0.314 C  
ENDBRANCH   9  11
BRANCH   9  13
HETATM   13  O   UNL     1     -10.327   5.940  70.498  1.00  0.00    -0.206 OA 
HETATM   14  C   UNL     1      -8.951   5.637  70.378  1.00  0.00    -0.140 C  
ENDBRANCH   9  13
ENDBRANCH   8   9
ENDBRANCH   7   8
BRANCH   7  15
HETATM   15  C   UNL     1      -8.930  10.040  69.208  1.00  0.00    -0.178 C  
HETATM   16  O   UNL     1      -8.170  10.074  70.166  1.00  0.00    -0.176 OA 
BRANCH  15  17
HETATM   17  O   UNL     1      -8.580   9.664  67.944  1.00  0.00    -0.122 OA 
BRANCH  17  18
HETATM   18  C   UNL     1      -7.366   8.909  67.852  1.00  0.00    -0.084 C  
HETATM   19  C   UNL     1      -6.403   9.681  66.969  1.00  0.00    -0.065 C  
ENDBRANCH  17  18
ENDBRANCH  15  17
ENDBRANCH   7  15
ENDBRANCH   6   7
ENDBRANCH   4   6
ENDBRANCH   3   4
ENDBRANCH   2   3
TORSDOF 11
ENDMDL
MODEL      270
REMARK 921   NORMALIZED FREE ENERGY PREDICTED BY IDOCK:   -2.82 KCAL/MOL
REMARK 922        TOTAL FREE ENERGY PREDICTED BY IDOCK:   -5.34 KCAL/MOL
REMARK 923 INTER-LIGAND FREE ENERGY PREDICTED BY IDOCK:   -4.64 KCAL/MOL
REMARK 924 INTRA-LIGAND FREE ENERGY PREDICTED BY IDOCK:   -0.69 KCAL/MOL
REMARK 927      BINDING AFFINITY PREDICTED BY RF-SCORE:    0.00 PKD
ROOT
HETATM    1  C   UNL     1     -11.024   8.207  71.179  1.00  0.00    -0.271 C  
HETATM    2  C   UNL     1     -10.416   9.489  70.639  1.00  0.00    -0.308 C  
ENDROOT
BRANCH   2   3
HETATM    3  O   UNL     1     -10.751   9.574  69.249  1.00  0.00    -0.225 OA 
BRANCH   3   4
HETATM    4  C   UNL     1      -9.774   9.217  68.379  1.00  0.00    -0.154 C  
HETATM    5  O   UNL     1      -8.601   9.002  68.658  1.00  0.00    -0.126 OA 
BRANCH   4   6
HETATM    6  C   UNL     1     -10.376   8.925  67.035  1.00  0.00    -0.340 C  
BRANCH   6   7
HETATM    7  C   UNL     1      -9.915   9.934  65.993  1.00  0.00    -0.268 C  
BRANCH   7   8
HETATM    8  S   UNL     1      -9.388  11.543  66.720  1.00  0.00    -0.186 SA 
BRANCH   8   9
HETATM    9  P   UNL     1     -10.690  13.050  65.993  1.00  0.00    -0.283 P  
HETATM   10  S   UNL     1     -11.085  12.042  64.275  1.00  0.00    -0.380 S  
BRANCH   9  11
HETATM   11  O   UNL     1     -11.819  12.754  67.171  1.00  0.00    -0.365 OA 
HETATM   12  C   UNL     1     -11.909  13.528  68.359  1.00  0.00    -0.373 C  
ENDBRANCH   9  11
BRANCH   9  13
HETATM   13  O   UNL     1     -11.751  14.280  65.399  1.00  0.00    -0.335 OA 
HETATM   14  C   UNL     1     -11.115  15.376  64.772  1.00  0.00    -0.403 C  
ENDBRANCH   9  13
ENDBRANCH   8   9
ENDBRANCH   7   8
BRANCH   7  15
HETATM   15  C   UNL     1      -8.698   9.372  65.270  1.00  0.00    -0.175 C  
HETATM   16  O   UNL     1      -7.858  10.047  64.690  1.00  0.00    -0.137 OA 
BRANCH  15  17
HETATM   17  O   UNL     1      -8.740   8.009  65.277  1.00  0.00    -0.130 OA 
BRANCH  17  18
HETATM   18  C   UNL     1      -7.469   7.366  65.433  1.00  0.00    -0.090 C  
HETATM   19  C   UNL     1      -7.613   6.307  66.510  1.00  0.00    -0.094 C  
ENDBRANCH  17  18
ENDBRANCH  15  17
ENDBRANCH   7  15
ENDBRANCH   6   7
ENDBRANCH   4   6
ENDBRANCH   3   4
ENDBRANCH   2   3
TORSDOF 11
ENDMDL
MODEL      271
REMARK 921   NORMALIZED FREE ENERGY PREDICTED BY IDOCK:   -2.82 KCAL/MOL
REMARK 922        TOTAL FREE ENERGY PREDICTED BY IDOCK:   -5.33 KCAL/MOL
REMARK 923 INTER-LIGAND FREE ENERGY PREDICTED BY IDOCK:   -4.57 KCAL/MOL
REMARK 924 INTRA-LIGAND FREE ENERGY PREDICTED BY IDOCK:   -0.76 KCAL/MOL
REMARK 927      BINDING AFFINITY PREDICTED BY RF-SCORE:    0.00 PKD
ROOT
HETATM    1  C   UNL     1     -10.107   5.038  70.881  1.00  0.00    -0.302 C  
HETATM    2  C   UNL     1     -10.862   6.351  70.773  1.00  0.00    -0.267 C  
ENDROOT
BRANCH   2   3
HETATM    3  O   UNL     1     -10.596   7.101  71.963  1.00  0.00    -0.207 OA 
BRANCH   3   4
HETATM    4  C   UNL     1     -10.247   8.400  71.783  1.00  0.00    -0.253 C  
HETATM    5  O   UNL     1      -9.212   8.929  72.166  1.00  0.00    -0.364 OA 
BRANCH   4   6
HETATM    6  C   UNL     1     -11.230   9.064  70.863  1.00  0.00    -0.348 C  
BRANCH   6   7
HETATM    7  C   UNL     1     -10.526   9.983  69.875  1.00  0.00    -0.274 C  
BRANCH   7   8
HETATM    8  S   UNL     1     -10.427   9.285  68.173  1.00  0.00    -0.197 SA 
BRANCH   8   9
HETATM    9  P   UNL     1      -8.412   9.410  67.527  1.00  0.00    -0.122 P  
HETATM   10  S   UNL     1      -8.445   7.562  66.686  1.00  0.00    -0.136 S  
BRANCH   9  11
HETATM   11  O   UNL     1      -8.754  10.607  66.431  1.00  0.00    -0.141 OA 
HETATM   12  C   UNL     1      -9.747  10.464  65.424  1.00  0.00    -0.265 C  
ENDBRANCH   9  11
BRANCH   9  13
HETATM   13  O   UNL     1      -6.767   9.511  67.001  1.00  0.00    -0.070 OA 
HETATM   14  C   UNL     1      -5.909  10.261  67.839  1.00  0.00    -0.041 C  
ENDBRANCH   9  13
ENDBRANCH   8   9
ENDBRANCH   7   8
BRANCH   7  15
HETATM   15  C   UNL     1     -11.318  11.279  69.759  1.00  0.00    -0.271 C  
HETATM   16  O   UNL     1     -12.287  11.569  70.448  1.00  0.00    -0.325 OA 
BRANCH  15  17
HETATM   17  O   UNL     1     -10.854  12.017  68.711  1.00  0.00    -0.219 OA 
BRANCH  17  18
HETATM   18  C   UNL     1     -11.739  13.050  68.260  1.00  0.00    -0.353 C  
HETATM   19  C   UNL     1     -11.975  12.845  66.775  1.00  0.00    -0.418 C  
ENDBRANCH  17  18
ENDBRANCH  15  17
ENDBRANCH   7  15
ENDBRANCH   6   7
ENDBRANCH   4   6
ENDBRANCH   3   4
ENDBRANCH   2   3
TORSDOF 11
ENDMDL
MODEL      272
REMARK 921   NORMALIZED FREE ENERGY PREDICTED BY IDOCK:   -2.82 KCAL/MOL
REMARK 922        TOTAL FREE ENERGY PREDICTED BY IDOCK:   -5.32 KCAL/MOL
REMARK 923 INTER-LIGAND FREE ENERGY PREDICTED BY IDOCK:   -4.66 KCAL/MOL
REMARK 924 INTRA-LIGAND FREE ENERGY PREDICTED BY IDOCK:   -0.66 KCAL/MOL
REMARK 927      BINDING AFFINITY PREDICTED BY RF-SCORE:    0.00 PKD
ROOT
HETATM    1  C   UNL     1     -11.930  12.900  63.795  1.00  0.00    -0.582 C  
HETATM    2  C   UNL     1     -12.822  14.014  64.314  1.00  0.00     0.282 C  
ENDROOT
BRANCH   2   3
HETATM    3  O   UNL     1     -12.082  14.730  65.310  1.00  0.00    -0.301 OA 
BRANCH   3   4
HETATM    4  C   UNL     1     -11.127  15.576  64.850  1.00  0.00    -0.416 C  
HETATM    5  O   UNL     1     -11.314  16.566  64.152  1.00  0.00    -1.060 OA 
BRANCH   4   6
HETATM    6  C   UNL     1      -9.807  15.242  65.482  1.00  0.00    -0.362 C  
BRANCH   6   7
HETATM    7  C   UNL     1      -9.803  15.587  66.965  1.00  0.00    -0.232 C  
BRANCH   7   8
HETATM    8  S   UNL     1      -9.814  14.104  68.058  1.00  0.00    -0.228 SA 
BRANCH   8   9
HETATM    9  P   UNL     1      -8.938  12.495  66.991  1.00  0.00    -0.199 P  
HETATM   10  S   UNL     1      -7.740  11.966  68.543  1.00  0.00    -0.121 S  
BRANCH   9  11
HETATM   11  O   UNL     1     -10.355  11.634  66.968  1.00  0.00    -0.208 OA 
HETATM   12  C   UNL     1     -10.517  10.443  66.210  1.00  0.00    -0.159 C  
ENDBRANCH   9  11
BRANCH   9  13
HETATM   13  O   UNL     1      -8.222  11.182  66.121  1.00  0.00    -0.169 OA 
HETATM   14  C   UNL     1      -6.983  10.726  66.627  1.00  0.00    -0.129 C  
ENDBRANCH   9  13
ENDBRANCH   8   9
ENDBRANCH   7   8
BRANCH   7  15
HETATM   15  C   UNL     1      -8.523  16.347  67.288  1.00  0.00    -0.175 C  
HETATM   16  O   UNL     1      -8.282  17.491  66.930  1.00  0.00    -0.209 OA 
BRANCH  15  17
HETATM   17  O   UNL     1      -7.650  15.531  67.944  1.00  0.00    -0.119 OA 
BRANCH  17  18
HETATM   18  C   UNL     1      -6.784  16.194  68.873  1.00  0.00    -0.147 C  
HETATM   19  C   UNL     1      -6.595  15.277  70.068  1.00  0.00    -0.125 C  
ENDBRANCH  17  18
ENDBRANCH  15  17
ENDBRANCH   7  15
ENDBRANCH   6   7
ENDBRANCH   4   6
ENDBRANCH   3   4
ENDBRANCH   2   3
TORSDOF 11
ENDMDL
MODEL      273
REMARK 921   NORMALIZED FREE ENERGY PREDICTED BY IDOCK:   -2.82 KCAL/MOL
REMARK 922        TOTAL FREE ENERGY PREDICTED BY IDOCK:   -5.32 KCAL/MOL
REMARK 923 INTER-LIGAND FREE ENERGY PREDICTED BY IDOCK:   -4.86 KCAL/MOL
REMARK 924 INTRA-LIGAND FREE ENERGY PREDICTED BY IDOCK:   -0.46 KCAL/MOL
REMARK 927      BINDING AFFINITY PREDICTED BY RF-SCORE:    0.00 PKD
ROOT
HETATM    1  C   UNL     1      -8.639  13.536  67.794  1.00  0.00    -0.183 C  
HETATM    2  C   UNL     1      -7.789  12.322  67.464  1.00  0.00    -0.166 C  
ENDROOT
BRANCH   2   3
HETATM    3  O   UNL     1      -7.994  11.356  68.502  1.00  0.00    -0.130 OA 
BRANCH   3   4
HETATM    4  C   UNL     1      -8.079  10.063  68.103  1.00  0.00    -0.108 C  
HETATM    5  O   UNL     1      -7.444   9.122  68.563  1.00  0.00    -0.080 OA 
BRANCH   4   6
HETATM    6  C   UNL     1      -9.219   9.905  67.139  1.00  0.00    -0.158 C  
BRANCH   6   7
HETATM    7  C   UNL     1     -10.543   9.745  67.873  1.00  0.00    -0.259 C  
BRANCH   7   8
HETATM    8  S   UNL     1     -10.356   9.654  69.703  1.00  0.00    -0.245 SA 
BRANCH   8   9
HETATM    9  P   UNL     1     -11.109   7.780  70.348  1.00  0.00    -0.183 P  
HETATM   10  S   UNL     1     -10.657   6.864  68.593  1.00  0.00    -0.218 S  
BRANCH   9  11
HETATM   11  O   UNL     1      -9.910   7.598  71.480  1.00  0.00    -0.166 OA 
HETATM   12  C   UNL     1      -9.314   8.701  72.150  1.00  0.00    -0.273 C  
ENDBRANCH   9  11
BRANCH   9  13
HETATM   13  O   UNL     1     -11.723   6.251  70.874  1.00  0.00    -0.333 OA 
HETATM   14  C   UNL     1     -11.905   6.120  72.270  1.00  0.00    -0.275 C  
ENDBRANCH   9  13
ENDBRANCH   8   9
ENDBRANCH   7   8
BRANCH   7  15
HETATM   15  C   UNL     1     -11.410  10.965  67.592  1.00  0.00    -0.270 C  
HETATM   16  O   UNL     1     -12.285  11.385  68.336  1.00  0.00    -0.571 OA 
BRANCH  15  17
HETATM   17  O   UNL     1     -11.138  11.454  66.348  1.00  0.00    -0.295 OA 
BRANCH  17  18
HETATM   18  C   UNL     1     -11.860  12.639  65.993  1.00  0.00    -0.436 C  
HETATM   19  C   UNL     1     -12.387  12.458  64.581  1.00  0.00    -0.518 C  
ENDBRANCH  17  18
ENDBRANCH  15  17
ENDBRANCH   7  15
ENDBRANCH   6   7
ENDBRANCH   4   6
ENDBRANCH   3   4
ENDBRANCH   2   3
TORSDOF 11
ENDMDL
MODEL      274
REMARK 921   NORMALIZED FREE ENERGY PREDICTED BY IDOCK:   -2.81 KCAL/MOL
REMARK 922        TOTAL FREE ENERGY PREDICTED BY IDOCK:   -5.31 KCAL/MOL
REMARK 923 INTER-LIGAND FREE ENERGY PREDICTED BY IDOCK:   -4.58 KCAL/MOL
REMARK 924 INTRA-LIGAND FREE ENERGY PREDICTED BY IDOCK:   -0.73 KCAL/MOL
REMARK 927      BINDING AFFINITY PREDICTED BY RF-SCORE:    0.00 PKD
ROOT
HETATM    1  C   UNL     1     -10.309   4.256  64.831  1.00  0.00    -0.186 C  
HETATM    2  C   UNL     1     -10.070   4.522  66.307  1.00  0.00    -0.254 C  
ENDROOT
BRANCH   2   3
HETATM    3  O   UNL     1     -10.783   5.715  66.651  1.00  0.00    -0.293 OA 
BRANCH   3   4
HETATM    4  C   UNL     1     -10.025   6.810  66.907  1.00  0.00    -0.191 C  
HETATM    5  O   UNL     1      -8.914   7.043  66.445  1.00  0.00    -0.145 OA 
BRANCH   4   6
HETATM    6  C   UNL     1     -10.825   7.809  67.691  1.00  0.00    -0.149 C  
BRANCH   6   7
HETATM    7  C   UNL     1      -9.925   8.858  68.329  1.00  0.00    -0.175 C  
BRANCH   7   8
HETATM    8  S   UNL     1     -10.386  10.584  67.880  1.00  0.00    -0.207 SA 
BRANCH   8   9
HETATM    9  P   UNL     1     -10.404  10.730  65.766  1.00  0.00    -0.156 P  
HETATM   10  S   UNL     1     -11.615  12.361  65.773  1.00  0.00    -0.404 S  
BRANCH   9  11
HETATM   11  O   UNL     1      -8.798  11.139  65.700  1.00  0.00    -0.196 OA 
HETATM   12  C   UNL     1      -7.780  10.201  65.379  1.00  0.00    -0.143 C  
ENDBRANCH   9  11
BRANCH   9  13
HETATM   13  O   UNL     1     -10.420  10.850  64.040  1.00  0.00    -0.364 OA 
HETATM   14  C   UNL     1     -11.017  12.022  63.521  1.00  0.00    -0.444 C  
ENDBRANCH   9  13
ENDBRANCH   8   9
ENDBRANCH   7   8
BRANCH   7  15
HETATM   15  C   UNL     1     -10.056   8.760  69.843  1.00  0.00    -0.191 C  
HETATM   16  O   UNL     1      -9.302   9.295  70.645  1.00  0.00    -0.236 OA 
BRANCH  15  17
HETATM   17  O   UNL     1     -11.070   7.909  70.170  1.00  0.00    -0.255 OA 
BRANCH  17  18
HETATM   18  C   UNL     1     -11.763   8.232  71.382  1.00  0.00    -0.287 C  
HETATM   19  C   UNL     1     -11.523   7.104  72.369  1.00  0.00    -0.303 C  
ENDBRANCH  17  18
ENDBRANCH  15  17
ENDBRANCH   7  15
ENDBRANCH   6   7
ENDBRANCH   4   6
ENDBRANCH   3   4
ENDBRANCH   2   3
TORSDOF 11
ENDMDL
MODEL      275
REMARK 921   NORMALIZED FREE ENERGY PREDICTED BY IDOCK:   -2.80 KCAL/MOL
REMARK 922        TOTAL FREE ENERGY PREDICTED BY IDOCK:   -5.29 KCAL/MOL
REMARK 923 INTER-LIGAND FREE ENERGY PREDICTED BY IDOCK:   -4.65 KCAL/MOL
REMARK 924 INTRA-LIGAND FREE ENERGY PREDICTED BY IDOCK:   -0.64 KCAL/MOL
REMARK 927      BINDING AFFINITY PREDICTED BY RF-SCORE:    0.00 PKD
ROOT
HETATM    1  C   UNL     1     -10.826   6.038  70.282  1.00  0.00    -0.398 C  
HETATM    2  C   UNL     1     -11.070   7.437  70.819  1.00  0.00    -0.265 C  
ENDROOT
BRANCH   2   3
HETATM    3  O   UNL     1     -11.028   8.339  69.707  1.00  0.00    -0.224 OA 
BRANCH   3   4
HETATM    4  C   UNL     1     -10.189   9.398  69.831  1.00  0.00    -0.222 C  
HETATM    5  O   UNL     1      -9.138   9.417  70.461  1.00  0.00    -0.236 OA 
BRANCH   4   6
HETATM    6  C   UNL     1     -10.630  10.502  68.915  1.00  0.00    -0.243 C  
BRANCH   6   7
HETATM    7  C   UNL     1      -9.642  10.700  67.774  1.00  0.00    -0.157 C  
BRANCH   7   8
HETATM    8  S   UNL     1      -9.546   9.254  66.636  1.00  0.00    -0.224 SA 
BRANCH   8   9
HETATM    9  P   UNL     1      -8.729   9.920  64.796  1.00  0.00    -0.225 P  
HETATM   10  S   UNL     1      -6.914  10.323  65.614  1.00  0.00    -0.134 S  
BRANCH   9  11
HETATM   11  O   UNL     1      -8.796   8.405  64.126  1.00  0.00     0.105 OA 
HETATM   12  C   UNL     1      -7.642   7.595  63.946  1.00  0.00    -0.118 C  
ENDBRANCH   9  11
BRANCH   9  13
HETATM   13  O   UNL     1      -8.063  10.464  63.296  1.00  0.00    -0.160 OA 
HETATM   14  C   UNL     1      -9.008  10.887  62.332  1.00  0.00    -0.309 C  
ENDBRANCH   9  13
ENDBRANCH   8   9
ENDBRANCH   7   8
BRANCH   7  15
HETATM   15  C   UNL     1     -10.100  11.880  66.928  1.00  0.00    -0.207 C  
HETATM   16  O   UNL     1      -9.412  12.856  66.660  1.00  0.00    -0.244 OA 
BRANCH  15  17
HETATM   17  O   UNL     1     -11.417  11.738  66.602  1.00  0.00    -0.399 OA 
BRANCH  17  18
HETATM   18  C   UNL     1     -12.017  12.888  65.994  1.00  0.00    -0.446 C  
HETATM   19  C   UNL     1     -12.400  12.516  64.573  1.00  0.00    -0.545 C  
ENDBRANCH  17  18
ENDBRANCH  15  17
ENDBRANCH   7  15
ENDBRANCH   6   7
ENDBRANCH   4   6
ENDBRANCH   3   4
ENDBRANCH   2   3
TORSDOF 11
ENDMDL
MODEL      276
REMARK 921   NORMALIZED FREE ENERGY PREDICTED BY IDOCK:   -2.79 KCAL/MOL
REMARK 922        TOTAL FREE ENERGY PREDICTED BY IDOCK:   -5.29 KCAL/MOL
REMARK 923 INTER-LIGAND FREE ENERGY PREDICTED BY IDOCK:   -4.62 KCAL/MOL
REMARK 924 INTRA-LIGAND FREE ENERGY PREDICTED BY IDOCK:   -0.66 KCAL/MOL
REMARK 927      BINDING AFFINITY PREDICTED BY RF-SCORE:    0.00 PKD
ROOT
HETATM    1  C   UNL     1     -12.292  15.379  70.250  1.00  0.00    -0.425 C  
HETATM    2  C   UNL     1     -11.816  14.698  68.979  1.00  0.00    -0.310 C  
ENDROOT
BRANCH   2   3
HETATM    3  O   UNL     1     -11.367  13.385  69.335  1.00  0.00    -0.260 OA 
BRANCH   3   4
HETATM    4  C   UNL     1     -11.439  12.446  68.359  1.00  0.00    -0.310 C  
HETATM    5  O   UNL     1     -12.193  12.464  67.394  1.00  0.00    -0.459 OA 
BRANCH   4   6
HETATM    6  C   UNL     1     -10.314  11.465  68.517  1.00  0.00    -0.219 C  
BRANCH   6   7
HETATM    7  C   UNL     1     -10.832  10.034  68.560  1.00  0.00    -0.231 C  
BRANCH   7   8
HETATM    8  S   UNL     1     -10.225   8.997  67.164  1.00  0.00    -0.275 SA 
BRANCH   8   9
HETATM    9  P   UNL     1      -8.206   9.522  66.785  1.00  0.00    -0.112 P  
HETATM   10  S   UNL     1      -7.587   7.588  66.760  1.00  0.00    -0.103 S  
BRANCH   9  11
HETATM   11  O   UNL     1      -8.555  10.091  65.267  1.00  0.00    -0.139 OA 
HETATM   12  C   UNL     1      -9.879  10.394  64.847  1.00  0.00    -0.334 C  
ENDBRANCH   9  11
BRANCH   9  13
HETATM   13  O   UNL     1      -6.559   9.950  66.476  1.00  0.00    -0.069 OA 
HETATM   14  C   UNL     1      -6.262  11.328  66.584  1.00  0.00    -0.141 C  
ENDBRANCH   9  13
ENDBRANCH   8   9
ENDBRANCH   7   8
BRANCH   7  15
HETATM   15  C   UNL     1     -10.332   9.369  69.836  1.00  0.00    -0.227 C  
HETATM   16  O   UNL     1      -9.362   9.741  70.483  1.00  0.00    -0.219 OA 
BRANCH  15  17
HETATM   17  O   UNL     1     -11.057   8.242  70.089  1.00  0.00    -0.252 OA 
BRANCH  17  18
HETATM   18  C   UNL     1     -10.355   7.221  70.808  1.00  0.00    -0.202 C  
HETATM   19  C   UNL     1     -11.234   5.984  70.835  1.00  0.00    -0.335 C  
ENDBRANCH  17  18
ENDBRANCH  15  17
ENDBRANCH   7  15
ENDBRANCH   6   7
ENDBRANCH   4   6
ENDBRANCH   3   4
ENDBRANCH   2   3
TORSDOF 11
ENDMDL
MODEL      277
REMARK 921   NORMALIZED FREE ENERGY PREDICTED BY IDOCK:   -2.79 KCAL/MOL
REMARK 922        TOTAL FREE ENERGY PREDICTED BY IDOCK:   -5.28 KCAL/MOL
REMARK 923 INTER-LIGAND FREE ENERGY PREDICTED BY IDOCK:   -4.81 KCAL/MOL
REMARK 924 INTRA-LIGAND FREE ENERGY PREDICTED BY IDOCK:   -0.47 KCAL/MOL
REMARK 927      BINDING AFFINITY PREDICTED BY RF-SCORE:    0.00 PKD
ROOT
HETATM    1  C   UNL     1      -8.705   5.224  69.246  1.00  0.00    -0.108 C  
HETATM    2  C   UNL     1      -8.436   6.718  69.261  1.00  0.00    -0.129 C  
ENDROOT
BRANCH   2   3
HETATM    3  O   UNL     1      -9.134   7.292  68.149  1.00  0.00    -0.135 OA 
BRANCH   3   4
HETATM    4  C   UNL     1      -8.417   8.142  67.371  1.00  0.00    -0.126 C  
HETATM    5  O   UNL     1      -7.267   8.511  67.575  1.00  0.00    -0.082 OA 
BRANCH   4   6
HETATM    6  C   UNL     1      -9.167   8.419  66.101  1.00  0.00    -0.263 C  
BRANCH   6   7
HETATM    7  C   UNL     1     -10.022   9.673  66.227  1.00  0.00    -0.264 C  
BRANCH   7   8
HETATM    8  S   UNL     1      -9.613  10.686  67.710  1.00  0.00    -0.159 SA 
BRANCH   8   9
HETATM    9  P   UNL     1     -11.327  10.749  68.956  1.00  0.00    -0.301 P  
HETATM   10  S   UNL     1     -10.421   9.715  70.451  1.00  0.00    -0.310 S  
BRANCH   9  11
HETATM   11  O   UNL     1     -11.213  12.390  69.166  1.00  0.00    -0.245 OA 
HETATM   12  C   UNL     1     -10.457  13.224  68.299  1.00  0.00    -0.250 C  
ENDBRANCH   9  11
BRANCH   9  13
HETATM   13  O   UNL     1     -12.726  10.799  69.973  1.00  0.00    -0.283 OA 
HETATM   14  C   UNL     1     -12.538  10.305  71.284  1.00  0.00    -0.418 C  
ENDBRANCH   9  13
ENDBRANCH   8   9
ENDBRANCH   7   8
BRANCH   7  15
HETATM   15  C   UNL     1      -9.768  10.563  65.018  1.00  0.00    -0.292 C  
HETATM   16  O   UNL     1      -8.667  10.782  64.531  1.00  0.00    -0.168 OA 
BRANCH  15  17
HETATM   17  O   UNL     1     -10.930  11.159  64.626  1.00  0.00    -0.281 OA 
BRANCH  17  18
HETATM   18  C   UNL     1     -10.795  12.514  64.181  1.00  0.00    -0.382 C  
HETATM   19  C   UNL     1     -12.012  12.852  63.339  1.00  0.00    -0.612 C  
ENDBRANCH  17  18
ENDBRANCH  15  17
ENDBRANCH   7  15
ENDBRANCH   6   7
ENDBRANCH   4   6
ENDBRANCH   3   4
ENDBRANCH   2   3
TORSDOF 11
ENDMDL
MODEL      278
REMARK 921   NORMALIZED FREE ENERGY PREDICTED BY IDOCK:   -2.77 KCAL/MOL
REMARK 922        TOTAL FREE ENERGY PREDICTED BY IDOCK:   -5.24 KCAL/MOL
REMARK 923 INTER-LIGAND FREE ENERGY PREDICTED BY IDOCK:   -4.37 KCAL/MOL
REMARK 924 INTRA-LIGAND FREE ENERGY PREDICTED BY IDOCK:   -0.87 KCAL/MOL
REMARK 927      BINDING AFFINITY PREDICTED BY RF-SCORE:    0.00 PKD
ROOT
HETATM    1  C   UNL     1      -5.663  10.237  70.330  1.00  0.00    -0.078 C  
HETATM    2  C   UNL     1      -7.008  10.648  69.760  1.00  0.00    -0.145 C  
ENDROOT
BRANCH   2   3
HETATM    3  O   UNL     1      -8.023  10.046  70.572  1.00  0.00    -0.224 OA 
BRANCH   3   4
HETATM    4  C   UNL     1      -9.123   9.599  69.916  1.00  0.00    -0.225 C  
HETATM    5  O   UNL     1     -10.271   9.996  70.077  1.00  0.00    -0.249 OA 
BRANCH   4   6
HETATM    6  C   UNL     1      -8.710   8.675  68.807  1.00  0.00    -0.135 C  
BRANCH   6   7
HETATM    7  C   UNL     1      -9.771   8.613  67.717  1.00  0.00    -0.165 C  
BRANCH   7   8
HETATM    8  S   UNL     1      -9.109   8.964  66.034  1.00  0.00    -0.229 SA 
BRANCH   8   9
HETATM    9  P   UNL     1     -10.236  10.556  65.204  1.00  0.00    -0.153 P  
HETATM   10  S   UNL     1      -9.356  11.951  66.388  1.00  0.00    -0.226 S  
BRANCH   9  11
HETATM   11  O   UNL     1      -9.491  10.421  63.729  1.00  0.00    -0.262 OA 
HETATM   12  C   UNL     1      -8.724   9.283  63.358  1.00  0.00    -0.177 C  
ENDBRANCH   9  11
BRANCH   9  13
HETATM   13  O   UNL     1     -11.157  11.855  64.527  1.00  0.00    -0.304 OA 
HETATM   14  C   UNL     1     -10.816  13.145  64.995  1.00  0.00    -0.315 C  
ENDBRANCH   9  13
ENDBRANCH   8   9
ENDBRANCH   7   8
BRANCH   7  15
HETATM   15  C   UNL     1     -10.340   7.201  67.666  1.00  0.00    -0.215 C  
HETATM   16  O   UNL     1     -11.217   6.829  66.899  1.00  0.00    -0.375 OA 
BRANCH  15  17
HETATM   17  O   UNL     1      -9.803   6.446  68.667  1.00  0.00    -0.138 OA 
BRANCH  17  18
HETATM   18  C   UNL     1     -10.742   5.633  69.381  1.00  0.00    -0.295 C  
HETATM   19  C   UNL     1     -11.412   6.505  70.427  1.00  0.00    -0.465 C  
ENDBRANCH  17  18
ENDBRANCH  15  17
ENDBRANCH   7  15
ENDBRANCH   6   7
ENDBRANCH   4   6
ENDBRANCH   3   4
ENDBRANCH   2   3
TORSDOF 11
ENDMDL
MODEL      279
REMARK 921   NORMALIZED FREE ENERGY PREDICTED BY IDOCK:   -2.76 KCAL/MOL
REMARK 922        TOTAL FREE ENERGY PREDICTED BY IDOCK:   -5.23 KCAL/MOL
REMARK 923 INTER-LIGAND FREE ENERGY PREDICTED BY IDOCK:   -4.31 KCAL/MOL
REMARK 924 INTRA-LIGAND FREE ENERGY PREDICTED BY IDOCK:   -0.92 KCAL/MOL
REMARK 927      BINDING AFFINITY PREDICTED BY RF-SCORE:    0.00 PKD
ROOT
HETATM    1  C   UNL     1      -6.474   9.039  69.480  1.00  0.00    -0.043 C  
HETATM    2  C   UNL     1      -7.536  10.008  69.970  1.00  0.00    -0.172 C  
ENDROOT
BRANCH   2   3
HETATM    3  O   UNL     1      -8.156   9.422  71.121  1.00  0.00    -0.322 OA 
BRANCH   3   4
HETATM    4  C   UNL     1      -9.451   9.049  70.974  1.00  0.00    -0.274 C  
HETATM    5  O   UNL     1     -10.268   9.557  70.216  1.00  0.00    -0.224 OA 
BRANCH   4   6
HETATM    6  C   UNL     1      -9.701   7.780  71.737  1.00  0.00    -0.206 C  
BRANCH   6   7
HETATM    7  C   UNL     1     -10.535   6.802  70.922  1.00  0.00    -0.213 C  
BRANCH   7   8
HETATM    8  S   UNL     1      -9.786   5.123  70.809  1.00  0.00    -0.204 SA 
BRANCH   8   9
HETATM    9  P   UNL     1      -9.720   4.569  68.764  1.00  0.00    -0.061 P  
HETATM   10  S   UNL     1      -8.594   6.177  68.244  1.00  0.00    -0.115 S  
BRANCH   9  11
HETATM   11  O   UNL     1      -8.797   3.227  69.074  1.00  0.00    -0.085 OA 
HETATM   12  C   UNL     1      -9.146   1.931  68.609  1.00  0.00    -0.146 C  
ENDBRANCH   9  11
BRANCH   9  13
HETATM   13  O   UNL     1      -9.667   4.118  67.094  1.00  0.00    -0.202 OA 
HETATM   14  C   UNL     1     -10.446   4.918  66.227  1.00  0.00    -0.304 C  
ENDBRANCH   9  13
ENDBRANCH   8   9
ENDBRANCH   7   8
BRANCH   7  15
HETATM   15  C   UNL     1     -11.886   6.622  71.602  1.00  0.00    -0.336 C  
HETATM   16  O   UNL     1     -12.088   5.904  72.572  1.00  0.00    -0.241 OA 
BRANCH  15  17
HETATM   17  O   UNL     1     -12.850   7.295  70.911  1.00  0.00    -0.259 OA 
BRANCH  17  18
HETATM   18  C   UNL     1     -13.804   7.988  71.724  1.00  0.00    -0.386 C  
HETATM   19  C   UNL     1     -13.149   9.261  72.227  1.00  0.00    -0.517 C  
ENDBRANCH  17  18
ENDBRANCH  15  17
ENDBRANCH   7  15
ENDBRANCH   6   7
ENDBRANCH   4   6
ENDBRANCH   3   4
ENDBRANCH   2   3
TORSDOF 11
ENDMDL
MODEL      280
REMARK 921   NORMALIZED FREE ENERGY PREDICTED BY IDOCK:   -2.76 KCAL/MOL
REMARK 922        TOTAL FREE ENERGY PREDICTED BY IDOCK:   -5.23 KCAL/MOL
REMARK 923 INTER-LIGAND FREE ENERGY PREDICTED BY IDOCK:   -4.47 KCAL/MOL
REMARK 924 INTRA-LIGAND FREE ENERGY PREDICTED BY IDOCK:   -0.77 KCAL/MOL
REMARK 927      BINDING AFFINITY PREDICTED BY RF-SCORE:    0.00 PKD
ROOT
HETATM    1  C   UNL     1     -12.833  10.957  71.121  1.00  0.00    -0.508 C  
HETATM    2  C   UNL     1     -12.596   9.577  71.709  1.00  0.00    -0.405 C  
ENDROOT
BRANCH   2   3
HETATM    3  O   UNL     1     -11.179   9.384  71.798  1.00  0.00    -0.376 OA 
BRANCH   3   4
HETATM    4  C   UNL     1     -10.771   8.182  72.273  1.00  0.00    -0.313 C  
HETATM    5  O   UNL     1     -11.206   7.612  73.267  1.00  0.00    -0.358 OA 
BRANCH   4   6
HETATM    6  C   UNL     1      -9.835   7.540  71.290  1.00  0.00    -0.188 C  
BRANCH   6   7
HETATM    7  C   UNL     1     -10.600   6.894  70.143  1.00  0.00    -0.220 C  
BRANCH   7   8
HETATM    8  S   UNL     1     -10.202   7.625  68.499  1.00  0.00    -0.200 SA 
BRANCH   8   9
HETATM    9  P   UNL     1      -8.925   9.288  68.811  1.00  0.00    -0.134 P  
HETATM   10  S   UNL     1      -7.271   8.278  68.203  1.00  0.00    -0.096 S  
BRANCH   9  11
HETATM   11  O   UNL     1      -9.621  10.155  67.581  1.00  0.00    -0.147 OA 
HETATM   12  C   UNL     1     -10.989  10.541  67.593  1.00  0.00    -0.314 C  
ENDBRANCH   9  11
BRANCH   9  13
HETATM   13  O   UNL     1      -7.882  10.644  69.066  1.00  0.00    -0.117 OA 
HETATM   14  C   UNL     1      -7.374  11.245  67.891  1.00  0.00    -0.092 C  
ENDBRANCH   9  13
ENDBRANCH   8   9
ENDBRANCH   7   8
BRANCH   7  15
HETATM   15  C   UNL     1     -10.211   5.424  70.062  1.00  0.00    -0.279 C  
HETATM   16  O   UNL     1      -9.964   4.823  69.024  1.00  0.00    -0.180 OA 
BRANCH  15  17
HETATM   17  O   UNL     1     -10.281   4.854  71.299  1.00  0.00    -0.198 OA 
BRANCH  17  18
HETATM   18  C   UNL     1      -9.273   3.873  71.570  1.00  0.00    -0.125 C  
HETATM   19  C   UNL     1      -9.972   2.581  71.952  1.00  0.00    -0.218 C  
ENDBRANCH  17  18
ENDBRANCH  15  17
ENDBRANCH   7  15
ENDBRANCH   6   7
ENDBRANCH   4   6
ENDBRANCH   3   4
ENDBRANCH   2   3
TORSDOF 11
ENDMDL
MODEL      281
REMARK 921   NORMALIZED FREE ENERGY PREDICTED BY IDOCK:   -2.76 KCAL/MOL
REMARK 922        TOTAL FREE ENERGY PREDICTED BY IDOCK:   -5.23 KCAL/MOL
REMARK 923 INTER-LIGAND FREE ENERGY PREDICTED BY IDOCK:   -4.47 KCAL/MOL
REMARK 924 INTRA-LIGAND FREE ENERGY PREDICTED BY IDOCK:   -0.76 KCAL/MOL
REMARK 927      BINDING AFFINITY PREDICTED BY RF-SCORE:    0.00 PKD
ROOT
HETATM    1  C   UNL     1      -9.451   7.727  73.423  1.00  0.00    -0.349 C  
HETATM    2  C   UNL     1     -10.718   7.540  72.607  1.00  0.00    -0.303 C  
ENDROOT
BRANCH   2   3
HETATM    3  O   UNL     1     -11.307   8.833  72.422  1.00  0.00    -0.338 OA 
BRANCH   3   4
HETATM    4  C   UNL     1     -11.643   9.158  71.149  1.00  0.00    -0.317 C  
HETATM    5  O   UNL     1     -12.340  10.104  70.805  1.00  0.00    -0.299 OA 
BRANCH   4   6
HETATM    6  C   UNL     1     -10.871   8.301  70.188  1.00  0.00    -0.237 C  
BRANCH   6   7
HETATM    7  C   UNL     1     -10.477   9.085  68.944  1.00  0.00    -0.210 C  
BRANCH   7   8
HETATM    8  S   UNL     1      -9.017  10.179  69.204  1.00  0.00    -0.184 SA 
BRANCH   8   9
HETATM    9  P   UNL     1      -9.159  11.798  67.843  1.00  0.00    -0.193 P  
HETATM   10  S   UNL     1      -7.884  10.944  66.513  1.00  0.00    -0.155 S  
BRANCH   9  11
HETATM   11  O   UNL     1     -10.747  11.470  67.493  1.00  0.00    -0.203 OA 
HETATM   12  C   UNL     1     -11.451  12.118  66.443  1.00  0.00    -0.370 C  
ENDBRANCH   9  11
BRANCH   9  13
HETATM   13  O   UNL     1      -9.274  13.120  66.733  1.00  0.00    -0.233 OA 
HETATM   14  C   UNL     1      -8.690  14.331  67.172  1.00  0.00    -0.227 C  
ENDBRANCH   9  13
ENDBRANCH   8   9
ENDBRANCH   7   8
BRANCH   7  15
HETATM   15  C   UNL     1     -10.086   8.103  67.848  1.00  0.00    -0.196 C  
HETATM   16  O   UNL     1     -10.801   7.786  66.907  1.00  0.00    -0.311 OA 
BRANCH  15  17
HETATM   17  O   UNL     1      -8.869   7.554  68.127  1.00  0.00    -0.128 OA 
BRANCH  17  18
HETATM   18  C   UNL     1      -8.141   7.087  66.985  1.00  0.00    -0.117 C  
HETATM   19  C   UNL     1      -7.976   5.584  67.121  1.00  0.00    -0.102 C  
ENDBRANCH  17  18
ENDBRANCH  15  17
ENDBRANCH   7  15
ENDBRANCH   6   7
ENDBRANCH   4   6
ENDBRANCH   3   4
ENDBRANCH   2   3
TORSDOF 11
ENDMDL
MODEL      282
REMARK 921   NORMALIZED FREE ENERGY PREDICTED BY IDOCK:   -2.76 KCAL/MOL
REMARK 922        TOTAL FREE ENERGY PREDICTED BY IDOCK:   -5.23 KCAL/MOL
REMARK 923 INTER-LIGAND FREE ENERGY PREDICTED BY IDOCK:   -4.79 KCAL/MOL
REMARK 924 INTRA-LIGAND FREE ENERGY PREDICTED BY IDOCK:   -0.44 KCAL/MOL
REMARK 927      BINDING AFFINITY PREDICTED BY RF-SCORE:    0.00 PKD
ROOT
HETATM    1  C   UNL     1      -5.380   9.806  71.745  1.00  0.00    -0.065 C  
HETATM    2  C   UNL     1      -6.448   8.892  71.170  1.00  0.00    -0.066 C  
ENDROOT
BRANCH   2   3
HETATM    3  O   UNL     1      -7.709   9.313  71.703  1.00  0.00    -0.336 OA 
BRANCH   3   4
HETATM    4  C   UNL     1      -8.687   8.375  71.730  1.00  0.00    -0.180 C  
HETATM    5  O   UNL     1      -8.526   7.168  71.864  1.00  0.00    -0.109 OA 
BRANCH   4   6
HETATM    6  C   UNL     1     -10.030   9.044  71.770  1.00  0.00    -0.359 C  
BRANCH   6   7
HETATM    7  C   UNL     1     -10.747   8.924  70.433  1.00  0.00    -0.227 C  
BRANCH   7   8
HETATM    8  S   UNL     1      -9.742   9.524  69.010  1.00  0.00    -0.177 SA 
BRANCH   8   9
HETATM    9  P   UNL     1     -10.972  10.772  67.817  1.00  0.00    -0.316 P  
HETATM   10  S   UNL     1      -9.912  12.444  68.269  1.00  0.00    -0.215 S  
BRANCH   9  11
HETATM   11  O   UNL     1     -10.460  10.063  66.407  1.00  0.00    -0.203 OA 
HETATM   12  C   UNL     1      -9.456  10.637  65.581  1.00  0.00    -0.212 C  
ENDBRANCH   9  11
BRANCH   9  13
HETATM   13  O   UNL     1     -11.976  11.791  66.844  1.00  0.00    -0.605 OA 
HETATM   14  C   UNL     1     -11.763  13.179  67.004  1.00  0.00    -0.377 C  
ENDBRANCH   9  13
ENDBRANCH   8   9
ENDBRANCH   7   8
BRANCH   7  15
HETATM   15  C   UNL     1     -11.035   7.453  70.162  1.00  0.00    -0.255 C  
HETATM   16  O   UNL     1     -11.714   6.731  70.879  1.00  0.00    -0.332 OA 
BRANCH  15  17
HETATM   17  O   UNL     1     -10.343   7.037  69.063  1.00  0.00    -0.187 OA 
BRANCH  17  18
HETATM   18  C   UNL     1     -11.054   6.136  68.206  1.00  0.00    -0.239 C  
HETATM   19  C   UNL     1     -10.649   6.438  66.774  1.00  0.00    -0.328 C  
ENDBRANCH  17  18
ENDBRANCH  15  17
ENDBRANCH   7  15
ENDBRANCH   6   7
ENDBRANCH   4   6
ENDBRANCH   3   4
ENDBRANCH   2   3
TORSDOF 11
ENDMDL
MODEL      283
REMARK 921   NORMALIZED FREE ENERGY PREDICTED BY IDOCK:   -2.76 KCAL/MOL
REMARK 922        TOTAL FREE ENERGY PREDICTED BY IDOCK:   -5.22 KCAL/MOL
REMARK 923 INTER-LIGAND FREE ENERGY PREDICTED BY IDOCK:   -4.83 KCAL/MOL
REMARK 924 INTRA-LIGAND FREE ENERGY PREDICTED BY IDOCK:   -0.39 KCAL/MOL
REMARK 927      BINDING AFFINITY PREDICTED BY RF-SCORE:    0.00 PKD
ROOT
HETATM    1  C   UNL     1     -11.517   6.375  69.927  1.00  0.00    -0.483 C  
HETATM    2  C   UNL     1     -10.741   7.667  70.108  1.00  0.00    -0.240 C  
ENDROOT
BRANCH   2   3
HETATM    3  O   UNL     1     -10.699   8.326  68.836  1.00  0.00    -0.175 OA 
BRANCH   3   4
HETATM    4  C   UNL     1      -9.636   8.031  68.047  1.00  0.00    -0.152 C  
HETATM    5  O   UNL     1      -8.604   7.477  68.404  1.00  0.00    -0.125 OA 
BRANCH   4   6
HETATM    6  C   UNL     1      -9.981   8.304  66.612  1.00  0.00    -0.348 C  
BRANCH   6   7
HETATM    7  C   UNL     1      -9.669   9.745  66.234  1.00  0.00    -0.234 C  
BRANCH   7   8
HETATM    8  S   UNL     1     -10.835  10.962  66.978  1.00  0.00    -0.243 SA 
BRANCH   8   9
HETATM    9  P   UNL     1     -11.512  12.250  65.436  1.00  0.00    -0.326 P  
HETATM   10  S   UNL     1     -10.289  13.767  66.009  1.00  0.00    -0.316 S  
BRANCH   9  11
HETATM   11  O   UNL     1     -10.837  11.312  64.246  1.00  0.00    -0.354 OA 
HETATM   12  C   UNL     1      -9.949  11.836  63.268  1.00  0.00    -0.410 C  
ENDBRANCH   9  11
BRANCH   9  13
HETATM   13  O   UNL     1     -12.064  13.302  64.179  1.00  0.00    -0.404 OA 
HETATM   14  C   UNL     1     -12.079  14.678  64.505  1.00  0.00    -0.475 C  
ENDBRANCH   9  13
ENDBRANCH   8   9
ENDBRANCH   7   8
BRANCH   7  15
HETATM   15  C   UNL     1      -8.285  10.101  66.760  1.00  0.00    -0.122 C  
HETATM   16  O   UNL     1      -7.251   9.526  66.451  1.00  0.00    -0.087 OA 
BRANCH  15  17
HETATM   17  O   UNL     1      -8.384  11.083  67.702  1.00  0.00    -0.115 OA 
BRANCH  17  18
HETATM   18  C   UNL     1      -7.221  11.254  68.521  1.00  0.00    -0.094 C  
HETATM   19  C   UNL     1      -7.458  10.514  69.825  1.00  0.00    -0.127 C  
ENDBRANCH  17  18
ENDBRANCH  15  17
ENDBRANCH   7  15
ENDBRANCH   6   7
ENDBRANCH   4   6
ENDBRANCH   3   4
ENDBRANCH   2   3
TORSDOF 11
ENDMDL
MODEL      284
REMARK 921   NORMALIZED FREE ENERGY PREDICTED BY IDOCK:   -2.75 KCAL/MOL
REMARK 922        TOTAL FREE ENERGY PREDICTED BY IDOCK:   -5.22 KCAL/MOL
REMARK 923 INTER-LIGAND FREE ENERGY PREDICTED BY IDOCK:   -4.35 KCAL/MOL
REMARK 924 INTRA-LIGAND FREE ENERGY PREDICTED BY IDOCK:   -0.87 KCAL/MOL
REMARK 927      BINDING AFFINITY PREDICTED BY RF-SCORE:    0.00 PKD
ROOT
HETATM    1  C   UNL     1     -10.681   7.253  73.255  1.00  0.00    -0.428 C  
HETATM    2  C   UNL     1     -11.597   7.847  72.200  1.00  0.00    -0.328 C  
ENDROOT
BRANCH   2   3
HETATM    3  O   UNL     1     -10.770   8.330  71.134  1.00  0.00    -0.218 OA 
BRANCH   3   4
HETATM    4  C   UNL     1     -10.866   7.662  69.957  1.00  0.00    -0.243 C  
HETATM    5  O   UNL     1     -11.309   6.531  69.802  1.00  0.00    -0.362 OA 
BRANCH   4   6
HETATM    6  C   UNL     1     -10.531   8.587  68.823  1.00  0.00    -0.208 C  
BRANCH   6   7
HETATM    7  C   UNL     1     -10.282  10.003  69.321  1.00  0.00    -0.214 C  
BRANCH   7   8
HETATM    8  S   UNL     1      -8.595  10.629  68.926  1.00  0.00    -0.149 SA 
BRANCH   8   9
HETATM    9  P   UNL     1      -7.633   9.194  67.696  1.00  0.00    -0.084 P  
HETATM   10  S   UNL     1      -6.790  10.608  66.507  1.00  0.00    -0.131 S  
BRANCH   9  11
HETATM   11  O   UNL     1      -6.619   8.711  68.916  1.00  0.00    -0.051 OA 
HETATM   12  C   UNL     1      -7.030   7.829  69.951  1.00  0.00    -0.050 C  
ENDBRANCH   9  11
BRANCH   9  13
HETATM   13  O   UNL     1      -6.849   8.024  66.692  1.00  0.00    -0.065 OA 
HETATM   14  C   UNL     1      -7.672   6.966  66.241  1.00  0.00    -0.094 C  
ENDBRANCH   9  13
ENDBRANCH   8   9
ENDBRANCH   7   8
BRANCH   7  15
HETATM   15  C   UNL     1     -11.259  10.945  68.630  1.00  0.00    -0.267 C  
HETATM   16  O   UNL     1     -12.390  11.191  69.028  1.00  0.00    -0.479 OA 
BRANCH  15  17
HETATM   17  O   UNL     1     -10.728  11.389  67.456  1.00  0.00    -0.199 OA 
BRANCH  17  18
HETATM   18  C   UNL     1     -11.115  12.717  67.080  1.00  0.00    -0.280 C  
HETATM   19  C   UNL     1     -11.965  12.617  65.827  1.00  0.00    -0.503 C  
ENDBRANCH  17  18
ENDBRANCH  15  17
ENDBRANCH   7  15
ENDBRANCH   6   7
ENDBRANCH   4   6
ENDBRANCH   3   4
ENDBRANCH   2   3
TORSDOF 11
ENDMDL
MODEL      285
REMARK 921   NORMALIZED FREE ENERGY PREDICTED BY IDOCK:   -2.75 KCAL/MOL
REMARK 922        TOTAL FREE ENERGY PREDICTED BY IDOCK:   -5.21 KCAL/MOL
REMARK 923 INTER-LIGAND FREE ENERGY PREDICTED BY IDOCK:   -4.37 KCAL/MOL
REMARK 924 INTRA-LIGAND FREE ENERGY PREDICTED BY IDOCK:   -0.84 KCAL/MOL
REMARK 927      BINDING AFFINITY PREDICTED BY RF-SCORE:    0.00 PKD
ROOT
HETATM    1  C   UNL     1      -6.606  11.665  69.382  1.00  0.00    -0.115 C  
HETATM    2  C   UNL     1      -6.758  12.992  68.659  1.00  0.00    -0.096 C  
ENDROOT
BRANCH   2   3
HETATM    3  O   UNL     1      -8.158  13.283  68.579  1.00  0.00    -0.145 OA 
BRANCH   3   4
HETATM    4  C   UNL     1      -8.560  13.979  67.487  1.00  0.00    -0.192 C  
HETATM    5  O   UNL     1      -8.011  14.968  67.018  1.00  0.00    -0.207 OA 
BRANCH   4   6
HETATM    6  C   UNL     1      -9.676  13.244  66.802  1.00  0.00    -0.258 C  
BRANCH   6   7
HETATM    7  C   UNL     1      -9.797  11.818  67.319  1.00  0.00    -0.185 C  
BRANCH   7   8
HETATM    8  S   UNL     1     -11.540  11.243  67.474  1.00  0.00    -0.071 SA 
BRANCH   8   9
HETATM    9  P   UNL     1     -12.068  11.288  69.526  1.00  0.00    -0.221 P  
HETATM   10  S   UNL     1     -10.529  10.078  70.067  1.00  0.00    -0.284 S  
BRANCH   9  11
HETATM   11  O   UNL     1     -11.685  12.895  69.672  1.00  0.00    -0.300 OA 
HETATM   12  C   UNL     1     -12.355  13.765  70.575  1.00  0.00    -0.359 C  
ENDBRANCH   9  11
BRANCH   9  13
HETATM   13  O   UNL     1     -12.498  11.324  71.202  1.00  0.00    -0.379 OA 
HETATM   14  C   UNL     1     -13.250  10.216  71.656  1.00  0.00    -0.418 C  
ENDBRANCH   9  13
ENDBRANCH   8   9
ENDBRANCH   7   8
BRANCH   7  15
HETATM   15  C   UNL     1      -9.123  10.878  66.328  1.00  0.00    -0.176 C  
HETATM   16  O   UNL     1      -8.562   9.833  66.628  1.00  0.00    -0.126 OA 
BRANCH  15  17
HETATM   17  O   UNL     1      -9.148  11.423  65.078  1.00  0.00    -0.143 OA 
BRANCH  17  18
HETATM   18  C   UNL     1      -9.894  10.677  64.108  1.00  0.00    -0.335 C  
HETATM   19  C   UNL     1      -9.431  11.112  62.730  1.00  0.00    -0.357 C  
ENDBRANCH  17  18
ENDBRANCH  15  17
ENDBRANCH   7  15
ENDBRANCH   6   7
ENDBRANCH   4   6
ENDBRANCH   3   4
ENDBRANCH   2   3
TORSDOF 11
ENDMDL
MODEL      286
REMARK 921   NORMALIZED FREE ENERGY PREDICTED BY IDOCK:   -2.75 KCAL/MOL
REMARK 922        TOTAL FREE ENERGY PREDICTED BY IDOCK:   -5.21 KCAL/MOL
REMARK 923 INTER-LIGAND FREE ENERGY PREDICTED BY IDOCK:   -5.21 KCAL/MOL
REMARK 924 INTRA-LIGAND FREE ENERGY PREDICTED BY IDOCK:    0.01 KCAL/MOL
REMARK 927      BINDING AFFINITY PREDICTED BY RF-SCORE:    0.00 PKD
ROOT
HETATM    1  C   UNL     1     -10.577  11.315  63.539  1.00  0.00    -0.436 C  
HETATM    2  C   UNL     1     -11.437  12.253  64.367  1.00  0.00    -0.354 C  
ENDROOT
BRANCH   2   3
HETATM    3  O   UNL     1     -10.577  12.918  65.299  1.00  0.00    -0.284 OA 
BRANCH   3   4
HETATM    4  C   UNL     1     -11.182  13.765  66.169  1.00  0.00    -0.300 C  
HETATM    5  O   UNL     1     -11.005  14.975  66.240  1.00  0.00    -0.332 OA 
BRANCH   4   6
HETATM    6  C   UNL     1     -12.264  13.037  66.914  1.00  0.00    -0.233 C  
BRANCH   6   7
HETATM    7  C   UNL     1     -11.718  12.378  68.173  1.00  0.00    -0.353 C  
BRANCH   7   8
HETATM    8  S   UNL     1     -10.944  10.737  67.858  1.00  0.00    -0.309 SA 
BRANCH   8   9
HETATM    9  P   UNL     1     -10.534   9.834  69.732  1.00  0.00    -0.286 P  
HETATM   10  S   UNL     1     -12.278  10.474  70.552  1.00  0.00    -0.363 S  
BRANCH   9  11
HETATM   11  O   UNL     1     -10.656   8.301  69.111  1.00  0.00    -0.219 OA 
HETATM   12  C   UNL     1     -10.777   8.045  67.718  1.00  0.00    -0.104 C  
ENDBRANCH   9  11
BRANCH   9  13
HETATM   13  O   UNL     1     -10.200   9.098  71.262  1.00  0.00    -0.284 OA 
HETATM   14  C   UNL     1     -11.271   8.369  71.829  1.00  0.00    -0.293 C  
ENDBRANCH   9  13
ENDBRANCH   8   9
ENDBRANCH   7   8
BRANCH   7  15
HETATM   15  C   UNL     1     -10.624  13.263  68.755  1.00  0.00    -0.201 C  
HETATM   16  O   UNL     1      -9.463  13.283  68.368  1.00  0.00    -0.214 OA 
BRANCH  15  17
HETATM   17  O   UNL     1     -11.102  13.947  69.833  1.00  0.00    -0.101 OA 
BRANCH  17  18
HETATM   18  C   UNL     1     -10.955  15.371  69.759  1.00  0.00    -0.287 C  
HETATM   19  C   UNL     1     -12.059  15.997  70.591  1.00  0.00    -0.259 C  
ENDBRANCH  17  18
ENDBRANCH  15  17
ENDBRANCH   7  15
ENDBRANCH   6   7
ENDBRANCH   4   6
ENDBRANCH   3   4
ENDBRANCH   2   3
TORSDOF 11
ENDMDL
MODEL      287
REMARK 921   NORMALIZED FREE ENERGY PREDICTED BY IDOCK:   -2.74 KCAL/MOL
REMARK 922        TOTAL FREE ENERGY PREDICTED BY IDOCK:   -5.19 KCAL/MOL
REMARK 923 INTER-LIGAND FREE ENERGY PREDICTED BY IDOCK:   -4.70 KCAL/MOL
REMARK 924 INTRA-LIGAND FREE ENERGY PREDICTED BY IDOCK:   -0.49 KCAL/MOL
REMARK 927      BINDING AFFINITY PREDICTED BY RF-SCORE:    0.00 PKD
ROOT
HETATM    1  C   UNL     1     -13.308  15.356  72.280  1.00  0.00    -0.548 C  
HETATM    2  C   UNL     1     -12.031  15.187  71.476  1.00  0.00    -0.360 C  
ENDROOT
BRANCH   2   3
HETATM    3  O   UNL     1     -12.393  14.658  70.196  1.00  0.00    -0.318 OA 
BRANCH   3   4
HETATM    4  C   UNL     1     -11.964  13.399  69.928  1.00  0.00    -0.338 C  
HETATM    5  O   UNL     1     -12.211  12.396  70.587  1.00  0.00    -0.368 OA 
BRANCH   4   6
HETATM    6  C   UNL     1     -11.296  13.368  68.584  1.00  0.00    -0.322 C  
BRANCH   6   7
HETATM    7  C   UNL     1     -10.450  12.113  68.418  1.00  0.00    -0.231 C  
BRANCH   7   8
HETATM    8  S   UNL     1     -11.432  10.632  67.932  1.00  0.00    -0.033 SA 
BRANCH   8   9
HETATM    9  P   UNL     1     -10.671   8.962  68.993  1.00  0.00     0.019 P  
HETATM   10  S   UNL     1     -10.364   7.880  67.302  1.00  0.00    -0.325 S  
BRANCH   9  11
HETATM   11  O   UNL     1      -9.311   9.783  69.470  1.00  0.00    -0.185 OA 
HETATM   12  C   UNL     1      -8.425   9.288  70.465  1.00  0.00    -0.216 C  
ENDBRANCH   9  11
BRANCH   9  13
HETATM   13  O   UNL     1     -10.050   7.598  69.859  1.00  0.00    -0.192 OA 
HETATM   14  C   UNL     1     -11.017   6.825  70.541  1.00  0.00    -0.280 C  
ENDBRANCH   9  13
ENDBRANCH   8   9
ENDBRANCH   7   8
BRANCH   7  15
HETATM   15  C   UNL     1      -9.443  12.344  67.299  1.00  0.00    -0.191 C  
HETATM   16  O   UNL     1      -8.887  13.410  67.070  1.00  0.00    -0.219 OA 
BRANCH  15  17
HETATM   17  O   UNL     1      -9.333  11.222  66.532  1.00  0.00    -0.175 OA 
BRANCH  17  18
HETATM   18  C   UNL     1      -9.037  11.462  65.151  1.00  0.00    -0.045 C  
HETATM   19  C   UNL     1     -10.343  11.416  64.380  1.00  0.00    -0.375 C  
ENDBRANCH  17  18
ENDBRANCH  15  17
ENDBRANCH   7  15
ENDBRANCH   6   7
ENDBRANCH   4   6
ENDBRANCH   3   4
ENDBRANCH   2   3
TORSDOF 11
ENDMDL
MODEL      288
REMARK 921   NORMALIZED FREE ENERGY PREDICTED BY IDOCK:   -2.74 KCAL/MOL
REMARK 922        TOTAL FREE ENERGY PREDICTED BY IDOCK:   -5.19 KCAL/MOL
REMARK 923 INTER-LIGAND FREE ENERGY PREDICTED BY IDOCK:   -4.40 KCAL/MOL
REMARK 924 INTRA-LIGAND FREE ENERGY PREDICTED BY IDOCK:   -0.79 KCAL/MOL
REMARK 927      BINDING AFFINITY PREDICTED BY RF-SCORE:    0.00 PKD
ROOT
HETATM    1  C   UNL     1      -7.039   6.694  66.833  1.00  0.00    -0.069 C  
HETATM    2  C   UNL     1      -7.603   8.080  66.575  1.00  0.00    -0.092 C  
ENDROOT
BRANCH   2   3
HETATM    3  O   UNL     1      -9.009   8.030  66.845  1.00  0.00    -0.129 OA 
BRANCH   3   4
HETATM    4  C   UNL     1      -9.650   9.225  66.888  1.00  0.00    -0.174 C  
HETATM    5  O   UNL     1     -10.384   9.682  66.021  1.00  0.00    -0.218 OA 
BRANCH   4   6
HETATM    6  C   UNL     1      -9.491   9.836  68.250  1.00  0.00    -0.148 C  
BRANCH   6   7
HETATM    7  C   UNL     1     -10.823  10.337  68.789  1.00  0.00    -0.230 C  
BRANCH   7   8
HETATM    8  S   UNL     1     -11.104   9.905  70.557  1.00  0.00    -0.351 SA 
BRANCH   8   9
HETATM    9  P   UNL     1     -10.262   7.991  70.907  1.00  0.00    -0.195 P  
HETATM   10  S   UNL     1     -10.932   7.919  72.823  1.00  0.00    -0.376 S  
BRANCH   9  11
HETATM   11  O   UNL     1     -11.302   7.251  69.848  1.00  0.00    -0.216 OA 
HETATM   12  C   UNL     1     -10.935   6.111  69.083  1.00  0.00    -0.381 C  
ENDBRANCH   9  11
BRANCH   9  13
HETATM   13  O   UNL     1      -9.574   6.430  71.194  1.00  0.00    -0.173 OA 
HETATM   14  C   UNL     1      -8.215   6.430  71.585  1.00  0.00    -0.117 C  
ENDBRANCH   9  13
ENDBRANCH   8   9
ENDBRANCH   7   8
BRANCH   7  15
HETATM   15  C   UNL     1     -10.842  11.858  68.713  1.00  0.00    -0.231 C  
HETATM   16  O   UNL     1      -9.919  12.548  68.303  1.00  0.00    -0.221 OA 
BRANCH  15  17
HETATM   17  O   UNL     1     -11.995  12.338  69.262  1.00  0.00    -0.296 OA 
BRANCH  17  18
HETATM   18  C   UNL     1     -12.025  13.756  69.461  1.00  0.00    -0.345 C  
HETATM   19  C   UNL     1     -12.293  14.015  70.932  1.00  0.00    -0.443 C  
ENDBRANCH  17  18
ENDBRANCH  15  17
ENDBRANCH   7  15
ENDBRANCH   6   7
ENDBRANCH   4   6
ENDBRANCH   3   4
ENDBRANCH   2   3
TORSDOF 11
ENDMDL
MODEL      289
REMARK 921   NORMALIZED FREE ENERGY PREDICTED BY IDOCK:   -2.72 KCAL/MOL
REMARK 922        TOTAL FREE ENERGY PREDICTED BY IDOCK:   -5.17 KCAL/MOL
REMARK 923 INTER-LIGAND FREE ENERGY PREDICTED BY IDOCK:   -4.38 KCAL/MOL
REMARK 924 INTRA-LIGAND FREE ENERGY PREDICTED BY IDOCK:   -0.80 KCAL/MOL
REMARK 927      BINDING AFFINITY PREDICTED BY RF-SCORE:    0.00 PKD
ROOT
HETATM    1  C   UNL     1      -9.639   7.257  73.617  1.00  0.00    -0.315 C  
HETATM    2  C   UNL     1     -10.811   7.837  72.845  1.00  0.00    -0.392 C  
ENDROOT
BRANCH   2   3
HETATM    3  O   UNL     1     -10.653   7.458  71.473  1.00  0.00    -0.207 OA 
BRANCH   3   4
HETATM    4  C   UNL     1     -11.690   6.781  70.919  1.00  0.00    -0.372 C  
HETATM    5  O   UNL     1     -12.837   6.742  71.345  1.00  0.00    -0.335 OA 
BRANCH   4   6
HETATM    6  C   UNL     1     -11.280   6.235  69.582  1.00  0.00    -0.506 C  
BRANCH   6   7
HETATM    7  C   UNL     1     -10.112   7.019  69.000  1.00  0.00    -0.180 C  
BRANCH   7   8
HETATM    8  S   UNL     1      -8.589   6.006  68.785  1.00  0.00    -0.111 SA 
BRANCH   8   9
HETATM    9  P   UNL     1      -9.178   4.007  68.400  1.00  0.00    -0.160 P  
HETATM   10  S   UNL     1      -8.209   3.943  66.616  1.00  0.00    -0.101 S  
BRANCH   9  11
HETATM   11  O   UNL     1      -8.254   3.410  69.641  1.00  0.00    -0.052 OA 
HETATM   12  C   UNL     1      -7.913   4.183  70.784  1.00  0.00    -0.056 C  
ENDBRANCH   9  11
BRANCH   9  13
HETATM   13  O   UNL     1      -9.660   2.375  68.084  1.00  0.00    -0.207 OA 
HETATM   14  C   UNL     1      -8.976   1.738  67.023  1.00  0.00    -0.117 C  
ENDBRANCH   9  13
ENDBRANCH   8   9
ENDBRANCH   7   8
BRANCH   7  15
HETATM   15  C   UNL     1     -10.496   7.514  67.611  1.00  0.00    -0.250 C  
HETATM   16  O   UNL     1     -11.064   6.840  66.763  1.00  0.00    -0.338 OA 
BRANCH  15  17
HETATM   17  O   UNL     1     -10.022   8.778  67.419  1.00  0.00    -0.176 OA 
BRANCH  17  18
HETATM   18  C   UNL     1     -10.519   9.757  68.340  1.00  0.00    -0.218 C  
HETATM   19  C   UNL     1     -11.400  10.720  67.564  1.00  0.00    -0.283 C  
ENDBRANCH  17  18
ENDBRANCH  15  17
ENDBRANCH   7  15
ENDBRANCH   6   7
ENDBRANCH   4   6
ENDBRANCH   3   4
ENDBRANCH   2   3
TORSDOF 11
ENDMDL
MODEL      290
REMARK 921   NORMALIZED FREE ENERGY PREDICTED BY IDOCK:   -2.72 KCAL/MOL
REMARK 922        TOTAL FREE ENERGY PREDICTED BY IDOCK:   -5.17 KCAL/MOL
REMARK 923 INTER-LIGAND FREE ENERGY PREDICTED BY IDOCK:   -4.40 KCAL/MOL
REMARK 924 INTRA-LIGAND FREE ENERGY PREDICTED BY IDOCK:   -0.76 KCAL/MOL
REMARK 927      BINDING AFFINITY PREDICTED BY RF-SCORE:    0.00 PKD
ROOT
HETATM    1  C   UNL     1      -8.635   6.222  67.402  1.00  0.00    -0.107 C  
HETATM    2  C   UNL     1      -8.866   7.715  67.554  1.00  0.00    -0.124 C  
ENDROOT
BRANCH   2   3
HETATM    3  O   UNL     1      -9.677   8.140  66.452  1.00  0.00    -0.227 OA 
BRANCH   3   4
HETATM    4  C   UNL     1      -9.326   9.315  65.873  1.00  0.00    -0.236 C  
HETATM    5  O   UNL     1      -9.787   9.775  64.835  1.00  0.00    -0.284 OA 
BRANCH   4   6
HETATM    6  C   UNL     1      -8.423  10.084  66.794  1.00  0.00    -0.125 C  
BRANCH   6   7
HETATM    7  C   UNL     1      -8.672  11.581  66.687  1.00  0.00    -0.182 C  
BRANCH   7   8
HETATM    8  S   UNL     1     -10.195  12.132  67.566  1.00  0.00    -0.200 SA 
BRANCH   8   9
HETATM    9  P   UNL     1     -11.041  13.738  66.471  1.00  0.00    -0.318 P  
HETATM   10  S   UNL     1     -12.005  12.502  65.180  1.00  0.00    -0.430 S  
BRANCH   9  11
HETATM   11  O   UNL     1     -12.005  14.200  67.739  1.00  0.00    -0.366 OA 
HETATM   12  C   UNL     1     -11.854  13.672  69.049  1.00  0.00    -0.352 C  
ENDBRANCH   9  11
BRANCH   9  13
HETATM   13  O   UNL     1     -11.731  15.048  65.576  1.00  0.00    -0.275 OA 
HETATM   14  C   UNL     1     -12.157  14.728  64.267  1.00  0.00    -0.394 C  
ENDBRANCH   9  13
ENDBRANCH   8   9
ENDBRANCH   7   8
BRANCH   7  15
HETATM   15  C   UNL     1      -7.511  12.320  67.340  1.00  0.00    -0.160 C  
HETATM   16  O   UNL     1      -6.351  12.276  66.954  1.00  0.00    -0.141 OA 
BRANCH  15  17
HETATM   17  O   UNL     1      -7.937  12.948  68.473  1.00  0.00    -0.144 OA 
BRANCH  17  18
HETATM   18  C   UNL     1      -7.303  14.205  68.742  1.00  0.00    -0.128 C  
HETATM   19  C   UNL     1      -8.390  15.216  69.057  1.00  0.00    -0.209 C  
ENDBRANCH  17  18
ENDBRANCH  15  17
ENDBRANCH   7  15
ENDBRANCH   6   7
ENDBRANCH   4   6
ENDBRANCH   3   4
ENDBRANCH   2   3
TORSDOF 11
ENDMDL
MODEL      291
REMARK 921   NORMALIZED FREE ENERGY PREDICTED BY IDOCK:   -2.72 KCAL/MOL
REMARK 922        TOTAL FREE ENERGY PREDICTED BY IDOCK:   -5.16 KCAL/MOL
REMARK 923 INTER-LIGAND FREE ENERGY PREDICTED BY IDOCK:   -4.39 KCAL/MOL
REMARK 924 INTRA-LIGAND FREE ENERGY PREDICTED BY IDOCK:   -0.77 KCAL/MOL
REMARK 927      BINDING AFFINITY PREDICTED BY RF-SCORE:    0.00 PKD
ROOT
HETATM    1  C   UNL     1      -7.129  15.596  69.444  1.00  0.00    -0.198 C  
HETATM    2  C   UNL     1      -8.149  15.459  68.328  1.00  0.00    -0.136 C  
ENDROOT
BRANCH   2   3
HETATM    3  O   UNL     1      -8.888  14.255  68.565  1.00  0.00    -0.179 OA 
BRANCH   3   4
HETATM    4  C   UNL     1      -8.843  13.325  67.578  1.00  0.00    -0.206 C  
HETATM    5  O   UNL     1      -7.840  12.954  66.980  1.00  0.00    -0.117 OA 
BRANCH   4   6
HETATM    6  C   UNL     1     -10.182  12.658  67.450  1.00  0.00    -0.219 C  
BRANCH   6   7
HETATM    7  C   UNL     1     -10.190  11.653  66.307  1.00  0.00    -0.227 C  
BRANCH   7   8
HETATM    8  S   UNL     1     -10.315   9.905  66.874  1.00  0.00    -0.219 SA 
BRANCH   8   9
HETATM    9  P   UNL     1      -8.645   8.846  66.111  1.00  0.00    -0.158 P  
HETATM   10  S   UNL     1      -7.415   9.485  67.596  1.00  0.00    -0.091 S  
BRANCH   9  11
HETATM   11  O   UNL     1      -9.325   7.371  66.448  1.00  0.00    -0.177 OA 
HETATM   12  C   UNL     1     -10.641   7.234  66.966  1.00  0.00    -0.344 C  
ENDBRANCH   9  11
BRANCH   9  13
HETATM   13  O   UNL     1      -7.281   7.982  65.489  1.00  0.00    -0.062 OA 
HETATM   14  C   UNL     1      -7.103   8.063  64.088  1.00  0.00    -0.079 C  
ENDBRANCH   9  13
ENDBRANCH   8   9
ENDBRANCH   7   8
BRANCH   7  15
HETATM   15  C   UNL     1     -11.414  11.909  65.437  1.00  0.00    -0.251 C  
HETATM   16  O   UNL     1     -12.479  12.354  65.844  1.00  0.00    -0.583 OA 
BRANCH  15  17
HETATM   17  O   UNL     1     -11.183  11.472  64.166  1.00  0.00    -0.358 OA 
BRANCH  17  18
HETATM   18  C   UNL     1     -10.040  12.054  63.526  1.00  0.00    -0.424 C  
HETATM   19  C   UNL     1      -9.337  10.959  62.745  1.00  0.00    -0.366 C  
ENDBRANCH  17  18
ENDBRANCH  15  17
ENDBRANCH   7  15
ENDBRANCH   6   7
ENDBRANCH   4   6
ENDBRANCH   3   4
ENDBRANCH   2   3
TORSDOF 11
ENDMDL
MODEL      292
REMARK 921   NORMALIZED FREE ENERGY PREDICTED BY IDOCK:   -2.70 KCAL/MOL
REMARK 922        TOTAL FREE ENERGY PREDICTED BY IDOCK:   -5.13 KCAL/MOL
REMARK 923 INTER-LIGAND FREE ENERGY PREDICTED BY IDOCK:   -5.44 KCAL/MOL
REMARK 924 INTRA-LIGAND FREE ENERGY PREDICTED BY IDOCK:    0.31 KCAL/MOL
REMARK 927      BINDING AFFINITY PREDICTED BY RF-SCORE:    0.00 PKD
ROOT
HETATM    1  C   UNL     1     -13.617  12.004  72.144  1.00  0.00    -0.236 C  
HETATM    2  C   UNL     1     -12.909  11.633  70.853  1.00  0.00    -0.173 C  
ENDROOT
BRANCH   2   3
HETATM    3  O   UNL     1     -11.892  12.615  70.621  1.00  0.00    -0.208 OA 
BRANCH   3   4
HETATM    4  C   UNL     1     -12.188  13.574  69.708  1.00  0.00    -0.269 C  
HETATM    5  O   UNL     1     -12.668  14.675  69.948  1.00  0.00    -0.241 OA 
BRANCH   4   6
HETATM    6  C   UNL     1     -11.657  13.173  68.363  1.00  0.00    -0.372 C  
BRANCH   6   7
HETATM    7  C   UNL     1     -11.878  14.272  67.333  1.00  0.00    -0.409 C  
BRANCH   7   8
HETATM    8  S   UNL     1     -10.323  15.120  66.827  1.00  0.00    -0.279 SA 
BRANCH   8   9
HETATM    9  P   UNL     1      -8.782  14.512  68.150  1.00  0.00    -0.187 P  
HETATM   10  S   UNL     1      -8.440  12.782  67.142  1.00  0.00    -0.153 S  
BRANCH   9  11
HETATM   11  O   UNL     1      -7.772  15.734  67.664  1.00  0.00    -0.134 OA 
HETATM   12  C   UNL     1      -7.750  16.226  66.331  1.00  0.00    -0.158 C  
ENDBRANCH   9  11
BRANCH   9  13
HETATM   13  O   UNL     1      -7.525  14.015  69.230  1.00  0.00    -0.063 OA 
HETATM   14  C   UNL     1      -6.979  15.041  70.035  1.00  0.00    -0.096 C  
ENDBRANCH   9  13
ENDBRANCH   8   9
ENDBRANCH   7   8
BRANCH   7  15
HETATM   15  C   UNL     1     -12.456  13.650  66.068  1.00  0.00    -0.426 C  
HETATM   16  O   UNL     1     -13.175  14.235  65.269  1.00  0.00    -0.704 OA 
BRANCH  15  17
HETATM   17  O   UNL     1     -12.142  12.324  66.015  1.00  0.00    -0.623 OA 
BRANCH  17  18
HETATM   18  C   UNL     1     -11.271  11.952  64.940  1.00  0.00    -0.292 C  
HETATM   19  C   UNL     1     -11.210  13.116  63.967  1.00  0.00    -0.418 C  
ENDBRANCH  17  18
ENDBRANCH  15  17
ENDBRANCH   7  15
ENDBRANCH   6   7
ENDBRANCH   4   6
ENDBRANCH   3   4
ENDBRANCH   2   3
TORSDOF 11
ENDMDL
MODEL      293
REMARK 921   NORMALIZED FREE ENERGY PREDICTED BY IDOCK:   -2.70 KCAL/MOL
REMARK 922        TOTAL FREE ENERGY PREDICTED BY IDOCK:   -5.13 KCAL/MOL
REMARK 923 INTER-LIGAND FREE ENERGY PREDICTED BY IDOCK:   -4.47 KCAL/MOL
REMARK 924 INTRA-LIGAND FREE ENERGY PREDICTED BY IDOCK:   -0.67 KCAL/MOL
REMARK 927      BINDING AFFINITY PREDICTED BY RF-SCORE:    0.00 PKD
ROOT
HETATM    1  C   UNL     1      -8.304   8.013  73.589  1.00  0.00    -0.302 C  
HETATM    2  C   UNL     1      -9.385   7.074  73.084  1.00  0.00    -0.149 C  
ENDROOT
BRANCH   2   3
HETATM    3  O   UNL     1     -10.647   7.721  73.286  1.00  0.00    -0.364 OA 
BRANCH   3   4
HETATM    4  C   UNL     1     -11.472   7.767  72.211  1.00  0.00    -0.332 C  
HETATM    5  O   UNL     1     -12.318   8.623  71.985  1.00  0.00    -0.324 OA 
BRANCH   4   6
HETATM    6  C   UNL     1     -11.066   6.717  71.217  1.00  0.00    -0.312 C  
BRANCH   6   7
HETATM    7  C   UNL     1     -10.994   7.289  69.809  1.00  0.00    -0.216 C  
BRANCH   7   8
HETATM    8  S   UNL     1      -9.552   8.407  69.550  1.00  0.00    -0.172 SA 
BRANCH   8   9
HETATM    9  P   UNL     1     -10.198  10.051  68.377  1.00  0.00    -0.193 P  
HETATM   10  S   UNL     1     -10.082   9.005  66.640  1.00  0.00    -0.273 S  
BRANCH   9  11
HETATM   11  O   UNL     1     -11.722  10.020  69.030  1.00  0.00    -0.022 OA 
HETATM   12  C   UNL     1     -12.232  11.073  69.838  1.00  0.00    -0.336 C  
ENDBRANCH   9  11
BRANCH   9  13
HETATM   13  O   UNL     1     -10.724  11.392  67.419  1.00  0.00    -0.207 OA 
HETATM   14  C   UNL     1      -9.848  12.501  67.400  1.00  0.00    -0.201 C  
ENDBRANCH   9  13
ENDBRANCH   8   9
ENDBRANCH   7   8
BRANCH   7  15
HETATM   15  C   UNL     1     -10.828   6.142  68.821  1.00  0.00    -0.336 C  
HETATM   16  O   UNL     1     -11.268   6.135  67.679  1.00  0.00    -0.294 OA 
BRANCH  15  17
HETATM   17  O   UNL     1     -10.209   5.089  69.428  1.00  0.00    -0.228 OA 
BRANCH  17  18
HETATM   18  C   UNL     1      -9.601   4.148  68.535  1.00  0.00    -0.125 C  
HETATM   19  C   UNL     1      -8.104   4.398  68.544  1.00  0.00    -0.081 C  
ENDBRANCH  17  18
ENDBRANCH  15  17
ENDBRANCH   7  15
ENDBRANCH   6   7
ENDBRANCH   4   6
ENDBRANCH   3   4
ENDBRANCH   2   3
TORSDOF 11
ENDMDL
MODEL      294
REMARK 921   NORMALIZED FREE ENERGY PREDICTED BY IDOCK:   -2.70 KCAL/MOL
REMARK 922        TOTAL FREE ENERGY PREDICTED BY IDOCK:   -5.13 KCAL/MOL
REMARK 923 INTER-LIGAND FREE ENERGY PREDICTED BY IDOCK:   -4.14 KCAL/MOL
REMARK 924 INTRA-LIGAND FREE ENERGY PREDICTED BY IDOCK:   -1.00 KCAL/MOL
REMARK 927      BINDING AFFINITY PREDICTED BY RF-SCORE:    0.00 PKD
ROOT
HETATM    1  C   UNL     1     -13.065  11.067  71.798  1.00  0.00    -0.554 C  
HETATM    2  C   UNL     1     -13.094   9.612  71.367  1.00  0.00    -0.385 C  
ENDROOT
BRANCH   2   3
HETATM    3  O   UNL     1     -11.890   8.998  71.843  1.00  0.00    -0.344 OA 
BRANCH   3   4
HETATM    4  C   UNL     1     -11.697   7.706  71.479  1.00  0.00    -0.281 C  
HETATM    5  O   UNL     1     -12.283   6.731  71.935  1.00  0.00    -0.329 OA 
BRANCH   4   6
HETATM    6  C   UNL     1     -10.792   7.647  70.282  1.00  0.00    -0.253 C  
BRANCH   6   7
HETATM    7  C   UNL     1      -9.345   7.911  70.672  1.00  0.00    -0.158 C  
BRANCH   7   8
HETATM    8  S   UNL     1      -8.322   6.381  70.757  1.00  0.00    -0.127 SA 
BRANCH   8   9
HETATM    9  P   UNL     1      -9.105   4.989  69.362  1.00  0.00    -0.117 P  
HETATM   10  S   UNL     1      -7.281   4.192  68.958  1.00  0.00    -0.055 S  
BRANCH   9  11
HETATM   11  O   UNL     1      -9.914   4.145  70.538  1.00  0.00    -0.201 OA 
HETATM   12  C   UNL     1      -9.563   4.216  71.913  1.00  0.00    -0.152 C  
ENDBRANCH   9  11
BRANCH   9  13
HETATM   13  O   UNL     1      -9.743   3.854  68.223  1.00  0.00    -0.140 OA 
HETATM   14  C   UNL     1      -8.965   2.689  68.030  1.00  0.00    -0.160 C  
ENDBRANCH   9  13
ENDBRANCH   8   9
ENDBRANCH   7   8
BRANCH   7  15
HETATM   15  C   UNL     1      -8.704   8.794  69.610  1.00  0.00    -0.136 C  
HETATM   16  O   UNL     1      -8.003   8.387  68.693  1.00  0.00    -0.116 OA 
BRANCH  15  17
HETATM   17  O   UNL     1      -8.939  10.108  69.891  1.00  0.00    -0.185 OA 
BRANCH  17  18
HETATM   18  C   UNL     1      -9.299  10.913  68.762  1.00  0.00    -0.185 C  
HETATM   19  C   UNL     1     -10.810  10.880  68.629  1.00  0.00    -0.258 C  
ENDBRANCH  17  18
ENDBRANCH  15  17
ENDBRANCH   7  15
ENDBRANCH   6   7
ENDBRANCH   4   6
ENDBRANCH   3   4
ENDBRANCH   2   3
TORSDOF 11
ENDMDL
MODEL      295
REMARK 921   NORMALIZED FREE ENERGY PREDICTED BY IDOCK:   -2.69 KCAL/MOL
REMARK 922        TOTAL FREE ENERGY PREDICTED BY IDOCK:   -5.11 KCAL/MOL
REMARK 923 INTER-LIGAND FREE ENERGY PREDICTED BY IDOCK:   -4.31 KCAL/MOL
REMARK 924 INTRA-LIGAND FREE ENERGY PREDICTED BY IDOCK:   -0.80 KCAL/MOL
REMARK 927      BINDING AFFINITY PREDICTED BY RF-SCORE:    0.00 PKD
ROOT
HETATM    1  C   UNL     1      -8.960   7.851  73.598  1.00  0.00    -0.337 C  
HETATM    2  C   UNL     1     -10.083   7.052  72.959  1.00  0.00    -0.211 C  
ENDROOT
BRANCH   2   3
HETATM    3  O   UNL     1     -11.234   7.901  72.892  1.00  0.00    -0.398 OA 
BRANCH   3   4
HETATM    4  C   UNL     1     -11.733   8.131  71.652  1.00  0.00    -0.287 C  
HETATM    5  O   UNL     1     -12.505   9.029  71.340  1.00  0.00    -0.306 OA 
BRANCH   4   6
HETATM    6  C   UNL     1     -11.048   7.239  70.658  1.00  0.00    -0.287 C  
BRANCH   6   7
HETATM    7  C   UNL     1     -10.774   7.976  69.354  1.00  0.00    -0.159 C  
BRANCH   7   8
HETATM    8  S   UNL     1      -9.347   9.136  69.458  1.00  0.00    -0.171 SA 
BRANCH   8   9
HETATM    9  P   UNL     1      -9.451  10.457  67.803  1.00  0.00    -0.146 P  
HETATM   10  S   UNL     1     -11.340  11.054  68.251  1.00  0.00    -0.306 S  
BRANCH   9  11
HETATM   11  O   UNL     1      -8.303  11.471  68.438  1.00  0.00    -0.143 OA 
HETATM   12  C   UNL     1      -8.208  12.843  68.079  1.00  0.00    -0.168 C  
ENDBRANCH   9  11
BRANCH   9  13
HETATM   13  O   UNL     1      -9.537  11.534  66.452  1.00  0.00    -0.198 OA 
HETATM   14  C   UNL     1     -10.228  11.035  65.324  1.00  0.00    -0.284 C  
ENDBRANCH   9  13
ENDBRANCH   8   9
ENDBRANCH   7   8
BRANCH   7  15
HETATM   15  C   UNL     1     -10.419   6.957  68.280  1.00  0.00    -0.206 C  
HETATM   16  O   UNL     1     -11.227   6.241  67.702  1.00  0.00    -0.327 OA 
BRANCH  15  17
HETATM   17  O   UNL     1      -9.065   6.887  68.133  1.00  0.00    -0.126 OA 
BRANCH  17  18
HETATM   18  C   UNL     1      -8.619   6.171  66.974  1.00  0.00    -0.108 C  
HETATM   19  C   UNL     1      -8.384   7.181  65.866  1.00  0.00    -0.141 C  
ENDBRANCH  17  18
ENDBRANCH  15  17
ENDBRANCH   7  15
ENDBRANCH   6   7
ENDBRANCH   4   6
ENDBRANCH   3   4
ENDBRANCH   2   3
TORSDOF 11
ENDMDL
MODEL      296
REMARK 921   NORMALIZED FREE ENERGY PREDICTED BY IDOCK:   -2.69 KCAL/MOL
REMARK 922        TOTAL FREE ENERGY PREDICTED BY IDOCK:   -5.11 KCAL/MOL
REMARK 923 INTER-LIGAND FREE ENERGY PREDICTED BY IDOCK:   -4.25 KCAL/MOL
REMARK 924 INTRA-LIGAND FREE ENERGY PREDICTED BY IDOCK:   -0.86 KCAL/MOL
REMARK 927      BINDING AFFINITY PREDICTED BY RF-SCORE:    0.00 PKD
ROOT
HETATM    1  C   UNL     1     -11.854  13.484  68.109  1.00  0.00    -0.400 C  
HETATM    2  C   UNL     1     -11.550  13.498  66.621  1.00  0.00    -0.363 C  
ENDROOT
BRANCH   2   3
HETATM    3  O   UNL     1     -10.950  12.240  66.291  1.00  0.00    -0.268 OA 
BRANCH   3   4
HETATM    4  C   UNL     1     -11.171  11.787  65.032  1.00  0.00    -0.257 C  
HETATM    5  O   UNL     1     -11.974  12.247  64.229  1.00  0.00    -0.376 OA 
BRANCH   4   6
HETATM    6  C   UNL     1     -10.143  10.751  64.680  1.00  0.00    -0.410 C  
BRANCH   6   7
HETATM    7  C   UNL     1      -9.357  10.314  65.908  1.00  0.00    -0.180 C  
BRANCH   7   8
HETATM    8  S   UNL     1      -9.517   8.516  66.274  1.00  0.00    -0.220 SA 
BRANCH   8   9
HETATM    9  P   UNL     1      -9.351   8.255  68.372  1.00  0.00    -0.135 P  
HETATM   10  S   UNL     1     -10.495   9.883  68.781  1.00  0.00    -0.222 S  
BRANCH   9  11
HETATM   11  O   UNL     1     -10.236   6.853  68.348  1.00  0.00    -0.161 OA 
HETATM   12  C   UNL     1     -10.856   6.357  67.170  1.00  0.00    -0.393 C  
ENDBRANCH   9  11
BRANCH   9  13
HETATM   13  O   UNL     1      -9.215   8.044  70.083  1.00  0.00    -0.151 OA 
HETATM   14  C   UNL     1      -8.270   8.879  70.723  1.00  0.00    -0.171 C  
ENDBRANCH   9  13
ENDBRANCH   8   9
ENDBRANCH   7   8
BRANCH   7  15
HETATM   15  C   UNL     1      -7.876  10.569  65.659  1.00  0.00    -0.150 C  
HETATM   16  O   UNL     1      -7.064  10.870  66.524  1.00  0.00    -0.125 OA 
BRANCH  15  17
HETATM   17  O   UNL     1      -7.612  10.515  64.322  1.00  0.00    -0.070 OA 
BRANCH  17  18
HETATM   18  C   UNL     1      -6.646   9.530  63.936  1.00  0.00    -0.101 C  
HETATM   19  C   UNL     1      -7.265   8.671  62.849  1.00  0.00    -0.094 C  
ENDBRANCH  17  18
ENDBRANCH  15  17
ENDBRANCH   7  15
ENDBRANCH   6   7
ENDBRANCH   4   6
ENDBRANCH   3   4
ENDBRANCH   2   3
TORSDOF 11
ENDMDL
MODEL      297
REMARK 921   NORMALIZED FREE ENERGY PREDICTED BY IDOCK:   -2.68 KCAL/MOL
REMARK 922        TOTAL FREE ENERGY PREDICTED BY IDOCK:   -5.10 KCAL/MOL
REMARK 923 INTER-LIGAND FREE ENERGY PREDICTED BY IDOCK:   -4.47 KCAL/MOL
REMARK 924 INTRA-LIGAND FREE ENERGY PREDICTED BY IDOCK:   -0.63 KCAL/MOL
REMARK 927      BINDING AFFINITY PREDICTED BY RF-SCORE:    0.00 PKD
ROOT
HETATM    1  C   UNL     1     -10.178   5.017  70.337  1.00  0.00    -0.324 C  
HETATM    2  C   UNL     1     -11.120   6.096  70.841  1.00  0.00    -0.307 C  
ENDROOT
BRANCH   2   3
HETATM    3  O   UNL     1     -11.175   7.121  69.842  1.00  0.00    -0.260 OA 
BRANCH   3   4
HETATM    4  C   UNL     1     -10.797   8.361  70.240  1.00  0.00    -0.239 C  
HETATM    5  O   UNL     1     -10.505   8.696  71.382  1.00  0.00    -0.217 OA 
BRANCH   4   6
HETATM    6  C   UNL     1     -10.591   9.237  69.039  1.00  0.00    -0.225 C  
BRANCH   6   7
HETATM    7  C   UNL     1     -10.391  10.691  69.444  1.00  0.00    -0.208 C  
BRANCH   7   8
HETATM    8  S   UNL     1      -9.209  11.595  68.358  1.00  0.00    -0.159 SA 
BRANCH   8   9
HETATM    9  P   UNL     1      -7.386  10.514  68.329  1.00  0.00    -0.094 P  
HETATM   10  S   UNL     1      -7.656   9.884  66.417  1.00  0.00    -0.103 S  
BRANCH   9  11
HETATM   11  O   UNL     1      -6.472  11.895  68.414  1.00  0.00    -0.050 OA 
HETATM   12  C   UNL     1      -7.046  13.195  68.413  1.00  0.00    -0.107 C  
ENDBRANCH   9  11
BRANCH   9  13
HETATM   13  O   UNL     1      -5.898   9.631  68.304  1.00  0.00    -0.043 OA 
HETATM   14  C   UNL     1      -5.202   9.653  67.073  1.00  0.00    -0.038 C  
ENDBRANCH   9  13
ENDBRANCH   8   9
ENDBRANCH   7   8
BRANCH   7  15
HETATM   15  C   UNL     1     -11.723  11.420  69.326  1.00  0.00    -0.337 C  
HETATM   16  O   UNL     1     -12.201  11.836  68.279  1.00  0.00    -0.486 OA 
BRANCH  15  17
HETATM   17  O   UNL     1     -12.250  11.632  70.566  1.00  0.00    -0.356 OA 
BRANCH  17  18
HETATM   18  C   UNL     1     -12.629  12.987  70.838  1.00  0.00    -0.280 C  
HETATM   19  C   UNL     1     -13.463  12.991  72.106  1.00  0.00    -0.638 C  
ENDBRANCH  17  18
ENDBRANCH  15  17
ENDBRANCH   7  15
ENDBRANCH   6   7
ENDBRANCH   4   6
ENDBRANCH   3   4
ENDBRANCH   2   3
TORSDOF 11
ENDMDL
MODEL      298
REMARK 921   NORMALIZED FREE ENERGY PREDICTED BY IDOCK:   -2.67 KCAL/MOL
REMARK 922        TOTAL FREE ENERGY PREDICTED BY IDOCK:   -5.09 KCAL/MOL
REMARK 923 INTER-LIGAND FREE ENERGY PREDICTED BY IDOCK:   -4.27 KCAL/MOL
REMARK 924 INTRA-LIGAND FREE ENERGY PREDICTED BY IDOCK:   -0.82 KCAL/MOL
REMARK 927      BINDING AFFINITY PREDICTED BY RF-SCORE:    0.00 PKD
ROOT
HETATM    1  C   UNL     1      -9.008   4.278  63.970  1.00  0.00    -0.145 C  
HETATM    2  C   UNL     1      -9.292   4.040  65.443  1.00  0.00    -0.162 C  
ENDROOT
BRANCH   2   3
HETATM    3  O   UNL     1     -10.216   5.047  65.872  1.00  0.00    -0.204 OA 
BRANCH   3   4
HETATM    4  C   UNL     1      -9.686   6.080  66.574  1.00  0.00    -0.149 C  
HETATM    5  O   UNL     1      -8.540   6.502  66.483  1.00  0.00    -0.115 OA 
BRANCH   4   6
HETATM    6  C   UNL     1     -10.770   6.773  67.348  1.00  0.00    -0.405 C  
BRANCH   6   7
HETATM    7  C   UNL     1     -10.300   7.136  68.750  1.00  0.00    -0.192 C  
BRANCH   7   8
HETATM    8  S   UNL     1     -10.504   8.923  69.147  1.00  0.00    -0.201 SA 
BRANCH   8   9
HETATM    9  P   UNL     1     -10.513  10.005  67.324  1.00  0.00    -0.235 P  
HETATM   10  S   UNL     1     -11.289  11.673  68.184  1.00  0.00    -0.317 S  
BRANCH   9  11
HETATM   11  O   UNL     1      -8.857  10.047  67.248  1.00  0.00    -0.134 OA 
HETATM   12  C   UNL     1      -8.044  10.309  68.383  1.00  0.00    -0.109 C  
ENDBRANCH   9  11
BRANCH   9  13
HETATM   13  O   UNL     1     -10.522  10.888  65.837  1.00  0.00    -0.254 OA 
HETATM   14  C   UNL     1      -9.710  10.352  64.811  1.00  0.00    -0.320 C  
ENDBRANCH   9  13
ENDBRANCH   8   9
ENDBRANCH   7   8
BRANCH   7  15
HETATM   15  C   UNL     1     -11.144   6.374  69.763  1.00  0.00    -0.396 C  
HETATM   16  O   UNL     1     -12.063   6.858  70.410  1.00  0.00    -0.318 OA 
BRANCH  15  17
HETATM   17  O   UNL     1     -10.660   5.108  69.916  1.00  0.00    -0.280 OA 
BRANCH  17  18
HETATM   18  C   UNL     1      -9.294   5.031  70.340  1.00  0.00    -0.158 C  
HETATM   19  C   UNL     1      -9.281   4.937  71.855  1.00  0.00    -0.171 C  
ENDBRANCH  17  18
ENDBRANCH  15  17
ENDBRANCH   7  15
ENDBRANCH   6   7
ENDBRANCH   4   6
ENDBRANCH   3   4
ENDBRANCH   2   3
TORSDOF 11
ENDMDL
MODEL      299
REMARK 921   NORMALIZED FREE ENERGY PREDICTED BY IDOCK:   -2.67 KCAL/MOL
REMARK 922        TOTAL FREE ENERGY PREDICTED BY IDOCK:   -5.08 KCAL/MOL
REMARK 923 INTER-LIGAND FREE ENERGY PREDICTED BY IDOCK:   -4.71 KCAL/MOL
REMARK 924 INTRA-LIGAND FREE ENERGY PREDICTED BY IDOCK:   -0.37 KCAL/MOL
REMARK 927      BINDING AFFINITY PREDICTED BY RF-SCORE:    0.00 PKD
ROOT
HETATM    1  C   UNL     1      -6.271  11.205  67.629  1.00  0.00    -0.053 C  
HETATM    2  C   UNL     1      -6.902  10.839  66.297  1.00  0.00    -0.135 C  
ENDROOT
BRANCH   2   3
HETATM    3  O   UNL     1      -7.715   9.679  66.510  1.00  0.00    -0.097 OA 
BRANCH   3   4
HETATM    4  C   UNL     1      -9.056   9.875  66.463  1.00  0.00    -0.152 C  
HETATM    5  O   UNL     1      -9.848   9.282  65.741  1.00  0.00    -0.296 OA 
BRANCH   4   6
HETATM    6  C   UNL     1      -9.473  10.794  67.575  1.00  0.00    -0.168 C  
BRANCH   6   7
HETATM    7  C   UNL     1     -10.874  10.462  68.069  1.00  0.00    -0.270 C  
BRANCH   7   8
HETATM    8  S   UNL     1     -10.895   9.718  69.754  1.00  0.00    -0.270 SA 
BRANCH   8   9
HETATM    9  P   UNL     1      -9.873   7.862  69.665  1.00  0.00    -0.186 P  
HETATM   10  S   UNL     1      -8.077   8.699  70.110  1.00  0.00    -0.122 S  
BRANCH   9  11
HETATM   11  O   UNL     1     -10.647   7.281  71.012  1.00  0.00    -0.219 OA 
HETATM   12  C   UNL     1     -11.943   6.699  70.961  1.00  0.00    -0.359 C  
ENDBRANCH   9  11
BRANCH   9  13
HETATM   13  O   UNL     1      -9.038   6.349  69.593  1.00  0.00    -0.142 OA 
HETATM   14  C   UNL     1      -9.389   5.517  68.505  1.00  0.00    -0.121 C  
ENDBRANCH   9  13
ENDBRANCH   8   9
ENDBRANCH   7   8
BRANCH   7  15
HETATM   15  C   UNL     1     -11.679  11.752  68.162  1.00  0.00    -0.307 C  
HETATM   16  O   UNL     1     -11.987  12.309  69.207  1.00  0.00    -0.296 OA 
BRANCH  15  17
HETATM   17  O   UNL     1     -12.092  12.134  66.919  1.00  0.00    -0.600 OA 
BRANCH  17  18
HETATM   18  C   UNL     1     -12.013  13.541  66.662  1.00  0.00    -0.404 C  
HETATM   19  C   UNL     1     -12.624  13.800  65.297  1.00  0.00    -0.510 C  
ENDBRANCH  17  18
ENDBRANCH  15  17
ENDBRANCH   7  15
ENDBRANCH   6   7
ENDBRANCH   4   6
ENDBRANCH   3   4
ENDBRANCH   2   3
TORSDOF 11
ENDMDL
MODEL      300
REMARK 921   NORMALIZED FREE ENERGY PREDICTED BY IDOCK:   -2.66 KCAL/MOL
REMARK 922        TOTAL FREE ENERGY PREDICTED BY IDOCK:   -5.06 KCAL/MOL
REMARK 923 INTER-LIGAND FREE ENERGY PREDICTED BY IDOCK:   -4.02 KCAL/MOL
REMARK 924 INTRA-LIGAND FREE ENERGY PREDICTED BY IDOCK:   -1.04 KCAL/MOL
REMARK 927      BINDING AFFINITY PREDICTED BY RF-SCORE:    0.00 PKD
ROOT
HETATM    1  C   UNL     1      -7.066  10.333  68.438  1.00  0.00    -0.078 C  
HETATM    2  C   UNL     1      -8.394  10.702  67.801  1.00  0.00    -0.115 C  
ENDROOT
BRANCH   2   3
HETATM    3  O   UNL     1      -9.432  10.154  68.623  1.00  0.00    -0.152 OA 
BRANCH   3   4
HETATM    4  C   UNL     1     -10.612   9.905  68.002  1.00  0.00    -0.242 C  
HETATM    5  O   UNL     1     -11.519  10.709  67.825  1.00  0.00    -0.460 OA 
BRANCH   4   6
HETATM    6  C   UNL     1     -10.577   8.539  67.379  1.00  0.00    -0.304 C  
BRANCH   6   7
HETATM    7  C   UNL     1     -10.001   7.509  68.340  1.00  0.00    -0.170 C  
BRANCH   7   8
HETATM    8  S   UNL     1     -11.281   6.415  69.088  1.00  0.00    -0.288 SA 
BRANCH   8   9
HETATM    9  P   UNL     1     -11.332   6.793  71.173  1.00  0.00    -0.333 P  
HETATM   10  S   UNL     1      -9.541   5.890  71.497  1.00  0.00    -0.153 S  
BRANCH   9  11
HETATM   11  O   UNL     1     -11.181   8.431  70.961  1.00  0.00    -0.254 OA 
HETATM   12  C   UNL     1     -12.277   9.326  71.098  1.00  0.00    -0.301 C  
ENDBRANCH   9  11
BRANCH   9  13
HETATM   13  O   UNL     1     -11.372   7.100  72.875  1.00  0.00    -0.281 OA 
HETATM   14  C   UNL     1     -10.204   6.737  73.583  1.00  0.00    -0.326 C  
ENDBRANCH   9  13
ENDBRANCH   8   9
ENDBRANCH   7   8
BRANCH   7  15
HETATM   15  C   UNL     1      -9.055   6.596  67.572  1.00  0.00    -0.116 C  
HETATM   16  O   UNL     1      -8.244   5.839  68.087  1.00  0.00    -0.103 OA 
BRANCH  15  17
HETATM   17  O   UNL     1      -9.173   6.824  66.232  1.00  0.00    -0.163 OA 
BRANCH  17  18
HETATM   18  C   UNL     1      -7.961   6.671  65.484  1.00  0.00    -0.118 C  
HETATM   19  C   UNL     1      -7.268   8.021  65.438  1.00  0.00    -0.064 C  
ENDBRANCH  17  18
ENDBRANCH  15  17
ENDBRANCH   7  15
ENDBRANCH   6   7
ENDBRANCH   4   6
ENDBRANCH   3   4
ENDBRANCH   2   3
TORSDOF 11
ENDMDL
MODEL      301
REMARK 921   NORMALIZED FREE ENERGY PREDICTED BY IDOCK:   -2.64 KCAL/MOL
REMARK 922        TOTAL FREE ENERGY PREDICTED BY IDOCK:   -5.04 KCAL/MOL
REMARK 923 INTER-LIGAND FREE ENERGY PREDICTED BY IDOCK:   -4.10 KCAL/MOL
REMARK 924 INTRA-LIGAND FREE ENERGY PREDICTED BY IDOCK:   -0.94 KCAL/MOL
REMARK 927      BINDING AFFINITY PREDICTED BY RF-SCORE:    0.00 PKD
ROOT
HETATM    1  C   UNL     1     -10.049   4.684  66.110  1.00  0.00    -0.291 C  
HETATM    2  C   UNL     1     -10.681   5.888  66.787  1.00  0.00    -0.299 C  
ENDROOT
BRANCH   2   3
HETATM    3  O   UNL     1     -10.394   5.794  68.188  1.00  0.00    -0.177 OA 
BRANCH   3   4
HETATM    4  C   UNL     1      -9.572   6.748  68.692  1.00  0.00    -0.131 C  
HETATM    5  O   UNL     1      -8.379   6.616  68.938  1.00  0.00    -0.118 OA 
BRANCH   4   6
HETATM    6  C   UNL     1     -10.287   8.068  68.724  1.00  0.00    -0.223 C  
BRANCH   6   7
HETATM    7  C   UNL     1      -9.480   9.113  69.480  1.00  0.00    -0.168 C  
BRANCH   7   8
HETATM    8  S   UNL     1      -9.835  10.839  68.941  1.00  0.00    -0.189 SA 
BRANCH   8   9
HETATM    9  P   UNL     1      -8.206  11.507  67.761  1.00  0.00    -0.152 P  
HETATM   10  S   UNL     1      -7.041   9.921  68.264  1.00  0.00    -0.077 S  
BRANCH   9  11
HETATM   11  O   UNL     1      -9.028  11.260  66.342  1.00  0.00    -0.176 OA 
HETATM   12  C   UNL     1     -10.427  11.014  66.299  1.00  0.00    -0.254 C  
ENDBRANCH   9  11
BRANCH   9  13
HETATM   13  O   UNL     1      -6.875  12.053  66.799  1.00  0.00    -0.083 OA 
HETATM   14  C   UNL     1      -6.132  11.033  66.161  1.00  0.00    -0.119 C  
ENDBRANCH   9  13
ENDBRANCH   8   9
ENDBRANCH   7   8
BRANCH   7  15
HETATM   15  C   UNL     1      -9.847   9.043  70.957  1.00  0.00    -0.282 C  
HETATM   16  O   UNL     1      -9.042   8.937  71.872  1.00  0.00    -0.331 OA 
BRANCH  15  17
HETATM   17  O   UNL     1     -11.203   9.012  71.099  1.00  0.00    -0.260 OA 
BRANCH  17  18
HETATM   18  C   UNL     1     -11.678   8.217  72.192  1.00  0.00    -0.365 C  
HETATM   19  C   UNL     1     -12.319   6.968  71.616  1.00  0.00    -0.407 C  
ENDBRANCH  17  18
ENDBRANCH  15  17
ENDBRANCH   7  15
ENDBRANCH   6   7
ENDBRANCH   4   6
ENDBRANCH   3   4
ENDBRANCH   2   3
TORSDOF 11
ENDMDL
MODEL      302
REMARK 921   NORMALIZED FREE ENERGY PREDICTED BY IDOCK:   -2.64 KCAL/MOL
REMARK 922        TOTAL FREE ENERGY PREDICTED BY IDOCK:   -5.04 KCAL/MOL
REMARK 923 INTER-LIGAND FREE ENERGY PREDICTED BY IDOCK:   -4.35 KCAL/MOL
REMARK 924 INTRA-LIGAND FREE ENERGY PREDICTED BY IDOCK:   -0.69 KCAL/MOL
REMARK 927      BINDING AFFINITY PREDICTED BY RF-SCORE:    0.00 PKD
ROOT
HETATM    1  C   UNL     1      -8.110   5.586  66.353  1.00  0.00    -0.105 C  
HETATM    2  C   UNL     1      -9.253   6.583  66.288  1.00  0.00    -0.133 C  
ENDROOT
BRANCH   2   3
HETATM    3  O   UNL     1      -8.679   7.888  66.142  1.00  0.00    -0.143 OA 
BRANCH   3   4
HETATM    4  C   UNL     1      -9.557   8.910  65.989  1.00  0.00    -0.250 C  
HETATM    5  O   UNL     1      -9.674   9.618  64.996  1.00  0.00    -0.289 OA 
BRANCH   4   6
HETATM    6  C   UNL     1     -10.515   8.932  67.144  1.00  0.00    -0.344 C  
BRANCH   6   7
HETATM    7  C   UNL     1      -9.832   9.406  68.419  1.00  0.00    -0.160 C  
BRANCH   7   8
HETATM    8  S   UNL     1      -9.570  11.229  68.471  1.00  0.00    -0.189 SA 
BRANCH   8   9
HETATM    9  P   UNL     1     -10.988  12.133  67.181  1.00  0.00    -0.302 P  
HETATM   10  S   UNL     1     -11.696  13.364  68.634  1.00  0.00    -0.367 S  
BRANCH   9  11
HETATM   11  O   UNL     1      -9.812  12.856  66.263  1.00  0.00    -0.264 OA 
HETATM   12  C   UNL     1      -8.500  13.102  66.751  1.00  0.00     0.016 C  
ENDBRANCH   9  11
BRANCH   9  13
HETATM   13  O   UNL     1     -12.147  12.872  66.130  1.00  0.00    -0.420 OA 
HETATM   14  C   UNL     1     -11.780  12.920  64.765  1.00  0.00    -0.346 C  
ENDBRANCH   9  13
ENDBRANCH   8   9
ENDBRANCH   7   8
BRANCH   7  15
HETATM   15  C   UNL     1     -10.722   9.068  69.608  1.00  0.00    -0.219 C  
HETATM   16  O   UNL     1     -10.861   9.773  70.598  1.00  0.00    -0.285 OA 
BRANCH  15  17
HETATM   17  O   UNL     1     -11.255   7.823  69.452  1.00  0.00    -0.026 OA 
BRANCH  17  18
HETATM   18  C   UNL     1     -11.971   7.325  70.589  1.00  0.00    -0.220 C  
HETATM   19  C   UNL     1     -11.391   5.968  70.945  1.00  0.00    -0.299 C  
ENDBRANCH  17  18
ENDBRANCH  15  17
ENDBRANCH   7  15
ENDBRANCH   6   7
ENDBRANCH   4   6
ENDBRANCH   3   4
ENDBRANCH   2   3
TORSDOF 11
ENDMDL
MODEL      303
REMARK 921   NORMALIZED FREE ENERGY PREDICTED BY IDOCK:   -2.63 KCAL/MOL
REMARK 922        TOTAL FREE ENERGY PREDICTED BY IDOCK:   -5.02 KCAL/MOL
REMARK 923 INTER-LIGAND FREE ENERGY PREDICTED BY IDOCK:   -4.24 KCAL/MOL
REMARK 924 INTRA-LIGAND FREE ENERGY PREDICTED BY IDOCK:   -0.78 KCAL/MOL
REMARK 927      BINDING AFFINITY PREDICTED BY RF-SCORE:    0.00 PKD
ROOT
HETATM    1  C   UNL     1     -10.974  11.665  65.319  1.00  0.00    -0.327 C  
HETATM    2  C   UNL     1     -10.722  12.524  66.545  1.00  0.00    -0.240 C  
ENDROOT
BRANCH   2   3
HETATM    3  O   UNL     1     -10.841  11.679  67.696  1.00  0.00    -0.203 OA 
BRANCH   3   4
HETATM    4  C   UNL     1      -9.734  10.970  68.029  1.00  0.00    -0.172 C  
HETATM    5  O   UNL     1      -8.654  11.434  68.371  1.00  0.00    -0.146 OA 
BRANCH   4   6
HETATM    6  C   UNL     1     -10.076   9.510  68.115  1.00  0.00    -0.214 C  
BRANCH   6   7
HETATM    7  C   UNL     1      -8.973   8.725  68.811  1.00  0.00    -0.138 C  
BRANCH   7   8
HETATM    8  S   UNL     1      -9.256   8.520  70.620  1.00  0.00    -0.175 SA 
BRANCH   8   9
HETATM    9  P   UNL     1     -11.347   8.567  70.968  1.00  0.00    -0.280 P  
HETATM   10  S   UNL     1     -11.189   7.597  72.745  1.00  0.00    -0.365 S  
BRANCH   9  11
HETATM   11  O   UNL     1     -11.360  10.215  71.149  1.00  0.00    -0.346 OA 
HETATM   12  C   UNL     1     -12.505  11.009  70.868  1.00  0.00    -0.410 C  
ENDBRANCH   9  11
BRANCH   9  13
HETATM   13  O   UNL     1     -13.053   8.604  71.252  1.00  0.00    -0.272 OA 
HETATM   14  C   UNL     1     -13.657   7.345  71.469  1.00  0.00    -0.370 C  
ENDBRANCH   9  13
ENDBRANCH   8   9
ENDBRANCH   7   8
BRANCH   7  15
HETATM   15  C   UNL     1      -8.925   7.321  68.224  1.00  0.00    -0.125 C  
HETATM   16  O   UNL     1      -8.933   7.064  67.028  1.00  0.00    -0.119 OA 
BRANCH  15  17
HETATM   17  O   UNL     1      -8.976   6.395  69.224  1.00  0.00    -0.133 OA 
BRANCH  17  18
HETATM   18  C   UNL     1      -9.334   5.072  68.806  1.00  0.00    -0.130 C  
HETATM   19  C   UNL     1      -8.238   4.128  69.264  1.00  0.00    -0.074 C  
ENDBRANCH  17  18
ENDBRANCH  15  17
ENDBRANCH   7  15
ENDBRANCH   6   7
ENDBRANCH   4   6
ENDBRANCH   3   4
ENDBRANCH   2   3
TORSDOF 11
ENDMDL
MODEL      304
REMARK 921   NORMALIZED FREE ENERGY PREDICTED BY IDOCK:   -2.63 KCAL/MOL
REMARK 922        TOTAL FREE ENERGY PREDICTED BY IDOCK:   -5.02 KCAL/MOL
REMARK 923 INTER-LIGAND FREE ENERGY PREDICTED BY IDOCK:   -4.15 KCAL/MOL
REMARK 924 INTRA-LIGAND FREE ENERGY PREDICTED BY IDOCK:   -0.88 KCAL/MOL
REMARK 927      BINDING AFFINITY PREDICTED BY RF-SCORE:    0.00 PKD
ROOT
HETATM    1  C   UNL     1      -5.660  13.045  70.780  1.00  0.00    -0.183 C  
HETATM    2  C   UNL     1      -5.630  11.670  70.137  1.00  0.00    -0.127 C  
ENDROOT
BRANCH   2   3
HETATM    3  O   UNL     1      -6.367  10.781  70.985  1.00  0.00    -0.346 OA 
BRANCH   3   4
HETATM    4  C   UNL     1      -6.866   9.669  70.391  1.00  0.00    -0.120 C  
HETATM    5  O   UNL     1      -7.219   8.643  70.960  1.00  0.00    -0.062 OA 
BRANCH   4   6
HETATM    6  C   UNL     1      -7.115   9.941  68.936  1.00  0.00    -0.071 C  
BRANCH   6   7
HETATM    7  C   UNL     1      -8.516   9.509  68.526  1.00  0.00    -0.119 C  
BRANCH   7   8
HETATM    8  S   UNL     1      -9.840  10.596  69.203  1.00  0.00    -0.169 SA 
BRANCH   8   9
HETATM    9  P   UNL     1     -10.837   9.536  70.744  1.00  0.00    -0.357 P  
HETATM   10  S   UNL     1     -12.443  10.779  70.720  1.00  0.00    -0.409 S  
BRANCH   9  11
HETATM   11  O   UNL     1     -11.061   8.198  69.789  1.00  0.00    -0.183 OA 
HETATM   12  C   UNL     1     -10.549   6.918  70.131  1.00  0.00    -0.220 C  
ENDBRANCH   9  11
BRANCH   9  13
HETATM   13  O   UNL     1     -11.651   8.671  72.003  1.00  0.00    -0.323 OA 
HETATM   14  C   UNL     1     -12.943   9.147  72.326  1.00  0.00    -0.420 C  
ENDBRANCH   9  13
ENDBRANCH   8   9
ENDBRANCH   7   8
BRANCH   7  15
HETATM   15  C   UNL     1      -8.631   9.589  67.010  1.00  0.00    -0.128 C  
HETATM   16  O   UNL     1      -7.684   9.554  66.235  1.00  0.00    -0.099 OA 
BRANCH  15  17
HETATM   17  O   UNL     1      -9.928   9.809  66.651  1.00  0.00    -0.202 OA 
BRANCH  17  18
HETATM   18  C   UNL     1     -10.108  10.350  65.337  1.00  0.00    -0.284 C  
HETATM   19  C   UNL     1     -10.568  11.789  65.485  1.00  0.00    -0.323 C  
ENDBRANCH  17  18
ENDBRANCH  15  17
ENDBRANCH   7  15
ENDBRANCH   6   7
ENDBRANCH   4   6
ENDBRANCH   3   4
ENDBRANCH   2   3
TORSDOF 11
ENDMDL
MODEL      305
REMARK 921   NORMALIZED FREE ENERGY PREDICTED BY IDOCK:   -2.60 KCAL/MOL
REMARK 922        TOTAL FREE ENERGY PREDICTED BY IDOCK:   -4.97 KCAL/MOL
REMARK 923 INTER-LIGAND FREE ENERGY PREDICTED BY IDOCK:   -4.27 KCAL/MOL
REMARK 924 INTRA-LIGAND FREE ENERGY PREDICTED BY IDOCK:   -0.71 KCAL/MOL
REMARK 927      BINDING AFFINITY PREDICTED BY RF-SCORE:    0.00 PKD
ROOT
HETATM    1  C   UNL     1      -8.730  10.857  66.799  1.00  0.00    -0.147 C  
HETATM    2  C   UNL     1      -8.096  11.032  68.168  1.00  0.00    -0.122 C  
ENDROOT
BRANCH   2   3
HETATM    3  O   UNL     1      -8.798  10.179  69.081  1.00  0.00    -0.152 OA 
BRANCH   3   4
HETATM    4  C   UNL     1      -8.072   9.687  70.114  1.00  0.00    -0.189 C  
HETATM    5  O   UNL     1      -7.144  10.253  70.680  1.00  0.00    -0.322 OA 
BRANCH   4   6
HETATM    6  C   UNL     1      -8.694   8.413  70.609  1.00  0.00    -0.158 C  
BRANCH   6   7
HETATM    7  C   UNL     1     -10.191   8.388  70.333  1.00  0.00    -0.197 C  
BRANCH   7   8
HETATM    8  S   UNL     1     -10.812   6.725  69.839  1.00  0.00    -0.288 SA 
BRANCH   8   9
HETATM    9  P   UNL     1      -9.476   5.270  70.607  1.00  0.00    -0.188 P  
HETATM   10  S   UNL     1     -10.509   5.072  72.345  1.00  0.00    -0.215 S  
BRANCH   9  11
HETATM   11  O   UNL     1      -9.926   4.143  69.476  1.00  0.00    -0.177 OA 
HETATM   12  C   UNL     1      -9.471   4.183  68.131  1.00  0.00    -0.158 C  
ENDBRANCH   9  11
BRANCH   9  13
HETATM   13  O   UNL     1      -8.386   4.082  71.236  1.00  0.00    -0.077 OA 
HETATM   14  C   UNL     1      -8.222   4.095  72.640  1.00  0.00    -0.096 C  
ENDBRANCH   9  13
ENDBRANCH   8   9
ENDBRANCH   7   8
BRANCH   7  15
HETATM   15  C   UNL     1     -10.932   8.759  71.610  1.00  0.00    -0.321 C  
HETATM   16  O   UNL     1     -10.479   8.639  72.740  1.00  0.00    -0.165 OA 
BRANCH  15  17
HETATM   17  O   UNL     1     -12.206   9.145  71.315  1.00  0.00    -0.307 OA 
BRANCH  17  18
HETATM   18  C   UNL     1     -13.148   8.991  72.384  1.00  0.00    -0.423 C  
HETATM   19  C   UNL     1     -14.360   8.261  71.835  1.00  0.00    -0.564 C  
ENDBRANCH  17  18
ENDBRANCH  15  17
ENDBRANCH   7  15
ENDBRANCH   6   7
ENDBRANCH   4   6
ENDBRANCH   3   4
ENDBRANCH   2   3
TORSDOF 11
ENDMDL
MODEL      306
REMARK 921   NORMALIZED FREE ENERGY PREDICTED BY IDOCK:   -2.60 KCAL/MOL
REMARK 922        TOTAL FREE ENERGY PREDICTED BY IDOCK:   -4.97 KCAL/MOL
REMARK 923 INTER-LIGAND FREE ENERGY PREDICTED BY IDOCK:   -4.37 KCAL/MOL
REMARK 924 INTRA-LIGAND FREE ENERGY PREDICTED BY IDOCK:   -0.61 KCAL/MOL
REMARK 927      BINDING AFFINITY PREDICTED BY RF-SCORE:    0.00 PKD
ROOT
HETATM    1  C   UNL     1      -5.910  10.055  70.986  1.00  0.00    -0.073 C  
HETATM    2  C   UNL     1      -6.312   8.880  71.859  1.00  0.00    -0.061 C  
ENDROOT
BRANCH   2   3
HETATM    3  O   UNL     1      -7.707   9.019  72.154  1.00  0.00    -0.351 OA 
BRANCH   3   4
HETATM    4  C   UNL     1      -8.401   7.865  72.309  1.00  0.00    -0.131 C  
HETATM    5  O   UNL     1      -7.928   6.735  72.333  1.00  0.00    -0.098 OA 
BRANCH   4   6
HETATM    6  C   UNL     1      -9.829   8.175  72.652  1.00  0.00    -0.364 C  
BRANCH   6   7
HETATM    7  C   UNL     1     -10.719   8.106  71.418  1.00  0.00    -0.232 C  
BRANCH   7   8
HETATM    8  S   UNL     1      -9.808   8.399  69.845  1.00  0.00    -0.189 SA 
BRANCH   8   9
HETATM    9  P   UNL     1     -10.101  10.422  69.282  1.00  0.00    -0.207 P  
HETATM   10  S   UNL     1     -10.648   9.937  67.387  1.00  0.00    -0.265 S  
BRANCH   9  11
HETATM   11  O   UNL     1     -11.407  10.596  70.289  1.00  0.00    -0.298 OA 
HETATM   12  C   UNL     1     -12.154  11.802  70.375  1.00  0.00    -0.352 C  
ENDBRANCH   9  11
BRANCH   9  13
HETATM   13  O   UNL     1     -10.339  12.072  68.823  1.00  0.00    -0.218 OA 
HETATM   14  C   UNL     1      -9.889  12.409  67.525  1.00  0.00    -0.194 C  
ENDBRANCH   9  13
ENDBRANCH   8   9
ENDBRANCH   7   8
BRANCH   7  15
HETATM   15  C   UNL     1     -11.308   6.705  71.316  1.00  0.00    -0.299 C  
HETATM   16  O   UNL     1     -12.154   6.246  72.073  1.00  0.00    -0.337 OA 
BRANCH  15  17
HETATM   17  O   UNL     1     -10.681   6.006  70.327  1.00  0.00    -0.249 OA 
BRANCH  17  18
HETATM   18  C   UNL     1     -10.102   4.763  70.739  1.00  0.00    -0.216 C  
HETATM   19  C   UNL     1      -9.293   4.218  69.576  1.00  0.00    -0.232 C  
ENDBRANCH  17  18
ENDBRANCH  15  17
ENDBRANCH   7  15
ENDBRANCH   6   7
ENDBRANCH   4   6
ENDBRANCH   3   4
ENDBRANCH   2   3
TORSDOF 11
ENDMDL
MODEL      307
REMARK 921   NORMALIZED FREE ENERGY PREDICTED BY IDOCK:   -2.60 KCAL/MOL
REMARK 922        TOTAL FREE ENERGY PREDICTED BY IDOCK:   -4.97 KCAL/MOL
REMARK 923 INTER-LIGAND FREE ENERGY PREDICTED BY IDOCK:   -4.23 KCAL/MOL
REMARK 924 INTRA-LIGAND FREE ENERGY PREDICTED BY IDOCK:   -0.74 KCAL/MOL
REMARK 927      BINDING AFFINITY PREDICTED BY RF-SCORE:    0.00 PKD
ROOT
HETATM    1  C   UNL     1     -10.227   4.261  65.511  1.00  0.00    -0.224 C  
HETATM    2  C   UNL     1      -9.765   4.336  66.956  1.00  0.00    -0.206 C  
ENDROOT
BRANCH   2   3
HETATM    3  O   UNL     1     -10.652   5.224  67.647  1.00  0.00    -0.156 OA 
BRANCH   3   4
HETATM    4  C   UNL     1     -10.408   5.398  68.970  1.00  0.00    -0.212 C  
HETATM    5  O   UNL     1      -9.461   4.939  69.596  1.00  0.00    -0.121 OA 
BRANCH   4   6
HETATM    6  C   UNL     1     -11.365   6.410  69.531  1.00  0.00    -0.460 C  
BRANCH   6   7
HETATM    7  C   UNL     1     -10.623   7.566  70.186  1.00  0.00    -0.235 C  
BRANCH   7   8
HETATM    8  S   UNL     1     -10.459   9.040  69.093  1.00  0.00    -0.208 SA 
BRANCH   8   9
HETATM    9  P   UNL     1      -8.781   8.739  67.833  1.00  0.00    -0.136 P  
HETATM   10  S   UNL     1      -9.757   9.403  66.180  1.00  0.00    -0.279 S  
BRANCH   9  11
HETATM   11  O   UNL     1      -7.908   9.940  68.573  1.00  0.00    -0.080 OA 
HETATM   12  C   UNL     1      -7.662   9.957  69.973  1.00  0.00    -0.178 C  
ENDBRANCH   9  11
BRANCH   9  13
HETATM   13  O   UNL     1      -7.412   8.494  66.803  1.00  0.00    -0.082 OA 
HETATM   14  C   UNL     1      -6.830   9.671  66.280  1.00  0.00    -0.091 C  
ENDBRANCH   9  13
ENDBRANCH   8   9
ENDBRANCH   7   8
BRANCH   7  15
HETATM   15  C   UNL     1     -11.409   8.026  71.407  1.00  0.00    -0.256 C  
HETATM   16  O   UNL     1     -11.560   9.193  71.742  1.00  0.00    -0.349 OA 
BRANCH  15  17
HETATM   17  O   UNL     1     -11.830   6.945  72.124  1.00  0.00    -0.288 OA 
BRANCH  17  18
HETATM   18  C   UNL     1     -10.883   6.446  73.077  1.00  0.00    -0.259 C  
HETATM   19  C   UNL     1     -11.132   4.958  73.245  1.00  0.00    -0.410 C  
ENDBRANCH  17  18
ENDBRANCH  15  17
ENDBRANCH   7  15
ENDBRANCH   6   7
ENDBRANCH   4   6
ENDBRANCH   3   4
ENDBRANCH   2   3
TORSDOF 11
ENDMDL
MODEL      308
REMARK 921   NORMALIZED FREE ENERGY PREDICTED BY IDOCK:   -2.60 KCAL/MOL
REMARK 922        TOTAL FREE ENERGY PREDICTED BY IDOCK:   -4.97 KCAL/MOL
REMARK 923 INTER-LIGAND FREE ENERGY PREDICTED BY IDOCK:   -4.19 KCAL/MOL
REMARK 924 INTRA-LIGAND FREE ENERGY PREDICTED BY IDOCK:   -0.77 KCAL/MOL
REMARK 927      BINDING AFFINITY PREDICTED BY RF-SCORE:    0.00 PKD
ROOT
HETATM    1  C   UNL     1     -13.399  11.594  71.760  1.00  0.00    -0.340 C  
HETATM    2  C   UNL     1     -12.825  10.198  71.588  1.00  0.00    -0.454 C  
ENDROOT
BRANCH   2   3
HETATM    3  O   UNL     1     -11.535  10.335  70.979  1.00  0.00    -0.350 OA 
BRANCH   3   4
HETATM    4  C   UNL     1     -10.633   9.366  71.272  1.00  0.00    -0.330 C  
HETATM    5  O   UNL     1     -10.622   8.670  72.280  1.00  0.00    -0.334 OA 
BRANCH   4   6
HETATM    6  C   UNL     1      -9.747   9.124  70.084  1.00  0.00    -0.234 C  
BRANCH   6   7
HETATM    7  C   UNL     1     -10.514   8.452  68.953  1.00  0.00    -0.189 C  
BRANCH   7   8
HETATM    8  S   UNL     1     -10.749   9.541  67.486  1.00  0.00    -0.174 SA 
BRANCH   8   9
HETATM    9  P   UNL     1      -9.601  11.298  67.780  1.00  0.00    -0.182 P  
HETATM   10  S   UNL     1      -8.379  10.903  66.206  1.00  0.00    -0.165 S  
BRANCH   9  11
HETATM   11  O   UNL     1     -10.864  12.289  67.364  1.00  0.00    -0.226 OA 
HETATM   12  C   UNL     1     -11.875  12.671  68.286  1.00  0.00    -0.306 C  
ENDBRANCH   9  11
BRANCH   9  13
HETATM   13  O   UNL     1      -8.663  12.732  68.020  1.00  0.00    -0.178 OA 
HETATM   14  C   UNL     1      -8.607  13.610  66.914  1.00  0.00    -0.104 C  
ENDBRANCH   9  13
ENDBRANCH   8   9
ENDBRANCH   7   8
BRANCH   7  15
HETATM   15  C   UNL     1      -9.718   7.248  68.469  1.00  0.00    -0.149 C  
HETATM   16  O   UNL     1     -10.177   6.125  68.312  1.00  0.00    -0.145 OA 
BRANCH  15  17
HETATM   17  O   UNL     1      -8.402   7.581  68.336  1.00  0.00    -0.124 OA 
BRANCH  17  18
HETATM   18  C   UNL     1      -7.683   6.825  67.355  1.00  0.00    -0.110 C  
HETATM   19  C   UNL     1      -7.909   7.480  66.005  1.00  0.00    -0.101 C  
ENDBRANCH  17  18
ENDBRANCH  15  17
ENDBRANCH   7  15
ENDBRANCH   6   7
ENDBRANCH   4   6
ENDBRANCH   3   4
ENDBRANCH   2   3
TORSDOF 11
ENDMDL
MODEL      309
REMARK 921   NORMALIZED FREE ENERGY PREDICTED BY IDOCK:   -2.59 KCAL/MOL
REMARK 922        TOTAL FREE ENERGY PREDICTED BY IDOCK:   -4.96 KCAL/MOL
REMARK 923 INTER-LIGAND FREE ENERGY PREDICTED BY IDOCK:   -4.37 KCAL/MOL
REMARK 924 INTRA-LIGAND FREE ENERGY PREDICTED BY IDOCK:   -0.59 KCAL/MOL
REMARK 927      BINDING AFFINITY PREDICTED BY RF-SCORE:    0.00 PKD
ROOT
HETATM    1  C   UNL     1     -11.656   8.969  71.588  1.00  0.00    -0.426 C  
HETATM    2  C   UNL     1     -11.561  10.086  70.564  1.00  0.00    -0.323 C  
ENDROOT
BRANCH   2   3
HETATM    3  O   UNL     1     -10.183  10.217  70.194  1.00  0.00    -0.255 OA 
BRANCH   3   4
HETATM    4  C   UNL     1      -9.913  10.139  68.868  1.00  0.00    -0.199 C  
HETATM    5  O   UNL     1     -10.727   9.939  67.975  1.00  0.00    -0.224 OA 
BRANCH   4   6
HETATM    6  C   UNL     1      -8.485  10.532  68.619  1.00  0.00    -0.138 C  
BRANCH   6   7
HETATM    7  C   UNL     1      -8.385  11.572  67.512  1.00  0.00    -0.143 C  
BRANCH   7   8
HETATM    8  S   UNL     1      -9.519  13.004  67.752  1.00  0.00    -0.217 SA 
BRANCH   8   9
HETATM    9  P   UNL     1     -10.319  13.532  65.862  1.00  0.00    -0.308 P  
HETATM   10  S   UNL     1     -12.240  13.327  66.488  1.00  0.00    -0.257 S  
BRANCH   9  11
HETATM   11  O   UNL     1      -9.782  15.097  65.982  1.00  0.00    -0.287 OA 
HETATM   12  C   UNL     1      -9.449  15.700  67.225  1.00  0.00    -0.216 C  
ENDBRANCH   9  11
BRANCH   9  13
HETATM   13  O   UNL     1     -10.973  13.963  64.319  1.00  0.00    -0.347 OA 
HETATM   14  C   UNL     1     -12.263  14.541  64.349  1.00  0.00    -0.458 C  
ENDBRANCH   9  13
ENDBRANCH   8   9
ENDBRANCH   7   8
BRANCH   7  15
HETATM   15  C   UNL     1      -6.973  12.142  67.501  1.00  0.00    -0.138 C  
HETATM   16  O   UNL     1      -6.002  11.593  66.998  1.00  0.00    -0.109 OA 
BRANCH  15  17
HETATM   17  O   UNL     1      -6.932  13.299  68.222  1.00  0.00    -0.085 OA 
BRANCH  17  18
HETATM   18  C   UNL     1      -6.062  13.272  69.360  1.00  0.00    -0.106 C  
HETATM   19  C   UNL     1      -5.987  14.680  69.922  1.00  0.00    -0.132 C  
ENDBRANCH  17  18
ENDBRANCH  15  17
ENDBRANCH   7  15
ENDBRANCH   6   7
ENDBRANCH   4   6
ENDBRANCH   3   4
ENDBRANCH   2   3
TORSDOF 11
ENDMDL
MODEL      310
REMARK 921   NORMALIZED FREE ENERGY PREDICTED BY IDOCK:   -2.59 KCAL/MOL
REMARK 922        TOTAL FREE ENERGY PREDICTED BY IDOCK:   -4.95 KCAL/MOL
REMARK 923 INTER-LIGAND FREE ENERGY PREDICTED BY IDOCK:   -5.07 KCAL/MOL
REMARK 924 INTRA-LIGAND FREE ENERGY PREDICTED BY IDOCK:    0.12 KCAL/MOL
REMARK 927      BINDING AFFINITY PREDICTED BY RF-SCORE:    0.00 PKD
ROOT
HETATM    1  C   UNL     1      -6.022  14.714  70.482  1.00  0.00    -0.172 C  
HETATM    2  C   UNL     1      -5.842  15.765  69.401  1.00  0.00    -0.124 C  
ENDROOT
BRANCH   2   3
HETATM    3  O   UNL     1      -7.117  16.383  69.184  1.00  0.00    -0.203 OA 
BRANCH   3   4
HETATM    4  C   UNL     1      -8.049  15.621  68.562  1.00  0.00    -0.147 C  
HETATM    5  O   UNL     1      -9.134  15.286  69.023  1.00  0.00    -0.197 OA 
BRANCH   4   6
HETATM    6  C   UNL     1      -7.650  15.402  67.131  1.00  0.00    -0.238 C  
BRANCH   6   7
HETATM    7  C   UNL     1      -8.556  16.174  66.182  1.00  0.00    -0.296 C  
BRANCH   7   8
HETATM    8  S   UNL     1     -10.322  15.659  66.279  1.00  0.00    -0.321 SA 
BRANCH   8   9
HETATM    9  P   UNL     1     -10.405  13.551  66.071  1.00  0.00    -0.313 P  
HETATM   10  S   UNL     1     -12.060  13.385  67.236  1.00  0.00    -0.245 S  
BRANCH   9  11
HETATM   11  O   UNL     1     -10.778  13.645  64.458  1.00  0.00    -0.399 OA 
HETATM   12  C   UNL     1     -11.996  13.148  63.922  1.00  0.00    -0.488 C  
ENDBRANCH   9  11
BRANCH   9  13
HETATM   13  O   UNL     1     -10.472  11.831  65.902  1.00  0.00    -0.238 OA 
HETATM   14  C   UNL     1     -10.968  11.132  67.027  1.00  0.00    -0.289 C  
ENDBRANCH   9  13
ENDBRANCH   8   9
ENDBRANCH   7   8
BRANCH   7  15
HETATM   15  C   UNL     1      -8.519  17.649  66.560  1.00  0.00    -0.264 C  
HETATM   16  O   UNL     1      -9.228  18.169  67.411  1.00  0.00    -0.254 OA 
BRANCH  15  17
HETATM   17  O   UNL     1      -7.659  18.319  65.741  1.00  0.00    -0.509 OA 
BRANCH  17  18
HETATM   18  C   UNL     1      -6.281  18.257  66.132  1.00  0.00    -0.207 C  
HETATM   19  C   UNL     1      -5.881  19.628  66.645  1.00  0.00    -0.168 C  
ENDBRANCH  17  18
ENDBRANCH  15  17
ENDBRANCH   7  15
ENDBRANCH   6   7
ENDBRANCH   4   6
ENDBRANCH   3   4
ENDBRANCH   2   3
TORSDOF 11
ENDMDL
MODEL      311
REMARK 921   NORMALIZED FREE ENERGY PREDICTED BY IDOCK:   -2.58 KCAL/MOL
REMARK 922        TOTAL FREE ENERGY PREDICTED BY IDOCK:   -4.94 KCAL/MOL
REMARK 923 INTER-LIGAND FREE ENERGY PREDICTED BY IDOCK:   -4.36 KCAL/MOL
REMARK 924 INTRA-LIGAND FREE ENERGY PREDICTED BY IDOCK:   -0.58 KCAL/MOL
REMARK 927      BINDING AFFINITY PREDICTED BY RF-SCORE:    0.00 PKD
ROOT
HETATM    1  C   UNL     1      -5.741  14.220  68.228  1.00  0.00    -0.117 C  
HETATM    2  C   UNL     1      -6.482  13.205  69.080  1.00  0.00    -0.103 C  
ENDROOT
BRANCH   2   3
HETATM    3  O   UNL     1      -7.516  12.635  68.268  1.00  0.00    -0.106 OA 
BRANCH   3   4
HETATM    4  C   UNL     1      -7.195  11.494  67.609  1.00  0.00    -0.103 C  
HETATM    5  O   UNL     1      -6.642  11.421  66.519  1.00  0.00    -0.129 OA 
BRANCH   4   6
HETATM    6  C   UNL     1      -7.434  10.310  68.501  1.00  0.00    -0.084 C  
BRANCH   6   7
HETATM    7  C   UNL     1      -8.921  10.017  68.641  1.00  0.00    -0.136 C  
BRANCH   7   8
HETATM    8  S   UNL     1      -9.890  10.423  67.127  1.00  0.00    -0.188 SA 
BRANCH   8   9
HETATM    9  P   UNL     1     -11.123  12.092  67.565  1.00  0.00    -0.318 P  
HETATM   10  S   UNL     1     -11.588  12.406  65.613  1.00  0.00    -0.399 S  
BRANCH   9  11
HETATM   11  O   UNL     1     -12.252  11.156  68.339  1.00  0.00    -0.610 OA 
HETATM   12  C   UNL     1     -12.333  11.066  69.755  1.00  0.00    -0.262 C  
ENDBRANCH   9  11
BRANCH   9  13
HETATM   13  O   UNL     1     -12.128  13.454  67.921  1.00  0.00    -0.338 OA 
HETATM   14  C   UNL     1     -11.817  14.637  67.211  1.00  0.00    -0.351 C  
ENDBRANCH   9  13
ENDBRANCH   8   9
ENDBRANCH   7   8
BRANCH   7  15
HETATM   15  C   UNL     1      -9.107   8.524  68.878  1.00  0.00    -0.146 C  
HETATM   16  O   UNL     1      -8.349   7.653  68.473  1.00  0.00    -0.127 OA 
BRANCH  15  17
HETATM   17  O   UNL     1     -10.291   8.297  69.516  1.00  0.00    -0.210 OA 
BRANCH  17  18
HETATM   18  C   UNL     1     -10.451   6.974  70.041  1.00  0.00    -0.215 C  
HETATM   19  C   UNL     1     -11.828   6.887  70.674  1.00  0.00    -0.418 C  
ENDBRANCH  17  18
ENDBRANCH  15  17
ENDBRANCH   7  15
ENDBRANCH   6   7
ENDBRANCH   4   6
ENDBRANCH   3   4
ENDBRANCH   2   3
TORSDOF 11
ENDMDL
MODEL      312
REMARK 921   NORMALIZED FREE ENERGY PREDICTED BY IDOCK:   -2.58 KCAL/MOL
REMARK 922        TOTAL FREE ENERGY PREDICTED BY IDOCK:   -4.93 KCAL/MOL
REMARK 923 INTER-LIGAND FREE ENERGY PREDICTED BY IDOCK:   -4.11 KCAL/MOL
REMARK 924 INTRA-LIGAND FREE ENERGY PREDICTED BY IDOCK:   -0.83 KCAL/MOL
REMARK 927      BINDING AFFINITY PREDICTED BY RF-SCORE:    0.00 PKD
ROOT
HETATM    1  C   UNL     1      -9.876  11.727  66.328  1.00  0.00    -0.245 C  
HETATM    2  C   UNL     1     -10.551  10.527  66.967  1.00  0.00    -0.253 C  
ENDROOT
BRANCH   2   3
HETATM    3  O   UNL     1      -9.540   9.775  67.649  1.00  0.00    -0.142 OA 
BRANCH   3   4
HETATM    4  C   UNL     1      -9.876   8.511  68.005  1.00  0.00    -0.169 C  
HETATM    5  O   UNL     1     -10.856   7.887  67.615  1.00  0.00    -0.176 OA 
BRANCH   4   6
HETATM    6  C   UNL     1      -8.762   7.896  68.802  1.00  0.00    -0.128 C  
BRANCH   6   7
HETATM    7  C   UNL     1      -9.187   7.648  70.243  1.00  0.00    -0.157 C  
BRANCH   7   8
HETATM    8  S   UNL     1      -8.104   6.448  71.126  1.00  0.00    -0.118 SA 
BRANCH   8   9
HETATM    9  P   UNL     1      -9.250   4.716  71.549  1.00  0.00    -0.151 P  
HETATM   10  S   UNL     1     -10.250   5.609  73.075  1.00  0.00    -0.200 S  
BRANCH   9  11
HETATM   11  O   UNL     1     -10.075   4.814  70.113  1.00  0.00    -0.242 OA 
HETATM   12  C   UNL     1      -9.633   4.164  68.929  1.00  0.00    -0.152 C  
ENDBRANCH   9  11
BRANCH   9  13
HETATM   13  O   UNL     1     -10.186   3.303  71.895  1.00  0.00    -0.127 OA 
HETATM   14  C   UNL     1      -9.437   2.134  72.166  1.00  0.00    -0.101 C  
ENDBRANCH   9  13
ENDBRANCH   8   9
ENDBRANCH   7   8
BRANCH   7  15
HETATM   15  C   UNL     1      -9.092   8.958  71.015  1.00  0.00    -0.243 C  
HETATM   16  O   UNL     1      -8.102   9.675  71.053  1.00  0.00    -0.287 OA 
BRANCH  15  17
HETATM   17  O   UNL     1     -10.232   9.158  71.736  1.00  0.00    -0.338 OA 
BRANCH  17  18
HETATM   18  C   UNL     1     -11.278   9.842  71.036  1.00  0.00    -0.381 C  
HETATM   19  C   UNL     1     -12.563   9.658  71.823  1.00  0.00    -0.497 C  
ENDBRANCH  17  18
ENDBRANCH  15  17
ENDBRANCH   7  15
ENDBRANCH   6   7
ENDBRANCH   4   6
ENDBRANCH   3   4
ENDBRANCH   2   3
TORSDOF 11
ENDMDL
MODEL      313
REMARK 921   NORMALIZED FREE ENERGY PREDICTED BY IDOCK:   -2.57 KCAL/MOL
REMARK 922        TOTAL FREE ENERGY PREDICTED BY IDOCK:   -4.92 KCAL/MOL
REMARK 923 INTER-LIGAND FREE ENERGY PREDICTED BY IDOCK:   -4.52 KCAL/MOL
REMARK 924 INTRA-LIGAND FREE ENERGY PREDICTED BY IDOCK:   -0.40 KCAL/MOL
REMARK 927      BINDING AFFINITY PREDICTED BY RF-SCORE:    0.00 PKD
ROOT
HETATM    1  C   UNL     1      -7.243   5.851  68.955  1.00  0.00    -0.082 C  
HETATM    2  C   UNL     1      -8.162   7.017  68.636  1.00  0.00    -0.122 C  
ENDROOT
BRANCH   2   3
HETATM    3  O   UNL     1      -8.930   6.656  67.482  1.00  0.00    -0.116 OA 
BRANCH   3   4
HETATM    4  C   UNL     1      -9.676   7.646  66.930  1.00  0.00    -0.213 C  
HETATM    5  O   UNL     1     -10.884   7.800  67.063  1.00  0.00    -0.316 OA 
BRANCH   4   6
HETATM    6  C   UNL     1      -8.775   8.657  66.283  1.00  0.00    -0.165 C  
BRANCH   6   7
HETATM    7  C   UNL     1      -9.524   9.947  65.977  1.00  0.00    -0.202 C  
BRANCH   7   8
HETATM    8  S   UNL     1      -9.300  11.243  67.268  1.00  0.00    -0.167 SA 
BRANCH   8   9
HETATM    9  P   UNL     1     -11.000  12.509  67.228  1.00  0.00    -0.289 P  
HETATM   10  S   UNL     1     -11.729  11.778  68.978  1.00  0.00    -0.337 S  
BRANCH   9  11
HETATM   11  O   UNL     1     -10.087  13.875  67.448  1.00  0.00    -0.240 OA 
HETATM   12  C   UNL     1      -9.271  14.076  68.594  1.00  0.00    -0.119 C  
ENDBRANCH   9  11
BRANCH   9  13
HETATM   13  O   UNL     1     -12.388  13.541  67.196  1.00  0.00    -0.315 OA 
HETATM   14  C   UNL     1     -12.533  14.324  66.027  1.00  0.00    -0.369 C  
ENDBRANCH   9  13
ENDBRANCH   8   9
ENDBRANCH   7   8
BRANCH   7  15
HETATM   15  C   UNL     1      -8.980  10.535  64.682  1.00  0.00    -0.207 C  
HETATM   16  O   UNL     1      -8.012  10.102  64.071  1.00  0.00    -0.153 OA 
BRANCH  15  17
HETATM   17  O   UNL     1      -9.663  11.672  64.363  1.00  0.00    -0.234 OA 
BRANCH  17  18
HETATM   18  C   UNL     1     -10.367  11.624  63.116  1.00  0.00    -0.334 C  
HETATM   19  C   UNL     1     -11.803  12.039  63.377  1.00  0.00    -0.542 C  
ENDBRANCH  17  18
ENDBRANCH  15  17
ENDBRANCH   7  15
ENDBRANCH   6   7
ENDBRANCH   4   6
ENDBRANCH   3   4
ENDBRANCH   2   3
TORSDOF 11
ENDMDL
MODEL      314
REMARK 921   NORMALIZED FREE ENERGY PREDICTED BY IDOCK:   -2.56 KCAL/MOL
REMARK 922        TOTAL FREE ENERGY PREDICTED BY IDOCK:   -4.91 KCAL/MOL
REMARK 923 INTER-LIGAND FREE ENERGY PREDICTED BY IDOCK:   -4.26 KCAL/MOL
REMARK 924 INTRA-LIGAND FREE ENERGY PREDICTED BY IDOCK:   -0.65 KCAL/MOL
REMARK 927      BINDING AFFINITY PREDICTED BY RF-SCORE:    0.00 PKD
ROOT
HETATM    1  C   UNL     1      -9.247   6.879  72.613  1.00  0.00    -0.151 C  
HETATM    2  C   UNL     1     -10.328   7.734  71.975  1.00  0.00    -0.214 C  
ENDROOT
BRANCH   2   3
HETATM    3  O   UNL     1      -9.767   8.333  70.801  1.00  0.00    -0.167 OA 
BRANCH   3   4
HETATM    4  C   UNL     1     -10.356   9.480  70.379  1.00  0.00    -0.276 C  
HETATM    5  O   UNL     1     -11.463   9.888  70.710  1.00  0.00    -0.298 OA 
BRANCH   4   6
HETATM    6  C   UNL     1      -9.372  10.293  69.590  1.00  0.00    -0.167 C  
BRANCH   6   7
HETATM    7  C   UNL     1     -10.056  11.031  68.447  1.00  0.00    -0.184 C  
BRANCH   7   8
HETATM    8  S   UNL     1      -9.173  12.566  67.939  1.00  0.00    -0.206 SA 
BRANCH   8   9
HETATM    9  P   UNL     1     -10.162  13.359  66.239  1.00  0.00    -0.307 P  
HETATM   10  S   UNL     1     -11.967  13.411  67.169  1.00  0.00    -0.335 S  
BRANCH   9  11
HETATM   11  O   UNL     1      -9.357  14.805  66.347  1.00  0.00    -0.273 OA 
HETATM   12  C   UNL     1      -9.846  15.900  67.109  1.00  0.00    -0.231 C  
ENDBRANCH   9  11
BRANCH   9  13
HETATM   13  O   UNL     1     -10.969  14.006  64.853  1.00  0.00    -0.350 OA 
HETATM   14  C   UNL     1     -11.685  13.065  64.076  1.00  0.00    -0.436 C  
ENDBRANCH   9  13
ENDBRANCH   8   9
ENDBRANCH   7   8
BRANCH   7  15
HETATM   15  C   UNL     1     -10.079  10.125  67.223  1.00  0.00    -0.206 C  
HETATM   16  O   UNL     1     -11.055   9.495  66.839  1.00  0.00     0.009 OA 
BRANCH  15  17
HETATM   17  O   UNL     1      -8.830  10.041  66.682  1.00  0.00    -0.131 OA 
BRANCH  17  18
HETATM   18  C   UNL     1      -8.797   9.744  65.281  1.00  0.00    -0.175 C  
HETATM   19  C   UNL     1      -8.238   8.342  65.115  1.00  0.00    -0.158 C  
ENDBRANCH  17  18
ENDBRANCH  15  17
ENDBRANCH   7  15
ENDBRANCH   6   7
ENDBRANCH   4   6
ENDBRANCH   3   4
ENDBRANCH   2   3
TORSDOF 11
ENDMDL
MODEL      315
REMARK 921   NORMALIZED FREE ENERGY PREDICTED BY IDOCK:   -2.56 KCAL/MOL
REMARK 922        TOTAL FREE ENERGY PREDICTED BY IDOCK:   -4.91 KCAL/MOL
REMARK 923 INTER-LIGAND FREE ENERGY PREDICTED BY IDOCK:   -4.31 KCAL/MOL
REMARK 924 INTRA-LIGAND FREE ENERGY PREDICTED BY IDOCK:   -0.60 KCAL/MOL
REMARK 927      BINDING AFFINITY PREDICTED BY RF-SCORE:    0.00 PKD
ROOT
HETATM    1  C   UNL     1     -12.152  14.182  66.882  1.00  0.00    -0.466 C  
HETATM    2  C   UNL     1     -12.654  13.481  65.632  1.00  0.00    -0.459 C  
ENDROOT
BRANCH   2   3
HETATM    3  O   UNL     1     -12.013  12.202  65.567  1.00  0.00    -0.461 OA 
BRANCH   3   4
HETATM    4  C   UNL     1     -11.377  11.914  64.404  1.00  0.00    -0.326 C  
HETATM    5  O   UNL     1     -11.911  11.707  63.321  1.00  0.00    -0.359 OA 
BRANCH   4   6
HETATM    6  C   UNL     1      -9.896  12.078  64.583  1.00  0.00    -0.182 C  
BRANCH   6   7
HETATM    7  C   UNL     1      -9.350  11.084  65.598  1.00  0.00    -0.214 C  
BRANCH   7   8
HETATM    8  S   UNL     1      -8.019  10.006  64.919  1.00  0.00    -0.143 SA 
BRANCH   8   9
HETATM    9  P   UNL     1      -8.333   8.039  65.644  1.00  0.00    -0.137 P  
HETATM   10  S   UNL     1      -6.891   8.207  67.064  1.00  0.00    -0.071 S  
BRANCH   9  11
HETATM   11  O   UNL     1      -9.840   8.409  66.230  1.00  0.00    -0.245 OA 
HETATM   12  C   UNL     1     -10.423   7.728  67.332  1.00  0.00    -0.292 C  
ENDBRANCH   9  11
BRANCH   9  13
HETATM   13  O   UNL     1      -8.588   6.433  66.236  1.00  0.00    -0.128 OA 
HETATM   14  C   UNL     1      -8.919   5.472  65.253  1.00  0.00    -0.065 C  
ENDBRANCH   9  13
ENDBRANCH   8   9
ENDBRANCH   7   8
BRANCH   7  15
HETATM   15  C   UNL     1      -8.726  11.855  66.754  1.00  0.00    -0.193 C  
HETATM   16  O   UNL     1      -9.305  12.703  67.420  1.00  0.00    -0.178 OA 
BRANCH  15  17
HETATM   17  O   UNL     1      -7.405  11.538  66.867  1.00  0.00    -0.140 OA 
BRANCH  17  18
HETATM   18  C   UNL     1      -6.587  12.556  67.459  1.00  0.00    -0.150 C  
HETATM   19  C   UNL     1      -5.137  12.133  67.309  1.00  0.00    -0.099 C  
ENDBRANCH  17  18
ENDBRANCH  15  17
ENDBRANCH   7  15
ENDBRANCH   6   7
ENDBRANCH   4   6
ENDBRANCH   3   4
ENDBRANCH   2   3
TORSDOF 11
ENDMDL
MODEL      316
REMARK 921   NORMALIZED FREE ENERGY PREDICTED BY IDOCK:   -2.56 KCAL/MOL
REMARK 922        TOTAL FREE ENERGY PREDICTED BY IDOCK:   -4.91 KCAL/MOL
REMARK 923 INTER-LIGAND FREE ENERGY PREDICTED BY IDOCK:   -4.01 KCAL/MOL
REMARK 924 INTRA-LIGAND FREE ENERGY PREDICTED BY IDOCK:   -0.89 KCAL/MOL
REMARK 927      BINDING AFFINITY PREDICTED BY RF-SCORE:    0.00 PKD
ROOT
HETATM    1  C   UNL     1      -7.048   5.814  68.566  1.00  0.00    -0.077 C  
HETATM    2  C   UNL     1      -8.158   6.842  68.440  1.00  0.00    -0.119 C  
ENDROOT
BRANCH   2   3
HETATM    3  O   UNL     1      -9.277   6.194  67.823  1.00  0.00    -0.114 OA 
BRANCH   3   4
HETATM    4  C   UNL     1     -10.083   6.985  67.073  1.00  0.00    -0.229 C  
HETATM    5  O   UNL     1     -11.297   6.870  66.949  1.00  0.00    -0.269 OA 
BRANCH   4   6
HETATM    6  C   UNL     1      -9.303   8.162  66.561  1.00  0.00    -0.262 C  
BRANCH   6   7
HETATM    7  C   UNL     1     -10.229   9.290  66.128  1.00  0.00    -0.159 C  
BRANCH   7   8
HETATM    8  S   UNL     1     -10.388  10.626  67.387  1.00  0.00    -0.234 SA 
BRANCH   8   9
HETATM    9  P   UNL     1      -8.519  10.830  68.368  1.00  0.00    -0.150 P  
HETATM   10  S   UNL     1      -8.566  12.859  68.284  1.00  0.00    -0.138 S  
BRANCH   9  11
HETATM   11  O   UNL     1      -9.117  10.245  69.800  1.00  0.00    -0.175 OA 
HETATM   12  C   UNL     1     -10.491   9.937  69.989  1.00  0.00    -0.284 C  
ENDBRANCH   9  11
BRANCH   9  13
HETATM   13  O   UNL     1      -6.994  10.997  69.167  1.00  0.00    -0.083 OA 
HETATM   14  C   UNL     1      -6.076   9.945  68.943  1.00  0.00    -0.041 C  
ENDBRANCH   9  13
ENDBRANCH   8   9
ENDBRANCH   7   8
BRANCH   7  15
HETATM   15  C   UNL     1      -9.652   9.946  64.880  1.00  0.00    -0.288 C  
HETATM   16  O   UNL     1      -8.899   9.397  64.087  1.00  0.00    -0.214 OA 
BRANCH  15  17
HETATM   17  O   UNL     1     -10.015  11.260  64.834  1.00  0.00    -0.243 OA 
BRANCH  17  18
HETATM   18  C   UNL     1     -10.619  11.677  63.603  1.00  0.00    -0.433 C  
HETATM   19  C   UNL     1     -11.423  12.934  63.883  1.00  0.00    -0.504 C  
ENDBRANCH  17  18
ENDBRANCH  15  17
ENDBRANCH   7  15
ENDBRANCH   6   7
ENDBRANCH   4   6
ENDBRANCH   3   4
ENDBRANCH   2   3
TORSDOF 11
ENDMDL
MODEL      317
REMARK 921   NORMALIZED FREE ENERGY PREDICTED BY IDOCK:   -2.56 KCAL/MOL
REMARK 922        TOTAL FREE ENERGY PREDICTED BY IDOCK:   -4.90 KCAL/MOL
REMARK 923 INTER-LIGAND FREE ENERGY PREDICTED BY IDOCK:   -4.70 KCAL/MOL
REMARK 924 INTRA-LIGAND FREE ENERGY PREDICTED BY IDOCK:   -0.20 KCAL/MOL
REMARK 927      BINDING AFFINITY PREDICTED BY RF-SCORE:    0.00 PKD
ROOT
HETATM    1  C   UNL     1     -11.279   5.973  69.948  1.00  0.00    -0.438 C  
HETATM    2  C   UNL     1     -10.586   7.296  70.225  1.00  0.00    -0.229 C  
ENDROOT
BRANCH   2   3
HETATM    3  O   UNL     1     -10.766   8.127  69.072  1.00  0.00    -0.185 OA 
BRANCH   3   4
HETATM    4  C   UNL     1      -9.765   8.101  68.158  1.00  0.00    -0.161 C  
HETATM    5  O   UNL     1      -8.782   7.371  68.183  1.00  0.00    -0.123 OA 
BRANCH   4   6
HETATM    6  C   UNL     1     -10.128   8.966  66.986  1.00  0.00    -0.331 C  
BRANCH   6   7
HETATM    7  C   UNL     1      -9.797  10.427  67.255  1.00  0.00    -0.178 C  
BRANCH   7   8
HETATM    8  S   UNL     1     -10.685  11.119  68.713  1.00  0.00    -0.212 SA 
BRANCH   8   9
HETATM    9  P   UNL     1     -11.502  12.994  68.156  1.00  0.00    -0.366 P  
HETATM   10  S   UNL     1      -9.678  13.874  68.003  1.00  0.00    -0.232 S  
BRANCH   9  11
HETATM   11  O   UNL     1     -12.046  12.415  66.701  1.00  0.00    -0.592 OA 
HETATM   12  C   UNL     1     -12.372  13.265  65.610  1.00  0.00    -0.465 C  
ENDBRANCH   9  11
BRANCH   9  13
HETATM   13  O   UNL     1     -12.169  14.525  67.703  1.00  0.00    -0.298 OA 
HETATM   14  C   UNL     1     -11.546  15.652  68.287  1.00  0.00    -0.319 C  
ENDBRANCH   9  13
ENDBRANCH   8   9
ENDBRANCH   7   8
BRANCH   7  15
HETATM   15  C   UNL     1      -8.310  10.544  67.565  1.00  0.00    -0.118 C  
HETATM   16  O   UNL     1      -7.410  10.248  66.791  1.00  0.00    -0.100 OA 
BRANCH  15  17
HETATM   17  O   UNL     1      -8.133  10.926  68.862  1.00  0.00    -0.136 OA 
BRANCH  17  18
HETATM   18  C   UNL     1      -6.769  10.978  69.296  1.00  0.00    -0.099 C  
HETATM   19  C   UNL     1      -6.373  12.439  69.413  1.00  0.00    -0.119 C  
ENDBRANCH  17  18
ENDBRANCH  15  17
ENDBRANCH   7  15
ENDBRANCH   6   7
ENDBRANCH   4   6
ENDBRANCH   3   4
ENDBRANCH   2   3
TORSDOF 11
ENDMDL
MODEL      318
REMARK 921   NORMALIZED FREE ENERGY PREDICTED BY IDOCK:   -2.54 KCAL/MOL
REMARK 922        TOTAL FREE ENERGY PREDICTED BY IDOCK:   -4.87 KCAL/MOL
REMARK 923 INTER-LIGAND FREE ENERGY PREDICTED BY IDOCK:   -4.08 KCAL/MOL
REMARK 924 INTRA-LIGAND FREE ENERGY PREDICTED BY IDOCK:   -0.79 KCAL/MOL
REMARK 927      BINDING AFFINITY PREDICTED BY RF-SCORE:    0.00 PKD
ROOT
HETATM    1  C   UNL     1     -13.263  11.294  71.878  1.00  0.00    -0.491 C  
HETATM    2  C   UNL     1     -13.427   9.832  71.501  1.00  0.00    -0.337 C  
ENDROOT
BRANCH   2   3
HETATM    3  O   UNL     1     -12.300   9.122  72.027  1.00  0.00    -0.360 OA 
BRANCH   3   4
HETATM    4  C   UNL     1     -12.146   7.845  71.595  1.00  0.00    -0.299 C  
HETATM    5  O   UNL     1     -12.981   6.952  71.669  1.00  0.00    -0.370 OA 
BRANCH   4   6
HETATM    6  C   UNL     1     -10.865   7.724  70.822  1.00  0.00    -0.245 C  
BRANCH   6   7
HETATM    7  C   UNL     1      -9.755   8.546  71.462  1.00  0.00    -0.234 C  
BRANCH   7   8
HETATM    8  S   UNL     1      -8.568   7.532  72.439  1.00  0.00    -0.129 SA 
BRANCH   8   9
HETATM    9  P   UNL     1      -9.000   5.487  72.082  1.00  0.00    -0.135 P  
HETATM   10  S   UNL     1      -7.120   4.887  72.559  1.00  0.00    -0.079 S  
BRANCH   9  11
HETATM   11  O   UNL     1     -10.037   5.398  73.373  1.00  0.00    -0.167 OA 
HETATM   12  C   UNL     1     -10.131   6.423  74.353  1.00  0.00    -0.348 C  
ENDBRANCH   9  11
BRANCH   9  13
HETATM   13  O   UNL     1      -9.352   3.819  71.789  1.00  0.00    -0.115 OA 
HETATM   14  C   UNL     1      -9.343   2.990  72.935  1.00  0.00    -0.092 C  
ENDBRANCH   9  13
ENDBRANCH   8   9
ENDBRANCH   7   8
BRANCH   7  15
HETATM   15  C   UNL     1      -8.941   9.213  70.360  1.00  0.00    -0.229 C  
HETATM   16  O   UNL     1      -9.337  10.136  69.662  1.00  0.00    -0.218 OA 
BRANCH  15  17
HETATM   17  O   UNL     1      -7.753   8.563  70.200  1.00  0.00    -0.080 OA 
BRANCH  17  18
HETATM   18  C   UNL     1      -6.911   9.088  69.167  1.00  0.00    -0.058 C  
HETATM   19  C   UNL     1      -7.244   8.358  67.878  1.00  0.00    -0.091 C  
ENDBRANCH  17  18
ENDBRANCH  15  17
ENDBRANCH   7  15
ENDBRANCH   6   7
ENDBRANCH   4   6
ENDBRANCH   3   4
ENDBRANCH   2   3
TORSDOF 11
ENDMDL
MODEL      319
REMARK 921   NORMALIZED FREE ENERGY PREDICTED BY IDOCK:   -2.54 KCAL/MOL
REMARK 922        TOTAL FREE ENERGY PREDICTED BY IDOCK:   -4.87 KCAL/MOL
REMARK 923 INTER-LIGAND FREE ENERGY PREDICTED BY IDOCK:   -4.01 KCAL/MOL
REMARK 924 INTRA-LIGAND FREE ENERGY PREDICTED BY IDOCK:   -0.85 KCAL/MOL
REMARK 927      BINDING AFFINITY PREDICTED BY RF-SCORE:    0.00 PKD
ROOT
HETATM    1  C   UNL     1     -14.405   7.538  71.705  1.00  0.00    -0.588 C  
HETATM    2  C   UNL     1     -12.991   7.259  71.227  1.00  0.00    -0.328 C  
ENDROOT
BRANCH   2   3
HETATM    3  O   UNL     1     -12.176   8.371  71.616  1.00  0.00    -0.289 OA 
BRANCH   3   4
HETATM    4  C   UNL     1     -10.838   8.153  71.628  1.00  0.00    -0.249 C  
HETATM    5  O   UNL     1     -10.275   7.136  72.015  1.00  0.00    -0.189 OA 
BRANCH   4   6
HETATM    6  C   UNL     1     -10.137   9.269  70.908  1.00  0.00    -0.373 C  
BRANCH   6   7
HETATM    7  C   UNL     1      -9.207   8.730  69.829  1.00  0.00    -0.155 C  
BRANCH   7   8
HETATM    8  S   UNL     1     -10.102   8.038  68.375  1.00  0.00    -0.199 SA 
BRANCH   8   9
HETATM    9  P   UNL     1      -8.913   6.491  67.548  1.00  0.00    -0.108 P  
HETATM   10  S   UNL     1      -8.124   5.977  69.348  1.00  0.00    -0.112 S  
BRANCH   9  11
HETATM   11  O   UNL     1     -10.237   5.573  67.156  1.00  0.00    -0.172 OA 
HETATM   12  C   UNL     1     -10.308   4.796  65.968  1.00  0.00    -0.293 C  
ENDBRANCH   9  11
BRANCH   9  13
HETATM   13  O   UNL     1      -7.941   5.228  66.873  1.00  0.00    -0.100 OA 
HETATM   14  C   UNL     1      -7.130   4.530  67.798  1.00  0.00    -0.064 C  
ENDBRANCH   9  13
ENDBRANCH   8   9
ENDBRANCH   7   8
BRANCH   7  15
HETATM   15  C   UNL     1      -8.354   9.876  69.301  1.00  0.00    -0.151 C  
HETATM   16  O   UNL     1      -7.437  10.405  69.915  1.00  0.00    -0.158 OA 
BRANCH  15  17
HETATM   17  O   UNL     1      -8.829  10.291  68.091  1.00  0.00    -0.121 OA 
BRANCH  17  18
HETATM   18  C   UNL     1      -8.565  11.664  67.777  1.00  0.00    -0.144 C  
HETATM   19  C   UNL     1      -9.790  12.473  68.161  1.00  0.00    -0.221 C  
ENDBRANCH  17  18
ENDBRANCH  15  17
ENDBRANCH   7  15
ENDBRANCH   6   7
ENDBRANCH   4   6
ENDBRANCH   3   4
ENDBRANCH   2   3
TORSDOF 11
ENDMDL
MODEL      320
REMARK 921   NORMALIZED FREE ENERGY PREDICTED BY IDOCK:   -2.53 KCAL/MOL
REMARK 922        TOTAL FREE ENERGY PREDICTED BY IDOCK:   -4.85 KCAL/MOL
REMARK 923 INTER-LIGAND FREE ENERGY PREDICTED BY IDOCK:   -4.60 KCAL/MOL
REMARK 924 INTRA-LIGAND FREE ENERGY PREDICTED BY IDOCK:   -0.25 KCAL/MOL
REMARK 927      BINDING AFFINITY PREDICTED BY RF-SCORE:    0.00 PKD
ROOT
HETATM    1  C   UNL     1      -5.787  15.184  69.093  1.00  0.00    -0.098 C  
HETATM    2  C   UNL     1      -6.791  16.315  69.225  1.00  0.00    -0.211 C  
ENDROOT
BRANCH   2   3
HETATM    3  O   UNL     1      -7.906  16.003  68.381  1.00  0.00    -0.140 OA 
BRANCH   3   4
HETATM    4  C   UNL     1      -9.042  15.616  69.014  1.00  0.00    -0.241 C  
HETATM    5  O   UNL     1      -9.119  15.172  70.152  1.00  0.00     0.112 OA 
BRANCH   4   6
HETATM    6  C   UNL     1     -10.235  15.996  68.186  1.00  0.00    -0.243 C  
BRANCH   6   7
HETATM    7  C   UNL     1     -10.887  14.770  67.562  1.00  0.00    -0.287 C  
BRANCH   7   8
HETATM    8  S   UNL     1      -9.790  13.888  66.373  1.00  0.00    -0.299 SA 
BRANCH   8   9
HETATM    9  P   UNL     1     -10.930  13.424  64.648  1.00  0.00    -0.405 P  
HETATM   10  S   UNL     1     -11.147  11.474  65.173  1.00  0.00    -0.138 S  
BRANCH   9  11
HETATM   11  O   UNL     1     -12.210  14.356  65.144  1.00  0.00    -0.396 OA 
HETATM   12  C   UNL     1     -12.635  15.514  64.439  1.00  0.00     0.288 C  
ENDBRANCH   9  11
BRANCH   9  13
HETATM   13  O   UNL     1     -11.861  13.045  63.239  1.00  0.00    -0.534 OA 
HETATM   14  C   UNL     1     -12.407  11.741  63.209  1.00  0.00    -0.294 C  
ENDBRANCH   9  13
ENDBRANCH   8   9
ENDBRANCH   7   8
BRANCH   7  15
HETATM   15  C   UNL     1     -11.211  13.771  68.666  1.00  0.00    -0.278 C  
HETATM   16  O   UNL     1     -10.614  12.720  68.853  1.00  0.00    -0.212 OA 
BRANCH  15  17
HETATM   17  O   UNL     1     -12.324  14.171  69.344  1.00  0.00    -0.326 OA 
BRANCH  17  18
HETATM   18  C   UNL     1     -12.196  14.170  70.771  1.00  0.00    -0.365 C  
HETATM   19  C   UNL     1     -13.185  15.178  71.328  1.00  0.00    -0.536 C  
ENDBRANCH  17  18
ENDBRANCH  15  17
ENDBRANCH   7  15
ENDBRANCH   6   7
ENDBRANCH   4   6
ENDBRANCH   3   4
ENDBRANCH   2   3
TORSDOF 11
ENDMDL
MODEL      321
REMARK 921   NORMALIZED FREE ENERGY PREDICTED BY IDOCK:   -2.52 KCAL/MOL
REMARK 922        TOTAL FREE ENERGY PREDICTED BY IDOCK:   -4.84 KCAL/MOL
REMARK 923 INTER-LIGAND FREE ENERGY PREDICTED BY IDOCK:   -4.18 KCAL/MOL
REMARK 924 INTRA-LIGAND FREE ENERGY PREDICTED BY IDOCK:   -0.66 KCAL/MOL
REMARK 927      BINDING AFFINITY PREDICTED BY RF-SCORE:    0.00 PKD
ROOT
HETATM    1  C   UNL     1      -9.577   5.600  65.744  1.00  0.00     0.006 C  
HETATM    2  C   UNL     1      -8.382   6.445  66.152  1.00  0.00    -0.128 C  
ENDROOT
BRANCH   2   3
HETATM    3  O   UNL     1      -8.554   6.798  67.529  1.00  0.00    -0.120 OA 
BRANCH   3   4
HETATM    4  C   UNL     1      -7.503   7.420  68.120  1.00  0.00    -0.105 C  
HETATM    5  O   UNL     1      -6.475   7.786  67.564  1.00  0.00    -0.052 OA 
BRANCH   4   6
HETATM    6  C   UNL     1      -7.858   7.781  69.533  1.00  0.00    -0.111 C  
BRANCH   6   7
HETATM    7  C   UNL     1      -9.139   8.601  69.588  1.00  0.00    -0.149 C  
BRANCH   7   8
HETATM    8  S   UNL     1      -9.706   8.954  71.305  1.00  0.00    -0.303 SA 
BRANCH   8   9
HETATM    9  P   UNL     1     -11.609   8.058  71.566  1.00  0.00    -0.302 P  
HETATM   10  S   UNL     1     -11.237   6.598  70.204  1.00  0.00    -0.383 S  
BRANCH   9  11
HETATM   11  O   UNL     1     -11.259   7.578  73.114  1.00  0.00    -0.369 OA 
HETATM   12  C   UNL     1      -9.928   7.406  73.582  1.00  0.00    -0.328 C  
ENDBRANCH   9  11
BRANCH   9  13
HETATM   13  O   UNL     1     -13.162   7.326  71.778  1.00  0.00    -0.350 OA 
HETATM   14  C   UNL     1     -14.267   8.161  71.493  1.00  0.00    -0.409 C  
ENDBRANCH   9  13
ENDBRANCH   8   9
ENDBRANCH   7   8
BRANCH   7  15
HETATM   15  C   UNL     1      -8.884   9.953  68.935  1.00  0.00    -0.145 C  
HETATM   16  O   UNL     1      -8.050  10.765  69.314  1.00  0.00    -0.150 OA 
BRANCH  15  17
HETATM   17  O   UNL     1      -9.788  10.167  67.937  1.00  0.00    -0.148 OA 
BRANCH  17  18
HETATM   18  C   UNL     1     -11.143  10.327  68.372  1.00  0.00    -0.247 C  
HETATM   19  C   UNL     1     -11.579  11.739  68.027  1.00  0.00    -0.386 C  
ENDBRANCH  17  18
ENDBRANCH  15  17
ENDBRANCH   7  15
ENDBRANCH   6   7
ENDBRANCH   4   6
ENDBRANCH   3   4
ENDBRANCH   2   3
TORSDOF 11
ENDMDL
MODEL      322
REMARK 921   NORMALIZED FREE ENERGY PREDICTED BY IDOCK:   -2.51 KCAL/MOL
REMARK 922        TOTAL FREE ENERGY PREDICTED BY IDOCK:   -4.82 KCAL/MOL
REMARK 923 INTER-LIGAND FREE ENERGY PREDICTED BY IDOCK:   -4.10 KCAL/MOL
REMARK 924 INTRA-LIGAND FREE ENERGY PREDICTED BY IDOCK:   -0.72 KCAL/MOL
REMARK 927      BINDING AFFINITY PREDICTED BY RF-SCORE:    0.00 PKD
ROOT
HETATM    1  C   UNL     1     -10.775   5.890  67.110  1.00  0.00    -0.387 C  
HETATM    2  C   UNL     1      -9.564   6.803  67.195  1.00  0.00    -0.144 C  
ENDROOT
BRANCH   2   3
HETATM    3  O   UNL     1      -9.527   7.583  65.994  1.00  0.00    -0.085 OA 
BRANCH   3   4
HETATM    4  C   UNL     1      -9.383   8.922  66.159  1.00  0.00    -0.239 C  
HETATM    5  O   UNL     1      -8.487   9.614  65.690  1.00  0.00    -0.124 OA 
BRANCH   4   6
HETATM    6  C   UNL     1     -10.597   9.482  66.841  1.00  0.00    -0.241 C  
BRANCH   6   7
HETATM    7  C   UNL     1     -10.209  10.453  67.946  1.00  0.00    -0.179 C  
BRANCH   7   8
HETATM    8  S   UNL     1     -11.442  11.799  68.199  1.00  0.00    -0.328 SA 
BRANCH   8   9
HETATM    9  P   UNL     1     -10.396  13.642  68.273  1.00  0.00    -0.255 P  
HETATM   10  S   UNL     1     -11.434  14.426  66.713  1.00  0.00    -0.382 S  
BRANCH   9  11
HETATM   11  O   UNL     1     -11.057  14.050  69.738  1.00  0.00    -0.174 OA 
HETATM   12  C   UNL     1     -12.333  14.664  69.860  1.00  0.00    -0.294 C  
ENDBRANCH   9  11
BRANCH   9  13
HETATM   13  O   UNL     1      -9.543  15.146  68.332  1.00  0.00    -0.202 OA 
HETATM   14  C   UNL     1      -8.784  15.364  69.505  1.00  0.00    -0.210 C  
ENDBRANCH   9  13
ENDBRANCH   8   9
ENDBRANCH   7   8
BRANCH   7  15
HETATM   15  C   UNL     1     -10.132   9.692  69.263  1.00  0.00    -0.193 C  
HETATM   16  O   UNL     1     -10.974   8.900  69.662  1.00  0.00    -0.216 OA 
BRANCH  15  17
HETATM   17  O   UNL     1      -9.043  10.102  69.975  1.00  0.00    -0.161 OA 
BRANCH  17  18
HETATM   18  C   UNL     1      -7.829  10.201  69.220  1.00  0.00    -0.134 C  
HETATM   19  C   UNL     1      -6.707  10.536  70.185  1.00  0.00    -0.149 C  
ENDBRANCH  17  18
ENDBRANCH  15  17
ENDBRANCH   7  15
ENDBRANCH   6   7
ENDBRANCH   4   6
ENDBRANCH   3   4
ENDBRANCH   2   3
TORSDOF 11
ENDMDL
MODEL      323
REMARK 921   NORMALIZED FREE ENERGY PREDICTED BY IDOCK:   -2.50 KCAL/MOL
REMARK 922        TOTAL FREE ENERGY PREDICTED BY IDOCK:   -4.81 KCAL/MOL
REMARK 923 INTER-LIGAND FREE ENERGY PREDICTED BY IDOCK:   -4.16 KCAL/MOL
REMARK 924 INTRA-LIGAND FREE ENERGY PREDICTED BY IDOCK:   -0.65 KCAL/MOL
REMARK 927      BINDING AFFINITY PREDICTED BY RF-SCORE:    0.00 PKD
ROOT
HETATM    1  C   UNL     1      -5.532  10.295  71.122  1.00  0.00    -0.080 C  
HETATM    2  C   UNL     1      -6.122   8.981  71.603  1.00  0.00    -0.074 C  
ENDROOT
BRANCH   2   3
HETATM    3  O   UNL     1      -7.547   9.127  71.618  1.00  0.00    -0.333 OA 
BRANCH   3   4
HETATM    4  C   UNL     1      -8.240   8.142  72.240  1.00  0.00    -0.154 C  
HETATM    5  O   UNL     1      -7.762   7.154  72.783  1.00  0.00    -0.083 OA 
BRANCH   4   6
HETATM    6  C   UNL     1      -9.687   8.530  72.347  1.00  0.00    -0.357 C  
BRANCH   6   7
HETATM    7  C   UNL     1     -10.477   8.051  71.137  1.00  0.00    -0.198 C  
BRANCH   7   8
HETATM    8  S   UNL     1      -9.426   7.259  69.847  1.00  0.00    -0.156 SA 
BRANCH   8   9
HETATM    9  P   UNL     1      -9.260   8.605  68.218  1.00  0.00    -0.137 P  
HETATM   10  S   UNL     1     -10.467   7.489  67.024  1.00  0.00    -0.321 S  
BRANCH   9  11
HETATM   11  O   UNL     1     -10.093   9.798  69.014  1.00  0.00    -0.171 OA 
HETATM   12  C   UNL     1     -11.131  10.550  68.401  1.00  0.00    -0.281 C  
ENDBRANCH   9  11
BRANCH   9  13
HETATM   13  O   UNL     1      -9.125   9.702  66.887  1.00  0.00    -0.136 OA 
HETATM   14  C   UNL     1      -9.205   9.110  65.605  1.00  0.00    -0.234 C  
ENDBRANCH   9  13
ENDBRANCH   8   9
ENDBRANCH   7   8
BRANCH   7  15
HETATM   15  C   UNL     1     -11.471   6.989  71.589  1.00  0.00    -0.266 C  
HETATM   16  O   UNL     1     -12.673   7.171  71.725  1.00  0.00    -0.340 OA 
BRANCH  15  17
HETATM   17  O   UNL     1     -10.810   5.843  71.919  1.00  0.00    -0.236 OA 
BRANCH  17  18
HETATM   18  C   UNL     1     -11.319   5.161  73.072  1.00  0.00    -0.309 C  
HETATM   19  C   UNL     1     -10.405   5.479  74.241  1.00  0.00    -0.293 C  
ENDBRANCH  17  18
ENDBRANCH  15  17
ENDBRANCH   7  15
ENDBRANCH   6   7
ENDBRANCH   4   6
ENDBRANCH   3   4
ENDBRANCH   2   3
TORSDOF 11
ENDMDL
MODEL      324
REMARK 921   NORMALIZED FREE ENERGY PREDICTED BY IDOCK:   -2.49 KCAL/MOL
REMARK 922        TOTAL FREE ENERGY PREDICTED BY IDOCK:   -4.78 KCAL/MOL
REMARK 923 INTER-LIGAND FREE ENERGY PREDICTED BY IDOCK:   -4.16 KCAL/MOL
REMARK 924 INTRA-LIGAND FREE ENERGY PREDICTED BY IDOCK:   -0.62 KCAL/MOL
REMARK 927      BINDING AFFINITY PREDICTED BY RF-SCORE:    0.00 PKD
ROOT
HETATM    1  C   UNL     1      -5.966   8.997  72.587  1.00  0.00    -0.012 C  
HETATM    2  C   UNL     1      -6.974   8.133  71.851  1.00  0.00    -0.079 C  
ENDROOT
BRANCH   2   3
HETATM    3  O   UNL     1      -8.067   8.975  71.468  1.00  0.00    -0.303 OA 
BRANCH   3   4
HETATM    4  C   UNL     1      -9.285   8.627  71.952  1.00  0.00    -0.275 C  
HETATM    5  O   UNL     1      -9.526   8.235  73.088  1.00  0.00    -0.257 OA 
BRANCH   4   6
HETATM    6  C   UNL     1     -10.347   8.981  70.952  1.00  0.00    -0.323 C  
BRANCH   6   7
HETATM    7  C   UNL     1     -10.979   7.731  70.355  1.00  0.00    -0.249 C  
BRANCH   7   8
HETATM    8  S   UNL     1      -9.743   6.496  69.772  1.00  0.00    -0.159 SA 
BRANCH   8   9
HETATM    9  P   UNL     1     -10.267   5.921  67.801  1.00  0.00    -0.227 P  
HETATM   10  S   UNL     1     -10.288   7.836  67.124  1.00  0.00    -0.340 S  
BRANCH   9  11
HETATM   11  O   UNL     1      -8.807   5.178  67.543  1.00  0.00    -0.107 OA 
HETATM   12  C   UNL     1      -7.983   4.717  68.605  1.00  0.00    -0.080 C  
ENDBRANCH   9  11
BRANCH   9  13
HETATM   13  O   UNL     1     -10.696   5.452  66.191  1.00  0.00    -0.229 OA 
HETATM   14  C   UNL     1     -10.158   4.218  65.758  1.00  0.00    -0.212 C  
ENDBRANCH   9  13
ENDBRANCH   8   9
ENDBRANCH   7   8
BRANCH   7  15
HETATM   15  C   UNL     1     -11.804   7.036  71.430  1.00  0.00    -0.320 C  
HETATM   16  O   UNL     1     -12.681   7.573  72.093  1.00  0.00    -0.240 OA 
BRANCH  15  17
HETATM   17  O   UNL     1     -11.350   5.764  71.616  1.00  0.00    -0.242 OA 
BRANCH  17  18
HETATM   18  C   UNL     1     -11.411   5.291  72.967  1.00  0.00    -0.309 C  
HETATM   19  C   UNL     1     -10.082   4.634  73.290  1.00  0.00    -0.201 C  
ENDBRANCH  17  18
ENDBRANCH  15  17
ENDBRANCH   7  15
ENDBRANCH   6   7
ENDBRANCH   4   6
ENDBRANCH   3   4
ENDBRANCH   2   3
TORSDOF 11
ENDMDL
MODEL      325
REMARK 921   NORMALIZED FREE ENERGY PREDICTED BY IDOCK:   -2.48 KCAL/MOL
REMARK 922        TOTAL FREE ENERGY PREDICTED BY IDOCK:   -4.78 KCAL/MOL
REMARK 923 INTER-LIGAND FREE ENERGY PREDICTED BY IDOCK:   -3.99 KCAL/MOL
REMARK 924 INTRA-LIGAND FREE ENERGY PREDICTED BY IDOCK:   -0.79 KCAL/MOL
REMARK 927      BINDING AFFINITY PREDICTED BY RF-SCORE:    0.00 PKD
ROOT
HETATM    1  C   UNL     1      -7.721   8.186  73.024  1.00  0.00    -0.199 C  
HETATM    2  C   UNL     1      -9.234   8.075  72.947  1.00  0.00    -0.265 C  
ENDROOT
BRANCH   2   3
HETATM    3  O   UNL     1      -9.675   8.932  71.887  1.00  0.00    -0.307 OA 
BRANCH   3   4
HETATM    4  C   UNL     1     -10.231   8.314  70.815  1.00  0.00    -0.192 C  
HETATM    5  O   UNL     1     -11.327   7.768  70.784  1.00  0.00    -0.276 OA 
BRANCH   4   6
HETATM    6  C   UNL     1      -9.393   8.566  69.595  1.00  0.00    -0.157 C  
BRANCH   6   7
HETATM    7  C   UNL     1      -9.838   7.692  68.431  1.00  0.00    -0.166 C  
BRANCH   7   8
HETATM    8  S   UNL     1     -10.654   8.640  67.079  1.00  0.00    -0.128 SA 
BRANCH   8   9
HETATM    9  P   UNL     1     -10.071  10.670  67.255  1.00  0.00    -0.219 P  
HETATM   10  S   UNL     1      -8.706  10.529  65.757  1.00  0.00    -0.183 S  
BRANCH   9  11
HETATM   11  O   UNL     1     -11.540  11.222  66.718  1.00  0.00    -0.433 OA 
HETATM   12  C   UNL     1     -11.679  12.408  65.947  1.00  0.00    -0.419 C  
ENDBRANCH   9  11
BRANCH   9  13
HETATM   13  O   UNL     1      -9.594  12.327  67.398  1.00  0.00    -0.175 OA 
HETATM   14  C   UNL     1      -8.557  12.579  68.325  1.00  0.00    -0.173 C  
ENDBRANCH   9  13
ENDBRANCH   8   9
ENDBRANCH   7   8
BRANCH   7  15
HETATM   15  C   UNL     1      -8.610   7.037  67.812  1.00  0.00    -0.122 C  
HETATM   16  O   UNL     1      -7.576   7.624  67.523  1.00  0.00    -0.104 OA 
BRANCH  15  17
HETATM   17  O   UNL     1      -8.870   5.727  67.534  1.00  0.00    -0.109 OA 
BRANCH  17  18
HETATM   18  C   UNL     1      -9.743   5.074  68.464  1.00  0.00    -0.154 C  
HETATM   19  C   UNL     1      -9.476   3.582  68.384  1.00  0.00    -0.209 C  
ENDBRANCH  17  18
ENDBRANCH  15  17
ENDBRANCH   7  15
ENDBRANCH   6   7
ENDBRANCH   4   6
ENDBRANCH   3   4
ENDBRANCH   2   3
TORSDOF 11
ENDMDL
MODEL      326
REMARK 921   NORMALIZED FREE ENERGY PREDICTED BY IDOCK:   -2.48 KCAL/MOL
REMARK 922        TOTAL FREE ENERGY PREDICTED BY IDOCK:   -4.78 KCAL/MOL
REMARK 923 INTER-LIGAND FREE ENERGY PREDICTED BY IDOCK:   -4.35 KCAL/MOL
REMARK 924 INTRA-LIGAND FREE ENERGY PREDICTED BY IDOCK:   -0.43 KCAL/MOL
REMARK 927      BINDING AFFINITY PREDICTED BY RF-SCORE:    0.00 PKD
ROOT
HETATM    1  C   UNL     1      -7.831   5.504  66.351  1.00  0.00    -0.100 C  
HETATM    2  C   UNL     1      -7.681   6.979  66.678  1.00  0.00    -0.094 C  
ENDROOT
BRANCH   2   3
HETATM    3  O   UNL     1      -8.909   7.626  66.325  1.00  0.00    -0.144 OA 
BRANCH   3   4
HETATM    4  C   UNL     1      -8.928   8.976  66.450  1.00  0.00    -0.155 C  
HETATM    5  O   UNL     1      -7.949   9.709  66.517  1.00  0.00    -0.110 OA 
BRANCH   4   6
HETATM    6  C   UNL     1     -10.334   9.479  66.297  1.00  0.00    -0.226 C  
BRANCH   6   7
HETATM    7  C   UNL     1     -10.906   9.935  67.632  1.00  0.00    -0.257 C  
BRANCH   7   8
HETATM    8  S   UNL     1      -9.776   9.622  69.053  1.00  0.00    -0.178 SA 
BRANCH   8   9
HETATM    9  P   UNL     1     -10.856   8.549  70.528  1.00  0.00    -0.229 P  
HETATM   10  S   UNL     1     -10.725   6.794  69.513  1.00  0.00    -0.276 S  
BRANCH   9  11
HETATM   11  O   UNL     1      -9.648   8.718  71.651  1.00  0.00    -0.245 OA 
HETATM   12  C   UNL     1      -8.305   9.012  71.294  1.00  0.00    -0.120 C  
ENDBRANCH   9  11
BRANCH   9  13
HETATM   13  O   UNL     1     -11.739   7.672  71.730  1.00  0.00    -0.265 OA 
HETATM   14  C   UNL     1     -11.145   7.642  73.013  1.00  0.00    -0.381 C  
ENDBRANCH   9  13
ENDBRANCH   8   9
ENDBRANCH   7   8
BRANCH   7  15
HETATM   15  C   UNL     1     -11.125  11.441  67.583  1.00  0.00    -0.268 C  
HETATM   16  O   UNL     1     -11.370  12.142  68.555  1.00  0.00    -0.229 OA 
BRANCH  15  17
HETATM   17  O   UNL     1     -11.111  11.873  66.290  1.00  0.00    -0.290 OA 
BRANCH  17  18
HETATM   18  C   UNL     1     -11.942  13.008  66.022  1.00  0.00    -0.440 C  
HETATM   19  C   UNL     1     -11.199  13.912  65.055  1.00  0.00    -0.342 C  
ENDBRANCH  17  18
ENDBRANCH  15  17
ENDBRANCH   7  15
ENDBRANCH   6   7
ENDBRANCH   4   6
ENDBRANCH   3   4
ENDBRANCH   2   3
TORSDOF 11
ENDMDL
MODEL      327
REMARK 921   NORMALIZED FREE ENERGY PREDICTED BY IDOCK:   -2.48 KCAL/MOL
REMARK 922        TOTAL FREE ENERGY PREDICTED BY IDOCK:   -4.77 KCAL/MOL
REMARK 923 INTER-LIGAND FREE ENERGY PREDICTED BY IDOCK:   -4.08 KCAL/MOL
REMARK 924 INTRA-LIGAND FREE ENERGY PREDICTED BY IDOCK:   -0.69 KCAL/MOL
REMARK 927      BINDING AFFINITY PREDICTED BY RF-SCORE:    0.00 PKD
ROOT
HETATM    1  C   UNL     1     -11.638  14.441  69.763  1.00  0.00    -0.352 C  
HETATM    2  C   UNL     1     -11.256  13.737  68.472  1.00  0.00    -0.275 C  
ENDROOT
BRANCH   2   3
HETATM    3  O   UNL     1     -10.949  12.376  68.798  1.00  0.00    -0.232 OA 
BRANCH   3   4
HETATM    4  C   UNL     1     -11.215  11.459  67.834  1.00  0.00    -0.288 C  
HETATM    5  O   UNL     1     -11.971  11.610  66.882  1.00  0.00    -0.567 OA 
BRANCH   4   6
HETATM    6  C   UNL     1     -10.292  10.285  67.985  1.00  0.00    -0.215 C  
BRANCH   6   7
HETATM    7  C   UNL     1      -9.761   9.824  66.635  1.00  0.00    -0.201 C  
BRANCH   7   8
HETATM    8  S   UNL     1      -8.478  10.946  65.935  1.00  0.00    -0.133 SA 
BRANCH   8   9
HETATM    9  P   UNL     1      -7.369  11.762  67.547  1.00  0.00    -0.148 P  
HETATM   10  S   UNL     1      -5.583  11.422  66.641  1.00  0.00    -0.135 S  
BRANCH   9  11
HETATM   11  O   UNL     1      -7.936  13.295  67.266  1.00  0.00    -0.171 OA 
HETATM   12  C   UNL     1      -7.165  14.458  67.530  1.00  0.00    -0.180 C  
ENDBRANCH   9  11
BRANCH   9  13
HETATM   13  O   UNL     1      -6.463  12.427  68.862  1.00  0.00    -0.077 OA 
HETATM   14  C   UNL     1      -6.260  11.556  69.957  1.00  0.00    -0.142 C  
ENDBRANCH   9  13
ENDBRANCH   8   9
ENDBRANCH   7   8
BRANCH   7  15
HETATM   15  C   UNL     1      -9.093   8.466  66.808  1.00  0.00    -0.157 C  
HETATM   16  O   UNL     1      -7.900   8.297  67.021  1.00  0.00    -0.095 OA 
BRANCH  15  17
HETATM   17  O   UNL     1      -9.998   7.470  66.588  1.00  0.00    -0.225 OA 
BRANCH  17  18
HETATM   18  C   UNL     1      -9.560   6.160  66.969  1.00  0.00    -0.135 C  
HETATM   19  C   UNL     1     -10.528   5.154  66.374  1.00  0.00    -0.356 C  
ENDBRANCH  17  18
ENDBRANCH  15  17
ENDBRANCH   7  15
ENDBRANCH   6   7
ENDBRANCH   4   6
ENDBRANCH   3   4
ENDBRANCH   2   3
TORSDOF 11
ENDMDL
MODEL      328
REMARK 921   NORMALIZED FREE ENERGY PREDICTED BY IDOCK:   -2.47 KCAL/MOL
REMARK 922        TOTAL FREE ENERGY PREDICTED BY IDOCK:   -4.76 KCAL/MOL
REMARK 923 INTER-LIGAND FREE ENERGY PREDICTED BY IDOCK:   -3.86 KCAL/MOL
REMARK 924 INTRA-LIGAND FREE ENERGY PREDICTED BY IDOCK:   -0.89 KCAL/MOL
REMARK 927      BINDING AFFINITY PREDICTED BY RF-SCORE:    0.00 PKD
ROOT
HETATM    1  C   UNL     1      -9.976   5.537  72.989  1.00  0.00    -0.196 C  
HETATM    2  C   UNL     1     -11.409   5.903  72.644  1.00  0.00    -0.292 C  
ENDROOT
BRANCH   2   3
HETATM    3  O   UNL     1     -11.390   7.205  72.048  1.00  0.00    -0.244 OA 
BRANCH   3   4
HETATM    4  C   UNL     1     -11.400   7.239  70.692  1.00  0.00    -0.284 C  
HETATM    5  O   UNL     1     -11.772   6.339  69.949  1.00  0.00    -0.408 OA 
BRANCH   4   6
HETATM    6  C   UNL     1     -11.071   8.626  70.218  1.00  0.00    -0.230 C  
BRANCH   6   7
HETATM    7  C   UNL     1      -9.583   8.917  70.356  1.00  0.00    -0.194 C  
BRANCH   7   8
HETATM    8  S   UNL     1      -8.514   7.517  69.817  1.00  0.00    -0.136 SA 
BRANCH   8   9
HETATM    9  P   UNL     1      -8.655   7.355  67.708  1.00  0.00    -0.118 P  
HETATM   10  S   UNL     1      -6.679   7.735  67.431  1.00  0.00    -0.070 S  
BRANCH   9  11
HETATM   11  O   UNL     1      -8.980   5.730  67.774  1.00  0.00    -0.110 OA 
HETATM   12  C   UNL     1      -8.662   4.841  66.713  1.00  0.00    -0.107 C  
ENDBRANCH   9  11
BRANCH   9  13
HETATM   13  O   UNL     1      -8.770   7.224  65.987  1.00  0.00    -0.149 OA 
HETATM   14  C   UNL     1      -8.532   8.421  65.273  1.00  0.00    -0.171 C  
ENDBRANCH   9  13
ENDBRANCH   8   9
ENDBRANCH   7   8
BRANCH   7  15
HETATM   15  C   UNL     1      -9.229  10.095  69.458  1.00  0.00    -0.204 C  
HETATM   16  O   UNL     1      -8.123  10.615  69.392  1.00  0.00    -0.151 OA 
BRANCH  15  17
HETATM   17  O   UNL     1     -10.346  10.547  68.820  1.00  0.00    -0.171 OA 
BRANCH  17  18
HETATM   18  C   UNL     1     -10.374  11.959  68.577  1.00  0.00    -0.218 C  
HETATM   19  C   UNL     1     -11.684  12.286  67.884  1.00  0.00    -0.410 C  
ENDBRANCH  17  18
ENDBRANCH  15  17
ENDBRANCH   7  15
ENDBRANCH   6   7
ENDBRANCH   4   6
ENDBRANCH   3   4
ENDBRANCH   2   3
TORSDOF 11
ENDMDL
MODEL      329
REMARK 921   NORMALIZED FREE ENERGY PREDICTED BY IDOCK:   -2.47 KCAL/MOL
REMARK 922        TOTAL FREE ENERGY PREDICTED BY IDOCK:   -4.75 KCAL/MOL
REMARK 923 INTER-LIGAND FREE ENERGY PREDICTED BY IDOCK:   -4.44 KCAL/MOL
REMARK 924 INTRA-LIGAND FREE ENERGY PREDICTED BY IDOCK:   -0.31 KCAL/MOL
REMARK 927      BINDING AFFINITY PREDICTED BY RF-SCORE:    0.00 PKD
ROOT
HETATM    1  C   UNL     1     -10.758  11.399  63.348  1.00  0.00    -0.405 C  
HETATM    2  C   UNL     1     -11.736  12.032  64.322  1.00  0.00    -0.344 C  
ENDROOT
BRANCH   2   3
HETATM    3  O   UNL     1     -10.983  12.874  65.203  1.00  0.00    -0.280 OA 
BRANCH   3   4
HETATM    4  C   UNL     1     -11.592  13.214  66.366  1.00  0.00    -0.349 C  
HETATM    5  O   UNL     1     -12.483  14.044  66.500  1.00  0.00    -0.442 OA 
BRANCH   4   6
HETATM    6  C   UNL     1     -11.156  12.279  67.457  1.00  0.00    -0.326 C  
BRANCH   6   7
HETATM    7  C   UNL     1      -9.685  12.475  67.796  1.00  0.00    -0.202 C  
BRANCH   7   8
HETATM    8  S   UNL     1      -8.545  11.752  66.543  1.00  0.00    -0.103 SA 
BRANCH   8   9
HETATM    9  P   UNL     1      -7.489  10.158  67.459  1.00  0.00    -0.090 P  
HETATM   10  S   UNL     1      -8.235  10.569  69.303  1.00  0.00    -0.113 S  
BRANCH   9  11
HETATM   11  O   UNL     1      -8.377   9.006  66.663  1.00  0.00    -0.116 OA 
HETATM   12  C   UNL     1      -9.658   9.272  66.108  1.00  0.00    -0.260 C  
ENDBRANCH   9  11
BRANCH   9  13
HETATM   13  O   UNL     1      -6.627   8.858  68.207  1.00  0.00    -0.059 OA 
HETATM   14  C   UNL     1      -7.373   7.674  68.407  1.00  0.00    -0.095 C  
ENDBRANCH   9  13
ENDBRANCH   8   9
ENDBRANCH   7   8
BRANCH   7  15
HETATM   15  C   UNL     1      -9.386  13.968  67.835  1.00  0.00    -0.206 C  
HETATM   16  O   UNL     1      -8.713  14.567  67.007  1.00  0.00    -0.219 OA 
BRANCH  15  17
HETATM   17  O   UNL     1      -9.889  14.515  68.978  1.00  0.00    -0.208 OA 
BRANCH  17  18
HETATM   18  C   UNL     1     -10.581  15.757  68.801  1.00  0.00    -0.239 C  
HETATM   19  C   UNL     1     -11.897  15.667  69.552  1.00  0.00    -0.387 C  
ENDBRANCH  17  18
ENDBRANCH  15  17
ENDBRANCH   7  15
ENDBRANCH   6   7
ENDBRANCH   4   6
ENDBRANCH   3   4
ENDBRANCH   2   3
TORSDOF 11
ENDMDL
MODEL      330
REMARK 921   NORMALIZED FREE ENERGY PREDICTED BY IDOCK:   -2.46 KCAL/MOL
REMARK 922        TOTAL FREE ENERGY PREDICTED BY IDOCK:   -4.74 KCAL/MOL
REMARK 923 INTER-LIGAND FREE ENERGY PREDICTED BY IDOCK:   -3.86 KCAL/MOL
REMARK 924 INTRA-LIGAND FREE ENERGY PREDICTED BY IDOCK:   -0.88 KCAL/MOL
REMARK 927      BINDING AFFINITY PREDICTED BY RF-SCORE:    0.00 PKD
ROOT
HETATM    1  C   UNL     1      -8.833  11.967  66.832  1.00  0.00    -0.197 C  
HETATM    2  C   UNL     1      -7.724  11.992  67.869  1.00  0.00    -0.134 C  
ENDROOT
BRANCH   2   3
HETATM    3  O   UNL     1      -8.104  11.105  68.928  1.00  0.00    -0.144 OA 
BRANCH   3   4
HETATM    4  C   UNL     1      -7.101  10.680  69.736  1.00  0.00    -0.139 C  
HETATM    5  O   UNL     1      -6.505  11.357  70.564  1.00  0.00    -0.270 OA 
BRANCH   4   6
HETATM    6  C   UNL     1      -6.951   9.191  69.616  1.00  0.00    -0.055 C  
BRANCH   6   7
HETATM    7  C   UNL     1      -8.254   8.477  69.948  1.00  0.00    -0.121 C  
BRANCH   7   8
HETATM    8  S   UNL     1      -8.197   6.666  69.617  1.00  0.00    -0.128 SA 
BRANCH   8   9
HETATM    9  P   UNL     1      -9.601   6.232  68.088  1.00  0.00    -0.119 P  
HETATM   10  S   UNL     1     -11.156   6.115  69.389  1.00  0.00    -0.381 S  
BRANCH   9  11
HETATM   11  O   UNL     1      -9.455   7.741  67.416  1.00  0.00    -0.137 OA 
HETATM   12  C   UNL     1      -8.542   8.028  66.365  1.00  0.00    -0.145 C  
ENDBRANCH   9  11
BRANCH   9  13
HETATM   13  O   UNL     1     -10.746   5.878  66.841  1.00  0.00    -0.284 OA 
HETATM   14  C   UNL     1     -10.468   4.722  66.076  1.00  0.00    -0.292 C  
ENDBRANCH   9  13
ENDBRANCH   8   9
ENDBRANCH   7   8
BRANCH   7  15
HETATM   15  C   UNL     1      -8.533   8.631  71.437  1.00  0.00    -0.188 C  
HETATM   16  O   UNL     1      -7.950   8.022  72.323  1.00  0.00    -0.105 OA 
BRANCH  15  17
HETATM   17  O   UNL     1      -9.594   9.466  71.629  1.00  0.00    -0.260 OA 
BRANCH  17  18
HETATM   18  C   UNL     1     -10.596   9.415  70.605  1.00  0.00    -0.290 C  
HETATM   19  C   UNL     1     -11.918   9.824  71.228  1.00  0.00    -0.471 C  
ENDBRANCH  17  18
ENDBRANCH  15  17
ENDBRANCH   7  15
ENDBRANCH   6   7
ENDBRANCH   4   6
ENDBRANCH   3   4
ENDBRANCH   2   3
TORSDOF 11
ENDMDL
MODEL      331
REMARK 921   NORMALIZED FREE ENERGY PREDICTED BY IDOCK:   -2.45 KCAL/MOL
REMARK 922        TOTAL FREE ENERGY PREDICTED BY IDOCK:   -4.73 KCAL/MOL
REMARK 923 INTER-LIGAND FREE ENERGY PREDICTED BY IDOCK:   -4.09 KCAL/MOL
REMARK 924 INTRA-LIGAND FREE ENERGY PREDICTED BY IDOCK:   -0.64 KCAL/MOL
REMARK 927      BINDING AFFINITY PREDICTED BY RF-SCORE:    0.00 PKD
ROOT
HETATM    1  C   UNL     1      -7.889   8.273  71.993  1.00  0.00    -0.168 C  
HETATM    2  C   UNL     1      -9.100   7.370  72.145  1.00  0.00    -0.131 C  
ENDROOT
BRANCH   2   3
HETATM    3  O   UNL     1      -9.908   7.531  70.973  1.00  0.00    -0.179 OA 
BRANCH   3   4
HETATM    4  C   UNL     1     -10.643   8.669  70.908  1.00  0.00    -0.214 C  
HETATM    5  O   UNL     1     -11.079   9.302  71.862  1.00  0.00    -0.367 OA 
BRANCH   4   6
HETATM    6  C   UNL     1     -10.684   9.165  69.492  1.00  0.00    -0.226 C  
BRANCH   6   7
HETATM    7  C   UNL     1     -10.099  10.566  69.381  1.00  0.00    -0.209 C  
BRANCH   7   8
HETATM    8  S   UNL     1      -8.334  10.580  68.855  1.00  0.00    -0.154 SA 
BRANCH   8   9
HETATM    9  P   UNL     1      -8.276  10.401  66.743  1.00  0.00    -0.133 P  
HETATM   10  S   UNL     1      -6.334  10.983  66.631  1.00  0.00    -0.134 S  
BRANCH   9  11
HETATM   11  O   UNL     1      -8.437   8.752  66.798  1.00  0.00    -0.109 OA 
HETATM   12  C   UNL     1      -9.566   8.073  66.264  1.00  0.00    -0.152 C  
ENDBRANCH   9  11
BRANCH   9  13
HETATM   13  O   UNL     1      -8.229  10.257  65.020  1.00  0.00    -0.148 OA 
HETATM   14  C   UNL     1      -6.965   9.933  64.475  1.00  0.00    -0.131 C  
ENDBRANCH   9  13
ENDBRANCH   8   9
ENDBRANCH   7   8
BRANCH   7  15
HETATM   15  C   UNL     1     -10.869  11.336  68.316  1.00  0.00    -0.205 C  
HETATM   16  O   UNL     1     -11.676  10.839  67.542  1.00  0.00    -0.510 OA 
BRANCH  15  17
HETATM   17  O   UNL     1     -10.450  12.633  68.284  1.00  0.00    -0.226 OA 
BRANCH  17  18
HETATM   18  C   UNL     1     -11.465  13.588  67.951  1.00  0.00    -0.318 C  
HETATM   19  C   UNL     1     -11.911  14.260  69.237  1.00  0.00    -0.375 C  
ENDBRANCH  17  18
ENDBRANCH  15  17
ENDBRANCH   7  15
ENDBRANCH   6   7
ENDBRANCH   4   6
ENDBRANCH   3   4
ENDBRANCH   2   3
TORSDOF 11
ENDMDL
MODEL      332
REMARK 921   NORMALIZED FREE ENERGY PREDICTED BY IDOCK:   -2.44 KCAL/MOL
REMARK 922        TOTAL FREE ENERGY PREDICTED BY IDOCK:   -4.71 KCAL/MOL
REMARK 923 INTER-LIGAND FREE ENERGY PREDICTED BY IDOCK:   -3.76 KCAL/MOL
REMARK 924 INTRA-LIGAND FREE ENERGY PREDICTED BY IDOCK:   -0.95 KCAL/MOL
REMARK 927      BINDING AFFINITY PREDICTED BY RF-SCORE:    0.00 PKD
ROOT
HETATM    1  C   UNL     1     -10.143   4.369  64.751  1.00  0.00    -0.102 C  
HETATM    2  C   UNL     1      -9.962   4.485  66.254  1.00  0.00    -0.247 C  
ENDROOT
BRANCH   2   3
HETATM    3  O   UNL     1      -9.449   5.794  66.527  1.00  0.00    -0.146 OA 
BRANCH   3   4
HETATM    4  C   UNL     1      -9.339   6.129  67.837  1.00  0.00    -0.113 C  
HETATM    5  O   UNL     1      -8.294   6.279  68.459  1.00  0.00    -0.114 OA 
BRANCH   4   6
HETATM    6  C   UNL     1     -10.690   6.490  68.382  1.00  0.00    -0.339 C  
BRANCH   6   7
HETATM    7  C   UNL     1     -10.579   7.530  69.488  1.00  0.00    -0.236 C  
BRANCH   7   8
HETATM    8  S   UNL     1     -11.002   9.234  68.931  1.00  0.00     0.067 SA 
BRANCH   8   9
HETATM    9  P   UNL     1      -9.193  10.312  68.682  1.00  0.00    -0.174 P  
HETATM   10  S   UNL     1      -8.284   9.371  70.236  1.00  0.00    -0.185 S  
BRANCH   9  11
HETATM   11  O   UNL     1      -8.866   9.585  67.228  1.00  0.00    -0.127 OA 
HETATM   12  C   UNL     1      -9.858   9.385  66.230  1.00  0.00    -0.281 C  
ENDBRANCH   9  11
BRANCH   9  13
HETATM   13  O   UNL     1      -7.717  11.191  68.481  1.00  0.00    -0.112 OA 
HETATM   14  C   UNL     1      -7.732  12.173  67.463  1.00  0.00    -0.159 C  
ENDBRANCH   9  13
ENDBRANCH   8   9
ENDBRANCH   7   8
BRANCH   7  15
HETATM   15  C   UNL     1     -11.571   7.183  70.590  1.00  0.00    -0.314 C  
HETATM   16  O   UNL     1     -12.345   7.976  71.108  1.00  0.00    -0.294 OA 
BRANCH  15  17
HETATM   17  O   UNL     1     -11.397   5.889  70.983  1.00  0.00    -0.263 OA 
BRANCH  17  18
HETATM   18  C   UNL     1     -10.510   5.708  72.094  1.00  0.00    -0.216 C  
HETATM   19  C   UNL     1     -11.262   4.950  73.172  1.00  0.00    -0.403 C  
ENDBRANCH  17  18
ENDBRANCH  15  17
ENDBRANCH   7  15
ENDBRANCH   6   7
ENDBRANCH   4   6
ENDBRANCH   3   4
ENDBRANCH   2   3
TORSDOF 11
ENDMDL
MODEL      333
REMARK 921   NORMALIZED FREE ENERGY PREDICTED BY IDOCK:   -2.44 KCAL/MOL
REMARK 922        TOTAL FREE ENERGY PREDICTED BY IDOCK:   -4.71 KCAL/MOL
REMARK 923 INTER-LIGAND FREE ENERGY PREDICTED BY IDOCK:   -5.22 KCAL/MOL
REMARK 924 INTRA-LIGAND FREE ENERGY PREDICTED BY IDOCK:    0.51 KCAL/MOL
REMARK 927      BINDING AFFINITY PREDICTED BY RF-SCORE:    0.00 PKD
ROOT
HETATM    1  C   UNL     1      -6.792  19.830  67.665  1.00  0.00    -0.276 C  
HETATM    2  C   UNL     1      -7.876  19.678  68.717  1.00  0.00    -0.297 C  
ENDROOT
BRANCH   2   3
HETATM    3  O   UNL     1      -9.133  19.936  68.081  1.00  0.00    -0.325 OA 
BRANCH   3   4
HETATM    4  C   UNL     1      -9.676  18.901  67.393  1.00  0.00    -0.312 C  
HETATM    5  O   UNL     1      -9.913  18.877  66.192  1.00  0.00    -0.372 OA 
BRANCH   4   6
HETATM    6  C   UNL     1      -9.766  17.694  68.282  1.00  0.00    -0.315 C  
BRANCH   6   7
HETATM    7  C   UNL     1      -9.454  16.418  67.513  1.00  0.00    -0.224 C  
BRANCH   7   8
HETATM    8  S   UNL     1     -10.283  16.337  65.870  1.00  0.00    -0.364 SA 
BRANCH   8   9
HETATM    9  P   UNL     1     -11.524  14.619  65.844  1.00  0.00    -0.272 P  
HETATM   10  S   UNL     1     -10.435  13.712  64.388  1.00  0.00    -0.123 S  
BRANCH   9  11
HETATM   11  O   UNL     1     -11.051  14.156  67.364  1.00  0.00    -0.291 OA 
HETATM   12  C   UNL     1     -11.967  13.683  68.342  1.00  0.00    -0.356 C  
ENDBRANCH   9  11
BRANCH   9  13
HETATM   13  O   UNL     1     -12.536  13.216  65.821  1.00  0.00    -0.444 OA 
HETATM   14  C   UNL     1     -12.410  12.398  64.675  1.00  0.00    -0.441 C  
ENDBRANCH   9  13
ENDBRANCH   8   9
ENDBRANCH   7   8
BRANCH   7  15
HETATM   15  C   UNL     1      -7.957  16.363  67.240  1.00  0.00    -0.168 C  
HETATM   16  O   UNL     1      -7.387  16.977  66.348  1.00  0.00    -0.254 OA 
BRANCH  15  17
HETATM   17  O   UNL     1      -7.365  15.454  68.066  1.00  0.00    -0.107 OA 
BRANCH  17  18
HETATM   18  C   UNL     1      -7.060  14.193  67.457  1.00  0.00    -0.163 C  
HETATM   19  C   UNL     1      -7.403  13.100  68.452  1.00  0.00    -0.116 C  
ENDBRANCH  17  18
ENDBRANCH  15  17
ENDBRANCH   7  15
ENDBRANCH   6   7
ENDBRANCH   4   6
ENDBRANCH   3   4
ENDBRANCH   2   3
TORSDOF 11
ENDMDL
MODEL      334
REMARK 921   NORMALIZED FREE ENERGY PREDICTED BY IDOCK:   -2.42 KCAL/MOL
REMARK 922        TOTAL FREE ENERGY PREDICTED BY IDOCK:   -4.68 KCAL/MOL
REMARK 923 INTER-LIGAND FREE ENERGY PREDICTED BY IDOCK:   -4.43 KCAL/MOL
REMARK 924 INTRA-LIGAND FREE ENERGY PREDICTED BY IDOCK:   -0.25 KCAL/MOL
REMARK 927      BINDING AFFINITY PREDICTED BY RF-SCORE:    0.00 PKD
ROOT
HETATM    1  C   UNL     1      -7.105  15.983  69.472  1.00  0.00    -0.181 C  
HETATM    2  C   UNL     1      -8.272  15.894  68.504  1.00  0.00    -0.169 C  
ENDROOT
BRANCH   2   3
HETATM    3  O   UNL     1      -9.064  14.763  68.886  1.00  0.00    -0.187 OA 
BRANCH   3   4
HETATM    4  C   UNL     1      -8.958  13.668  68.093  1.00  0.00    -0.191 C  
HETATM    5  O   UNL     1      -7.968  13.331  67.455  1.00  0.00    -0.171 OA 
BRANCH   4   6
HETATM    6  C   UNL     1     -10.173  12.803  68.262  1.00  0.00    -0.245 C  
BRANCH   6   7
HETATM    7  C   UNL     1     -10.144  11.619  67.306  1.00  0.00    -0.199 C  
BRANCH   7   8
HETATM    8  S   UNL     1     -10.357   9.995  68.149  1.00  0.00    -0.207 SA 
BRANCH   8   9
HETATM    9  P   UNL     1      -8.931   9.874  69.713  1.00  0.00    -0.145 P  
HETATM   10  S   UNL     1     -10.301   9.242  71.071  1.00  0.00    -0.323 S  
BRANCH   9  11
HETATM   11  O   UNL     1      -8.130   8.613  68.992  1.00  0.00    -0.116 OA 
HETATM   12  C   UNL     1      -8.474   8.122  67.704  1.00  0.00    -0.131 C  
ENDBRANCH   9  11
BRANCH   9  13
HETATM   13  O   UNL     1      -7.767   9.776  70.989  1.00  0.00    -0.292 OA 
HETATM   14  C   UNL     1      -7.350   8.468  71.327  1.00  0.00    -0.091 C  
ENDBRANCH   9  13
ENDBRANCH   8   9
ENDBRANCH   7   8
BRANCH   7  15
HETATM   15  C   UNL     1     -11.304  11.748  66.328  1.00  0.00    -0.287 C  
HETATM   16  O   UNL     1     -12.390  12.246  66.595  1.00  0.00    -0.471 OA 
BRANCH  15  17
HETATM   17  O   UNL     1     -10.992  11.136  65.150  1.00  0.00    -0.201 OA 
BRANCH  17  18
HETATM   18  C   UNL     1     -10.926  12.007  64.015  1.00  0.00    -0.381 C  
HETATM   19  C   UNL     1     -10.575  13.397  64.514  1.00  0.00    -0.441 C  
ENDBRANCH  17  18
ENDBRANCH  15  17
ENDBRANCH   7  15
ENDBRANCH   6   7
ENDBRANCH   4   6
ENDBRANCH   3   4
ENDBRANCH   2   3
TORSDOF 11
ENDMDL
MODEL      335
REMARK 921   NORMALIZED FREE ENERGY PREDICTED BY IDOCK:   -2.42 KCAL/MOL
REMARK 922        TOTAL FREE ENERGY PREDICTED BY IDOCK:   -4.67 KCAL/MOL
REMARK 923 INTER-LIGAND FREE ENERGY PREDICTED BY IDOCK:   -4.18 KCAL/MOL
REMARK 924 INTRA-LIGAND FREE ENERGY PREDICTED BY IDOCK:   -0.49 KCAL/MOL
REMARK 927      BINDING AFFINITY PREDICTED BY RF-SCORE:    0.00 PKD
ROOT
HETATM    1  C   UNL     1      -9.764  10.395  64.205  1.00  0.00    -0.387 C  
HETATM    2  C   UNL     1     -10.622  11.535  64.728  1.00  0.00    -0.305 C  
ENDROOT
BRANCH   2   3
HETATM    3  O   UNL     1     -10.821  11.316  66.129  1.00  0.00    -0.267 OA 
BRANCH   3   4
HETATM    4  C   UNL     1      -9.842  11.774  66.948  1.00  0.00    -0.203 C  
HETATM    5  O   UNL     1      -9.548  12.948  67.137  1.00  0.00    -0.213 OA 
BRANCH   4   6
HETATM    6  C   UNL     1      -9.287  10.637  67.757  1.00  0.00    -0.154 C  
BRANCH   6   7
HETATM    7  C   UNL     1     -10.393   9.702  68.225  1.00  0.00    -0.204 C  
BRANCH   7   8
HETATM    8  S   UNL     1     -10.352   8.055  67.400  1.00  0.00    -0.295 SA 
BRANCH   8   9
HETATM    9  P   UNL     1      -9.153   6.761  68.575  1.00  0.00    -0.126 P  
HETATM   10  S   UNL     1     -10.089   5.090  67.898  1.00  0.00    -0.076 S  
BRANCH   9  11
HETATM   11  O   UNL     1      -7.784   7.110  67.706  1.00  0.00    -0.108 OA 
HETATM   12  C   UNL     1      -7.766   7.148  66.285  1.00  0.00    -0.100 C  
ENDBRANCH   9  11
BRANCH   9  13
HETATM   13  O   UNL     1      -8.175   5.704  69.534  1.00  0.00    -0.100 OA 
HETATM   14  C   UNL     1      -8.603   5.531  70.870  1.00  0.00    -0.128 C  
ENDBRANCH   9  13
ENDBRANCH   8   9
ENDBRANCH   7   8
BRANCH   7  15
HETATM   15  C   UNL     1     -10.215   9.438  69.714  1.00  0.00    -0.220 C  
HETATM   16  O   UNL     1      -9.184   9.641  70.341  1.00  0.00    -0.250 OA 
BRANCH  15  17
HETATM   17  O   UNL     1     -11.335   8.847  70.220  1.00  0.00    -0.244 OA 
BRANCH  17  18
HETATM   18  C   UNL     1     -11.847   9.447  71.416  1.00  0.00    -0.374 C  
HETATM   19  C   UNL     1     -11.799   8.404  72.518  1.00  0.00    -0.427 C  
ENDBRANCH  17  18
ENDBRANCH  15  17
ENDBRANCH   7  15
ENDBRANCH   6   7
ENDBRANCH   4   6
ENDBRANCH   3   4
ENDBRANCH   2   3
TORSDOF 11
ENDMDL
MODEL      336
REMARK 921   NORMALIZED FREE ENERGY PREDICTED BY IDOCK:   -2.42 KCAL/MOL
REMARK 922        TOTAL FREE ENERGY PREDICTED BY IDOCK:   -4.67 KCAL/MOL
REMARK 923 INTER-LIGAND FREE ENERGY PREDICTED BY IDOCK:   -4.38 KCAL/MOL
REMARK 924 INTRA-LIGAND FREE ENERGY PREDICTED BY IDOCK:   -0.29 KCAL/MOL
REMARK 927      BINDING AFFINITY PREDICTED BY RF-SCORE:    0.00 PKD
ROOT
HETATM    1  C   UNL     1      -6.144   4.730  66.259  1.00  0.00    -0.031 C  
HETATM    2  C   UNL     1      -7.470   3.993  66.336  1.00  0.00    -0.084 C  
ENDROOT
BRANCH   2   3
HETATM    3  O   UNL     1      -8.172   4.488  67.482  1.00  0.00    -0.100 OA 
BRANCH   3   4
HETATM    4  C   UNL     1      -9.469   4.107  67.597  1.00  0.00    -0.180 C  
HETATM    5  O   UNL     1      -9.890   3.168  68.261  1.00  0.00    -0.025 OA 
BRANCH   4   6
HETATM    6  C   UNL     1     -10.355   5.128  66.945  1.00  0.00    -0.288 C  
BRANCH   6   7
HETATM    7  C   UNL     1     -10.719   6.242  67.916  1.00  0.00    -0.305 C  
BRANCH   7   8
HETATM    8  S   UNL     1     -10.372   5.819  69.675  1.00  0.00    -0.289 SA 
BRANCH   8   9
HETATM    9  P   UNL     1     -11.782   6.836  70.887  1.00  0.00    -0.367 P  
HETATM   10  S   UNL     1     -11.206   5.865  72.575  1.00  0.00    -0.302 S  
BRANCH   9  11
HETATM   11  O   UNL     1     -11.010   8.292  70.703  1.00  0.00    -0.233 OA 
HETATM   12  C   UNL     1      -9.800   8.609  71.378  1.00  0.00    -0.256 C  
ENDBRANCH   9  11
BRANCH   9  13
HETATM   13  O   UNL     1     -12.934   7.665  71.877  1.00  0.00    -0.312 OA 
HETATM   14  C   UNL     1     -14.285   7.311  71.658  1.00  0.00    -0.409 C  
ENDBRANCH   9  13
ENDBRANCH   8   9
ENDBRANCH   7   8
BRANCH   7  15
HETATM   15  C   UNL     1      -9.873   7.468  67.596  1.00  0.00    -0.161 C  
HETATM   16  O   UNL     1      -8.706   7.617  67.931  1.00  0.00    -0.124 OA 
BRANCH  15  17
HETATM   17  O   UNL     1     -10.636   8.412  66.975  1.00  0.00    -0.314 OA 
BRANCH  17  18
HETATM   18  C   UNL     1     -10.121   9.747  67.044  1.00  0.00    -0.218 C  
HETATM   19  C   UNL     1     -11.172  10.619  67.706  1.00  0.00    -0.383 C  
ENDBRANCH  17  18
ENDBRANCH  15  17
ENDBRANCH   7  15
ENDBRANCH   6   7
ENDBRANCH   4   6
ENDBRANCH   3   4
ENDBRANCH   2   3
TORSDOF 11
ENDMDL
MODEL      337
REMARK 921   NORMALIZED FREE ENERGY PREDICTED BY IDOCK:   -2.41 KCAL/MOL
REMARK 922        TOTAL FREE ENERGY PREDICTED BY IDOCK:   -4.66 KCAL/MOL
REMARK 923 INTER-LIGAND FREE ENERGY PREDICTED BY IDOCK:   -4.39 KCAL/MOL
REMARK 924 INTRA-LIGAND FREE ENERGY PREDICTED BY IDOCK:   -0.27 KCAL/MOL
REMARK 927      BINDING AFFINITY PREDICTED BY RF-SCORE:    0.00 PKD
ROOT
HETATM    1  C   UNL     1     -11.434   5.503  72.925  1.00  0.00    -0.327 C  
HETATM    2  C   UNL     1     -11.508   6.525  71.804  1.00  0.00    -0.300 C  
ENDROOT
BRANCH   2   3
HETATM    3  O   UNL     1     -11.429   7.825  72.400  1.00  0.00    -0.314 OA 
BRANCH   3   4
HETATM    4  C   UNL     1     -12.344   8.731  71.975  1.00  0.00    -0.377 C  
HETATM    5  O   UNL     1     -13.100   9.382  72.686  1.00  0.00    -0.358 OA 
BRANCH   4   6
HETATM    6  C   UNL     1     -12.166   8.979  70.505  1.00  0.00     0.098 C  
BRANCH   6   7
HETATM    7  C   UNL     1     -11.020   9.945  70.244  1.00  0.00    -0.309 C  
BRANCH   7   8
HETATM    8  S   UNL     1      -9.420   9.101  69.897  1.00  0.00    -0.199 SA 
BRANCH   8   9
HETATM    9  P   UNL     1      -9.479   8.372  67.907  1.00  0.00    -0.152 P  
HETATM   10  S   UNL     1      -7.651   7.499  68.049  1.00  0.00    -0.112 S  
BRANCH   9  11
HETATM   11  O   UNL     1     -10.711   7.314  68.246  1.00  0.00    -0.190 OA 
HETATM   12  C   UNL     1     -10.539   5.904  68.220  1.00  0.00    -0.244 C  
ENDBRANCH   9  11
BRANCH   9  13
HETATM   13  O   UNL     1      -9.527   7.778  66.283  1.00  0.00    -0.189 OA 
HETATM   14  C   UNL     1      -9.072   8.681  65.295  1.00  0.00    -0.040 C  
ENDBRANCH   9  13
ENDBRANCH   8   9
ENDBRANCH   7   8
BRANCH   7  15
HETATM   15  C   UNL     1     -11.346  10.769  69.005  1.00  0.00    -0.284 C  
HETATM   16  O   UNL     1     -11.989  10.364  68.047  1.00  0.00    -0.218 OA 
BRANCH  15  17
HETATM   17  O   UNL     1     -10.728  11.983  69.077  1.00  0.00    -0.206 OA 
BRANCH  17  18
HETATM   18  C   UNL     1     -11.311  13.007  68.261  1.00  0.00    -0.288 C  
HETATM   19  C   UNL     1     -12.145  13.901  69.161  1.00  0.00    -0.377 C  
ENDBRANCH  17  18
ENDBRANCH  15  17
ENDBRANCH   7  15
ENDBRANCH   6   7
ENDBRANCH   4   6
ENDBRANCH   3   4
ENDBRANCH   2   3
TORSDOF 11
ENDMDL
MODEL      338
REMARK 921   NORMALIZED FREE ENERGY PREDICTED BY IDOCK:   -2.41 KCAL/MOL
REMARK 922        TOTAL FREE ENERGY PREDICTED BY IDOCK:   -4.65 KCAL/MOL
REMARK 923 INTER-LIGAND FREE ENERGY PREDICTED BY IDOCK:   -3.92 KCAL/MOL
REMARK 924 INTRA-LIGAND FREE ENERGY PREDICTED BY IDOCK:   -0.73 KCAL/MOL
REMARK 927      BINDING AFFINITY PREDICTED BY RF-SCORE:    0.00 PKD
ROOT
HETATM    1  C   UNL     1      -5.702  12.849  70.742  1.00  0.00    -0.146 C  
HETATM    2  C   UNL     1      -5.799  11.591  69.897  1.00  0.00    -0.121 C  
ENDROOT
BRANCH   2   3
HETATM    3  O   UNL     1      -6.775  10.737  70.505  1.00  0.00    -0.312 OA 
BRANCH   3   4
HETATM    4  C   UNL     1      -7.331   9.800  69.698  1.00  0.00    -0.103 C  
HETATM    5  O   UNL     1      -7.848   8.750  70.060  1.00  0.00    -0.085 OA 
BRANCH   4   6
HETATM    6  C   UNL     1      -7.404  10.321  68.292  1.00  0.00    -0.085 C  
BRANCH   6   7
HETATM    7  C   UNL     1      -8.767  10.045  67.672  1.00  0.00    -0.121 C  
BRANCH   7   8
HETATM    8  S   UNL     1     -10.116  11.074  68.388  1.00  0.00    -0.191 SA 
BRANCH   8   9
HETATM    9  P   UNL     1      -9.991  13.010  67.534  1.00  0.00    -0.220 P  
HETATM   10  S   UNL     1     -11.576  13.707  68.594  1.00  0.00    -0.353 S  
BRANCH   9  11
HETATM   11  O   UNL     1      -8.544  13.332  68.279  1.00  0.00    -0.173 OA 
HETATM   12  C   UNL     1      -7.472  13.990  67.618  1.00  0.00    -0.174 C  
ENDBRANCH   9  11
BRANCH   9  13
HETATM   13  O   UNL     1      -9.889  14.590  66.836  1.00  0.00    -0.249 OA 
HETATM   14  C   UNL     1     -11.002  15.429  67.075  1.00  0.00    -0.306 C  
ENDBRANCH   9  13
ENDBRANCH   8   9
ENDBRANCH   7   8
BRANCH   7  15
HETATM   15  C   UNL     1      -8.709  10.388  66.189  1.00  0.00    -0.152 C  
HETATM   16  O   UNL     1      -7.720  10.813  65.609  1.00  0.00    -0.138 OA 
BRANCH  15  17
HETATM   17  O   UNL     1      -9.946  10.251  65.630  1.00  0.00    -0.251 OA 
BRANCH  17  18
HETATM   18  C   UNL     1      -9.988  10.413  64.207  1.00  0.00    -0.298 C  
HETATM   19  C   UNL     1     -10.629  11.756  63.911  1.00  0.00    -0.445 C  
ENDBRANCH  17  18
ENDBRANCH  15  17
ENDBRANCH   7  15
ENDBRANCH   6   7
ENDBRANCH   4   6
ENDBRANCH   3   4
ENDBRANCH   2   3
TORSDOF 11
ENDMDL
MODEL      339
REMARK 921   NORMALIZED FREE ENERGY PREDICTED BY IDOCK:   -2.41 KCAL/MOL
REMARK 922        TOTAL FREE ENERGY PREDICTED BY IDOCK:   -4.65 KCAL/MOL
REMARK 923 INTER-LIGAND FREE ENERGY PREDICTED BY IDOCK:   -5.17 KCAL/MOL
REMARK 924 INTRA-LIGAND FREE ENERGY PREDICTED BY IDOCK:    0.52 KCAL/MOL
REMARK 927      BINDING AFFINITY PREDICTED BY RF-SCORE:    0.00 PKD
ROOT
HETATM    1  C   UNL     1     -11.926  15.177  69.437  1.00  0.00    -0.337 C  
HETATM    2  C   UNL     1     -11.852  14.459  68.101  1.00  0.00    -0.327 C  
ENDROOT
BRANCH   2   3
HETATM    3  O   UNL     1     -11.500  13.096  68.363  1.00  0.00    -0.271 OA 
BRANCH   3   4
HETATM    4  C   UNL     1     -11.545  12.254  67.300  1.00  0.00    -0.357 C  
HETATM    5  O   UNL     1     -12.280  12.360  66.326  1.00  0.00    -0.620 OA 
BRANCH   4   6
HETATM    6  C   UNL     1     -10.417  11.268  67.388  1.00  0.00    -0.247 C  
BRANCH   6   7
HETATM    7  C   UNL     1     -10.927   9.876  67.735  1.00  0.00    -0.217 C  
BRANCH   7   8
HETATM    8  S   UNL     1     -10.122   8.539  66.757  1.00  0.00    -0.297 SA 
BRANCH   8   9
HETATM    9  P   UNL     1      -8.431   9.366  65.782  1.00  0.00    -0.147 P  
HETATM   10  S   UNL     1      -9.562  10.423  64.466  1.00  0.00    -0.331 S  
BRANCH   9  11
HETATM   11  O   UNL     1      -8.004  10.264  67.109  1.00  0.00    -0.112 OA 
HETATM   12  C   UNL     1      -6.823  10.013  67.858  1.00  0.00    -0.075 C  
ENDBRANCH   9  11
BRANCH   9  13
HETATM   13  O   UNL     1      -7.051  10.041  64.985  1.00  0.00    -0.125 OA 
HETATM   14  C   UNL     1      -7.111  10.044  63.572  1.00  0.00    -0.130 C  
ENDBRANCH   9  13
ENDBRANCH   8   9
ENDBRANCH   7   8
BRANCH   7  15
HETATM   15  C   UNL     1     -10.608   9.588  69.196  1.00  0.00    -0.222 C  
HETATM   16  O   UNL     1      -9.673   8.900  69.584  1.00  0.00    -0.168 OA 
BRANCH  15  17
HETATM   17  O   UNL     1     -11.574  10.120  69.998  1.00  0.00    -0.257 OA 
BRANCH  17  18
HETATM   18  C   UNL     1     -11.574   9.638  71.347  1.00  0.00    -0.400 C  
HETATM   19  C   UNL     1     -12.999   9.703  71.866  1.00  0.00    -0.527 C  
ENDBRANCH  17  18
ENDBRANCH  15  17
ENDBRANCH   7  15
ENDBRANCH   6   7
ENDBRANCH   4   6
ENDBRANCH   3   4
ENDBRANCH   2   3
TORSDOF 11
ENDMDL
MODEL      340
REMARK 921   NORMALIZED FREE ENERGY PREDICTED BY IDOCK:   -2.41 KCAL/MOL
REMARK 922        TOTAL FREE ENERGY PREDICTED BY IDOCK:   -4.65 KCAL/MOL
REMARK 923 INTER-LIGAND FREE ENERGY PREDICTED BY IDOCK:   -4.45 KCAL/MOL
REMARK 924 INTRA-LIGAND FREE ENERGY PREDICTED BY IDOCK:   -0.20 KCAL/MOL
REMARK 927      BINDING AFFINITY PREDICTED BY RF-SCORE:    0.00 PKD
ROOT
HETATM    1  C   UNL     1      -5.868   6.855  66.107  1.00  0.00    -0.034 C  
HETATM    2  C   UNL     1      -7.116   6.108  66.542  1.00  0.00    -0.068 C  
ENDROOT
BRANCH   2   3
HETATM    3  O   UNL     1      -7.886   6.995  67.362  1.00  0.00    -0.108 OA 
BRANCH   3   4
HETATM    4  C   UNL     1      -9.102   6.539  67.753  1.00  0.00    -0.112 C  
HETATM    5  O   UNL     1      -9.313   5.669  68.589  1.00  0.00    -0.119 OA 
BRANCH   4   6
HETATM    6  C   UNL     1     -10.180   7.397  67.155  1.00  0.00    -0.347 C  
BRANCH   6   7
HETATM    7  C   UNL     1     -10.461   8.615  68.024  1.00  0.00    -0.197 C  
BRANCH   7   8
HETATM    8  S   UNL     1      -9.699   8.507  69.698  1.00  0.00    -0.182 SA 
BRANCH   8   9
HETATM    9  P   UNL     1     -11.253   8.624  71.135  1.00  0.00    -0.309 P  
HETATM   10  S   UNL     1     -11.911   6.742  70.747  1.00  0.00    -0.369 S  
BRANCH   9  11
HETATM   11  O   UNL     1     -10.185   8.668  72.404  1.00  0.00    -0.312 OA 
HETATM   12  C   UNL     1      -8.794   8.428  72.244  1.00  0.00    -0.220 C  
ENDBRANCH   9  11
BRANCH   9  13
HETATM   13  O   UNL     1     -12.521   8.719  72.308  1.00  0.00    -0.372 OA 
HETATM   14  C   UNL     1     -13.832   8.751  71.778  1.00  0.00    -0.423 C  
ENDBRANCH   9  13
ENDBRANCH   8   9
ENDBRANCH   7   8
BRANCH   7  15
HETATM   15  C   UNL     1      -9.855   9.843  67.357  1.00  0.00    -0.179 C  
HETATM   16  O   UNL     1      -9.457  10.835  67.952  1.00  0.00    -0.153 OA 
BRANCH  15  17
HETATM   17  O   UNL     1      -9.917   9.715  66.001  1.00  0.00    -0.266 OA 
BRANCH  17  18
HETATM   18  C   UNL     1     -10.278  10.910  65.297  1.00  0.00    -0.288 C  
HETATM   19  C   UNL     1      -9.937  10.708  63.832  1.00  0.00    -0.390 C  
ENDBRANCH  17  18
ENDBRANCH  15  17
ENDBRANCH   7  15
ENDBRANCH   6   7
ENDBRANCH   4   6
ENDBRANCH   3   4
ENDBRANCH   2   3
TORSDOF 11
ENDMDL
MODEL      341
REMARK 921   NORMALIZED FREE ENERGY PREDICTED BY IDOCK:   -2.40 KCAL/MOL
REMARK 922        TOTAL FREE ENERGY PREDICTED BY IDOCK:   -4.64 KCAL/MOL
REMARK 923 INTER-LIGAND FREE ENERGY PREDICTED BY IDOCK:   -3.80 KCAL/MOL
REMARK 924 INTRA-LIGAND FREE ENERGY PREDICTED BY IDOCK:   -0.84 KCAL/MOL
REMARK 927      BINDING AFFINITY PREDICTED BY RF-SCORE:    0.00 PKD
ROOT
HETATM    1  C   UNL     1      -9.500   5.111  66.095  1.00  0.00    -0.168 C  
HETATM    2  C   UNL     1      -8.802   5.241  67.437  1.00  0.00    -0.105 C  
ENDROOT
BRANCH   2   3
HETATM    3  O   UNL     1      -9.807   5.157  68.455  1.00  0.00    -0.140 OA 
BRANCH   3   4
HETATM    4  C   UNL     1      -9.356   5.027  69.727  1.00  0.00    -0.134 C  
HETATM    5  O   UNL     1      -8.196   4.823  70.065  1.00  0.00    -0.068 OA 
BRANCH   4   6
HETATM    6  C   UNL     1     -10.456   5.367  70.691  1.00  0.00    -0.329 C  
BRANCH   6   7
HETATM    7  C   UNL     1     -10.247   6.747  71.300  1.00  0.00    -0.202 C  
BRANCH   7   8
HETATM    8  S   UNL     1     -11.572   7.947  70.854  1.00  0.00    -0.244 SA 
BRANCH   8   9
HETATM    9  P   UNL     1     -10.661   9.607  69.900  1.00  0.00    -0.283 P  
HETATM   10  S   UNL     1     -10.456   8.626  68.134  1.00  0.00    -0.148 S  
BRANCH   9  11
HETATM   11  O   UNL     1     -12.052  10.508  69.962  1.00  0.00    -0.287 OA 
HETATM   12  C   UNL     1     -12.723  10.800  71.180  1.00  0.00    -0.431 C  
ENDBRANCH   9  11
BRANCH   9  13
HETATM   13  O   UNL     1      -9.917  10.960  69.121  1.00  0.00    -0.210 OA 
HETATM   14  C   UNL     1      -8.622  10.724  68.605  1.00  0.00    -0.151 C  
ENDBRANCH   9  13
ENDBRANCH   8   9
ENDBRANCH   7   8
BRANCH   7  15
HETATM   15  C   UNL     1     -10.276   6.623  72.817  1.00  0.00    -0.187 C  
HETATM   16  O   UNL     1     -10.860   7.391  73.569  1.00  0.00    -0.379 OA 
BRANCH  15  17
HETATM   17  O   UNL     1      -9.473   5.596  73.216  1.00  0.00    -0.142 OA 
BRANCH  17  18
HETATM   18  C   UNL     1      -8.129   5.972  73.544  1.00  0.00    -0.110 C  
HETATM   19  C   UNL     1      -7.269   4.723  73.484  1.00  0.00    -0.081 C  
ENDBRANCH  17  18
ENDBRANCH  15  17
ENDBRANCH   7  15
ENDBRANCH   6   7
ENDBRANCH   4   6
ENDBRANCH   3   4
ENDBRANCH   2   3
TORSDOF 11
ENDMDL
MODEL      342
REMARK 921   NORMALIZED FREE ENERGY PREDICTED BY IDOCK:   -2.40 KCAL/MOL
REMARK 922        TOTAL FREE ENERGY PREDICTED BY IDOCK:   -4.64 KCAL/MOL
REMARK 923 INTER-LIGAND FREE ENERGY PREDICTED BY IDOCK:   -3.89 KCAL/MOL
REMARK 924 INTRA-LIGAND FREE ENERGY PREDICTED BY IDOCK:   -0.75 KCAL/MOL
REMARK 927      BINDING AFFINITY PREDICTED BY RF-SCORE:    0.00 PKD
ROOT
HETATM    1  C   UNL     1      -7.882   6.982  63.537  1.00  0.00    -0.109 C  
HETATM    2  C   UNL     1      -7.569   5.957  64.613  1.00  0.00    -0.089 C  
ENDROOT
BRANCH   2   3
HETATM    3  O   UNL     1      -8.678   5.931  65.519  1.00  0.00    -0.154 OA 
BRANCH   3   4
HETATM    4  C   UNL     1      -8.426   6.356  66.782  1.00  0.00    -0.112 C  
HETATM    5  O   UNL     1      -7.421   6.112  67.438  1.00  0.00    -0.079 OA 
BRANCH   4   6
HETATM    6  C   UNL     1      -9.474   7.345  67.203  1.00  0.00    -0.187 C  
BRANCH   6   7
HETATM    7  C   UNL     1      -9.383   7.644  68.693  1.00  0.00    -0.147 C  
BRANCH   7   8
HETATM    8  S   UNL     1      -9.304   9.445  69.071  1.00  0.00    -0.157 SA 
BRANCH   8   9
HETATM    9  P   UNL     1      -9.668  10.510  67.275  1.00  0.00    -0.177 P  
HETATM   10  S   UNL     1     -11.432  11.263  67.942  1.00  0.00    -0.263 S  
BRANCH   9  11
HETATM   11  O   UNL     1      -8.401  11.547  67.540  1.00  0.00    -0.134 OA 
HETATM   12  C   UNL     1      -7.159  11.431  66.858  1.00  0.00    -0.142 C  
ENDBRANCH   9  11
BRANCH   9  13
HETATM   13  O   UNL     1      -9.966  11.380  65.809  1.00  0.00    -0.211 OA 
HETATM   14  C   UNL     1     -10.160  10.579  64.660  1.00  0.00    -0.338 C  
ENDBRANCH   9  13
ENDBRANCH   8   9
ENDBRANCH   7   8
BRANCH   7  15
HETATM   15  C   UNL     1     -10.640   7.118  69.375  1.00  0.00    -0.233 C  
HETATM   16  O   UNL     1     -11.135   6.018  69.173  1.00  0.00    -0.362 OA 
BRANCH  15  17
HETATM   17  O   UNL     1     -11.184   8.090  70.162  1.00  0.00    -0.238 OA 
BRANCH  17  18
HETATM   18  C   UNL     1     -12.133   7.625  71.129  1.00  0.00    -0.298 C  
HETATM   19  C   UNL     1     -11.751   8.210  72.476  1.00  0.00    -0.457 C  
ENDBRANCH  17  18
ENDBRANCH  15  17
ENDBRANCH   7  15
ENDBRANCH   6   7
ENDBRANCH   4   6
ENDBRANCH   3   4
ENDBRANCH   2   3
TORSDOF 11
ENDMDL
MODEL      343
REMARK 921   NORMALIZED FREE ENERGY PREDICTED BY IDOCK:   -2.40 KCAL/MOL
REMARK 922        TOTAL FREE ENERGY PREDICTED BY IDOCK:   -4.63 KCAL/MOL
REMARK 923 INTER-LIGAND FREE ENERGY PREDICTED BY IDOCK:   -3.93 KCAL/MOL
REMARK 924 INTRA-LIGAND FREE ENERGY PREDICTED BY IDOCK:   -0.70 KCAL/MOL
REMARK 927      BINDING AFFINITY PREDICTED BY RF-SCORE:    0.00 PKD
ROOT
HETATM    1  C   UNL     1      -5.645   9.753  69.608  1.00  0.00    -0.033 C  
HETATM    2  C   UNL     1      -6.965  10.457  69.872  1.00  0.00    -0.149 C  
ENDROOT
BRANCH   2   3
HETATM    3  O   UNL     1      -7.643   9.729  70.903  1.00  0.00    -0.319 OA 
BRANCH   3   4
HETATM    4  C   UNL     1      -8.664   8.934  70.498  1.00  0.00    -0.186 C  
HETATM    5  O   UNL     1      -8.975   8.694  69.338  1.00  0.00    -0.142 OA 
BRANCH   4   6
HETATM    6  C   UNL     1      -9.248   8.218  71.681  1.00  0.00    -0.245 C  
BRANCH   6   7
HETATM    7  C   UNL     1     -10.148   7.071  71.242  1.00  0.00    -0.190 C  
BRANCH   7   8
HETATM    8  S   UNL     1      -9.810   5.496  72.136  1.00  0.00    -0.166 SA 
BRANCH   8   9
HETATM    9  P   UNL     1      -9.557   3.963  70.694  1.00  0.00    -0.142 P  
HETATM   10  S   UNL     1      -7.706   4.609  70.162  1.00  0.00    -0.054 S  
BRANCH   9  11
HETATM   11  O   UNL     1      -9.502   2.775  71.849  1.00  0.00    -0.107 OA 
HETATM   12  C   UNL     1      -9.892   2.998  73.197  1.00  0.00    -0.110 C  
ENDBRANCH   9  11
BRANCH   9  13
HETATM   13  O   UNL     1      -9.351   2.713  69.516  1.00  0.00    -0.134 OA 
HETATM   14  C   UNL     1      -8.529   3.049  68.415  1.00  0.00    -0.080 C  
ENDBRANCH   9  13
ENDBRANCH   8   9
ENDBRANCH   7   8
BRANCH   7  15
HETATM   15  C   UNL     1     -11.594   7.436  71.551  1.00  0.00    -0.275 C  
HETATM   16  O   UNL     1     -12.570   6.964  70.983  1.00  0.00    -0.374 OA 
BRANCH  15  17
HETATM   17  O   UNL     1     -11.634   8.436  72.477  1.00  0.00    -0.384 OA 
BRANCH  17  18
HETATM   18  C   UNL     1     -12.691   9.387  72.294  1.00  0.00    -0.341 C  
HETATM   19  C   UNL     1     -12.282  10.327  71.175  1.00  0.00    -0.500 C  
ENDBRANCH  17  18
ENDBRANCH  15  17
ENDBRANCH   7  15
ENDBRANCH   6   7
ENDBRANCH   4   6
ENDBRANCH   3   4
ENDBRANCH   2   3
TORSDOF 11
ENDMDL
MODEL      344
REMARK 921   NORMALIZED FREE ENERGY PREDICTED BY IDOCK:   -2.36 KCAL/MOL
REMARK 922        TOTAL FREE ENERGY PREDICTED BY IDOCK:   -4.58 KCAL/MOL
REMARK 923 INTER-LIGAND FREE ENERGY PREDICTED BY IDOCK:   -3.82 KCAL/MOL
REMARK 924 INTRA-LIGAND FREE ENERGY PREDICTED BY IDOCK:   -0.76 KCAL/MOL
REMARK 927      BINDING AFFINITY PREDICTED BY RF-SCORE:    0.00 PKD
ROOT
HETATM    1  C   UNL     1      -8.038  14.651  68.591  1.00  0.00    -0.150 C  
HETATM    2  C   UNL     1      -8.730  14.092  67.359  1.00  0.00    -0.210 C  
ENDROOT
BRANCH   2   3
HETATM    3  O   UNL     1      -9.489  12.950  67.772  1.00  0.00    -0.188 OA 
BRANCH   3   4
HETATM    4  C   UNL     1      -8.928  11.741  67.524  1.00  0.00    -0.168 C  
HETATM    5  O   UNL     1      -7.765  11.425  67.744  1.00  0.00    -0.106 OA 
BRANCH   4   6
HETATM    6  C   UNL     1      -9.992  10.763  67.117  1.00  0.00    -0.230 C  
BRANCH   6   7
HETATM    7  C   UNL     1      -9.431   9.352  67.005  1.00  0.00    -0.155 C  
BRANCH   7   8
HETATM    8  S   UNL     1     -10.653   8.045  67.442  1.00  0.00    -0.214 SA 
BRANCH   8   9
HETATM    9  P   UNL     1     -10.063   7.185  69.288  1.00  0.00    -0.186 P  
HETATM   10  S   UNL     1      -8.149   7.843  69.116  1.00  0.00    -0.125 S  
BRANCH   9  11
HETATM   11  O   UNL     1     -11.010   8.225  70.167  1.00  0.00    -0.248 OA 
HETATM   12  C   UNL     1     -10.541   9.484  70.630  1.00  0.00    -0.308 C  
ENDBRANCH   9  11
BRANCH   9  13
HETATM   13  O   UNL     1      -9.581   6.483  70.794  1.00  0.00    -0.177 OA 
HETATM   14  C   UNL     1     -10.604   5.813  71.504  1.00  0.00    -0.246 C  
ENDBRANCH   9  13
ENDBRANCH   8   9
ENDBRANCH   7   8
BRANCH   7  15
HETATM   15  C   UNL     1      -9.031   9.097  65.558  1.00  0.00    -0.205 C  
HETATM   16  O   UNL     1      -7.956   8.632  65.202  1.00  0.00    -0.112 OA 
BRANCH  15  17
HETATM   17  O   UNL     1     -10.002   9.557  64.718  1.00  0.00     0.005 OA 
BRANCH  17  18
HETATM   18  C   UNL     1      -9.535  10.402  63.660  1.00  0.00    -0.306 C  
HETATM   19  C   UNL     1     -10.552  11.511  63.467  1.00  0.00    -0.487 C  
ENDBRANCH  17  18
ENDBRANCH  15  17
ENDBRANCH   7  15
ENDBRANCH   6   7
ENDBRANCH   4   6
ENDBRANCH   3   4
ENDBRANCH   2   3
TORSDOF 11
ENDMDL
MODEL      345
REMARK 921   NORMALIZED FREE ENERGY PREDICTED BY IDOCK:   -2.36 KCAL/MOL
REMARK 922        TOTAL FREE ENERGY PREDICTED BY IDOCK:   -4.58 KCAL/MOL
REMARK 923 INTER-LIGAND FREE ENERGY PREDICTED BY IDOCK:   -4.05 KCAL/MOL
REMARK 924 INTRA-LIGAND FREE ENERGY PREDICTED BY IDOCK:   -0.53 KCAL/MOL
REMARK 927      BINDING AFFINITY PREDICTED BY RF-SCORE:    0.00 PKD
ROOT
HETATM    1  C   UNL     1      -9.755   4.371  65.213  1.00  0.00    -0.199 C  
HETATM    2  C   UNL     1     -10.272   4.799  66.575  1.00  0.00    -0.259 C  
ENDROOT
BRANCH   2   3
HETATM    3  O   UNL     1      -9.274   5.634  67.172  1.00  0.00    -0.114 OA 
BRANCH   3   4
HETATM    4  C   UNL     1      -8.720   5.172  68.321  1.00  0.00    -0.101 C  
HETATM    5  O   UNL     1      -8.484   4.001  68.589  1.00  0.00    -0.084 OA 
BRANCH   4   6
HETATM    6  C   UNL     1      -8.247   6.327  69.155  1.00  0.00    -0.114 C  
BRANCH   6   7
HETATM    7  C   UNL     1      -9.034   6.429  70.454  1.00  0.00    -0.155 C  
BRANCH   7   8
HETATM    8  S   UNL     1     -10.856   6.303  70.213  1.00  0.00    -0.334 SA 
BRANCH   8   9
HETATM    9  P   UNL     1     -11.761   7.964  71.170  1.00  0.00    -0.257 P  
HETATM   10  S   UNL     1     -10.410   7.974  72.686  1.00  0.00    -0.339 S  
BRANCH   9  11
HETATM   11  O   UNL     1     -11.341   9.000  69.945  1.00  0.00    -0.149 OA 
HETATM   12  C   UNL     1     -10.407  10.057  70.121  1.00  0.00    -0.266 C  
ENDBRANCH   9  11
BRANCH   9  13
HETATM   13  O   UNL     1     -12.500   9.319  71.951  1.00  0.00    -0.342 OA 
HETATM   14  C   UNL     1     -13.881   9.181  72.223  1.00  0.00    -0.463 C  
ENDBRANCH   9  13
ENDBRANCH   8   9
ENDBRANCH   7   8
BRANCH   7  15
HETATM   15  C   UNL     1      -8.641   5.268  71.358  1.00  0.00    -0.129 C  
HETATM   16  O   UNL     1      -7.492   4.982  71.667  1.00  0.00    -0.084 OA 
BRANCH  15  17
HETATM   17  O   UNL     1      -9.745   4.537  71.684  1.00  0.00    -0.157 OA 
BRANCH  17  18
HETATM   18  C   UNL     1      -9.813   4.124  73.054  1.00  0.00    -0.133 C  
HETATM   19  C   UNL     1     -11.222   4.392  73.551  1.00  0.00    -0.375 C  
ENDBRANCH  17  18
ENDBRANCH  15  17
ENDBRANCH   7  15
ENDBRANCH   6   7
ENDBRANCH   4   6
ENDBRANCH   3   4
ENDBRANCH   2   3
TORSDOF 11
ENDMDL
MODEL      346
REMARK 921   NORMALIZED FREE ENERGY PREDICTED BY IDOCK:   -2.35 KCAL/MOL
REMARK 922        TOTAL FREE ENERGY PREDICTED BY IDOCK:   -4.55 KCAL/MOL
REMARK 923 INTER-LIGAND FREE ENERGY PREDICTED BY IDOCK:   -3.84 KCAL/MOL
REMARK 924 INTRA-LIGAND FREE ENERGY PREDICTED BY IDOCK:   -0.72 KCAL/MOL
REMARK 927      BINDING AFFINITY PREDICTED BY RF-SCORE:    0.00 PKD
ROOT
HETATM    1  C   UNL     1     -14.365   7.545  71.817  1.00  0.00    -0.588 C  
HETATM    2  C   UNL     1     -12.906   7.478  71.400  1.00  0.00    -0.342 C  
ENDROOT
BRANCH   2   3
HETATM    3  O   UNL     1     -12.224   8.559  72.045  1.00  0.00    -0.320 OA 
BRANCH   3   4
HETATM    4  C   UNL     1     -10.869   8.495  72.042  1.00  0.00    -0.335 C  
HETATM    5  O   UNL     1     -10.174   7.877  72.839  1.00  0.00    -0.283 OA 
BRANCH   4   6
HETATM    6  C   UNL     1     -10.335   9.133  70.793  1.00  0.00    -0.323 C  
BRANCH   6   7
HETATM    7  C   UNL     1      -9.336   8.223  70.092  1.00  0.00    -0.159 C  
BRANCH   7   8
HETATM    8  S   UNL     1     -10.115   6.739  69.327  1.00  0.00    -0.174 SA 
BRANCH   8   9
HETATM    9  P   UNL     1      -8.859   5.072  69.699  1.00  0.00    -0.099 P  
HETATM   10  S   UNL     1      -9.800   4.604  71.437  1.00  0.00    -0.199 S  
BRANCH   9  11
HETATM   11  O   UNL     1      -9.464   4.226  68.407  1.00  0.00    -0.143 OA 
HETATM   12  C   UNL     1      -8.655   3.392  67.589  1.00  0.00    -0.102 C  
ENDBRANCH   9  11
BRANCH   9  13
HETATM   13  O   UNL     1      -7.833   3.712  70.004  1.00  0.00    -0.047 OA 
HETATM   14  C   UNL     1      -7.931   3.161  71.302  1.00  0.00    -0.058 C  
ENDBRANCH   9  13
ENDBRANCH   8   9
ENDBRANCH   7   8
BRANCH   7  15
HETATM   15  C   UNL     1      -8.681   8.996  68.955  1.00  0.00    -0.136 C  
HETATM   16  O   UNL     1      -8.073   8.486  68.024  1.00  0.00    -0.113 OA 
BRANCH  15  17
HETATM   17  O   UNL     1      -8.783  10.336  69.183  1.00  0.00    -0.151 OA 
BRANCH  17  18
HETATM   18  C   UNL     1      -7.763  11.134  68.570  1.00  0.00    -0.129 C  
HETATM   19  C   UNL     1      -6.652  11.330  69.585  1.00  0.00    -0.136 C  
ENDBRANCH  17  18
ENDBRANCH  15  17
ENDBRANCH   7  15
ENDBRANCH   6   7
ENDBRANCH   4   6
ENDBRANCH   3   4
ENDBRANCH   2   3
TORSDOF 11
ENDMDL
MODEL      347
REMARK 921   NORMALIZED FREE ENERGY PREDICTED BY IDOCK:   -2.33 KCAL/MOL
REMARK 922        TOTAL FREE ENERGY PREDICTED BY IDOCK:   -4.52 KCAL/MOL
REMARK 923 INTER-LIGAND FREE ENERGY PREDICTED BY IDOCK:   -3.85 KCAL/MOL
REMARK 924 INTRA-LIGAND FREE ENERGY PREDICTED BY IDOCK:   -0.67 KCAL/MOL
REMARK 927      BINDING AFFINITY PREDICTED BY RF-SCORE:    0.00 PKD
ROOT
HETATM    1  C   UNL     1     -10.631  11.350  64.441  1.00  0.00    -0.403 C  
HETATM    2  C   UNL     1      -9.789  11.200  65.695  1.00  0.00    -0.235 C  
ENDROOT
BRANCH   2   3
HETATM    3  O   UNL     1      -9.410   9.822  65.798  1.00  0.00    -0.186 OA 
BRANCH   3   4
HETATM    4  C   UNL     1      -9.540   9.259  67.025  1.00  0.00    -0.171 C  
HETATM    5  O   UNL     1      -9.172   9.748  68.087  1.00  0.00    -0.129 OA 
BRANCH   4   6
HETATM    6  C   UNL     1     -10.385   8.023  66.928  1.00  0.00    -0.408 C  
BRANCH   6   7
HETATM    7  C   UNL     1      -9.628   6.797  67.418  1.00  0.00    -0.134 C  
BRANCH   7   8
HETATM    8  S   UNL     1     -10.481   5.914  68.792  1.00  0.00    -0.265 SA 
BRANCH   8   9
HETATM    9  P   UNL     1     -10.341   7.116  70.532  1.00  0.00    -0.207 P  
HETATM   10  S   UNL     1     -12.286   6.816  71.036  1.00  0.00    -0.279 S  
BRANCH   9  11
HETATM   11  O   UNL     1      -9.323   6.046  71.287  1.00  0.00    -0.155 OA 
HETATM   12  C   UNL     1      -8.113   6.449  71.913  1.00  0.00    -0.109 C  
ENDBRANCH   9  11
BRANCH   9  13
HETATM   13  O   UNL     1     -10.228   8.097  71.953  1.00  0.00    -0.193 OA 
HETATM   14  C   UNL     1     -11.417   8.201  72.712  1.00  0.00    -0.329 C  
ENDBRANCH   9  13
ENDBRANCH   8   9
ENDBRANCH   7   8
BRANCH   7  15
HETATM   15  C   UNL     1      -9.516   5.799  66.273  1.00  0.00    -0.148 C  
HETATM   16  O   UNL     1     -10.164   4.765  66.182  1.00  0.00    -0.235 OA 
BRANCH  15  17
HETATM   17  O   UNL     1      -8.517   6.174  65.424  1.00  0.00    -0.148 OA 
BRANCH  17  18
HETATM   18  C   UNL     1      -7.733   5.097  64.899  1.00  0.00    -0.085 C  
HETATM   19  C   UNL     1      -6.427   5.052  65.671  1.00  0.00    -0.036 C  
ENDBRANCH  17  18
ENDBRANCH  15  17
ENDBRANCH   7  15
ENDBRANCH   6   7
ENDBRANCH   4   6
ENDBRANCH   3   4
ENDBRANCH   2   3
TORSDOF 11
ENDMDL
MODEL      348
REMARK 921   NORMALIZED FREE ENERGY PREDICTED BY IDOCK:   -2.32 KCAL/MOL
REMARK 922        TOTAL FREE ENERGY PREDICTED BY IDOCK:   -4.51 KCAL/MOL
REMARK 923 INTER-LIGAND FREE ENERGY PREDICTED BY IDOCK:   -4.08 KCAL/MOL
REMARK 924 INTRA-LIGAND FREE ENERGY PREDICTED BY IDOCK:   -0.43 KCAL/MOL
REMARK 927      BINDING AFFINITY PREDICTED BY RF-SCORE:    0.00 PKD
ROOT
HETATM    1  C   UNL     1     -10.413   5.259  66.246  1.00  0.00    -0.311 C  
HETATM    2  C   UNL     1     -10.448   6.370  67.281  1.00  0.00    -0.263 C  
ENDROOT
BRANCH   2   3
HETATM    3  O   UNL     1      -9.335   7.233  67.024  1.00  0.00    -0.136 OA 
BRANCH   3   4
HETATM    4  C   UNL     1      -8.339   7.211  67.944  1.00  0.00    -0.118 C  
HETATM    5  O   UNL     1      -7.677   6.232  68.268  1.00  0.00    -0.100 OA 
BRANCH   4   6
HETATM    6  C   UNL     1      -8.019   8.612  68.378  1.00  0.00    -0.113 C  
BRANCH   6   7
HETATM    7  C   UNL     1      -8.564   8.896  69.770  1.00  0.00    -0.134 C  
BRANCH   7   8
HETATM    8  S   UNL     1      -9.736   7.608  70.371  1.00  0.00    -0.179 SA 
BRANCH   8   9
HETATM    9  P   UNL     1     -11.565   8.561  70.863  1.00  0.00    -0.186 P  
HETATM   10  S   UNL     1     -11.500   7.943  72.796  1.00  0.00    -0.281 S  
BRANCH   9  11
HETATM   11  O   UNL     1     -10.921  10.076  70.664  1.00  0.00    -0.300 OA 
HETATM   12  C   UNL     1     -11.529  11.067  69.846  1.00  0.00    -0.320 C  
ENDBRANCH   9  11
BRANCH   9  13
HETATM   13  O   UNL     1     -13.057   9.338  71.265  1.00  0.00    -0.321 OA 
HETATM   14  C   UNL     1     -13.983   8.538  71.974  1.00  0.00    -0.433 C  
ENDBRANCH   9  13
ENDBRANCH   8   9
ENDBRANCH   7   8
BRANCH   7  15
HETATM   15  C   UNL     1      -7.405   8.912  70.758  1.00  0.00    -0.090 C  
HETATM   16  O   UNL     1      -6.230   8.750  70.458  1.00  0.00    -0.034 OA 
BRANCH  15  17
HETATM   17  O   UNL     1      -7.879   9.029  72.031  1.00  0.00    -0.351 OA 
BRANCH  17  18
HETATM   18  C   UNL     1      -7.137   8.307  73.021  1.00  0.00    -0.104 C  
HETATM   19  C   UNL     1      -8.058   8.053  74.200  1.00  0.00    -0.309 C  
ENDBRANCH  17  18
ENDBRANCH  15  17
ENDBRANCH   7  15
ENDBRANCH   6   7
ENDBRANCH   4   6
ENDBRANCH   3   4
ENDBRANCH   2   3
TORSDOF 11
ENDMDL
MODEL      349
REMARK 921   NORMALIZED FREE ENERGY PREDICTED BY IDOCK:   -2.32 KCAL/MOL
REMARK 922        TOTAL FREE ENERGY PREDICTED BY IDOCK:   -4.51 KCAL/MOL
REMARK 923 INTER-LIGAND FREE ENERGY PREDICTED BY IDOCK:   -3.96 KCAL/MOL
REMARK 924 INTRA-LIGAND FREE ENERGY PREDICTED BY IDOCK:   -0.55 KCAL/MOL
REMARK 927      BINDING AFFINITY PREDICTED BY RF-SCORE:    0.00 PKD
ROOT
HETATM    1  C   UNL     1     -11.909  14.614  68.783  1.00  0.00    -0.348 C  
HETATM    2  C   UNL     1     -10.501  14.861  68.271  1.00  0.00    -0.239 C  
ENDROOT
BRANCH   2   3
HETATM    3  O   UNL     1      -9.815  13.603  68.274  1.00  0.00    -0.224 OA 
BRANCH   3   4
HETATM    4  C   UNL     1      -9.733  12.967  67.079  1.00  0.00    -0.235 C  
HETATM    5  O   UNL     1     -10.386  13.228  66.076  1.00  0.00    -0.277 OA 
BRANCH   4   6
HETATM    6  C   UNL     1      -8.575  12.012  67.093  1.00  0.00    -0.182 C  
BRANCH   6   7
HETATM    7  C   UNL     1      -9.049  10.574  67.255  1.00  0.00    -0.143 C  
BRANCH   7   8
HETATM    8  S   UNL     1     -10.747  10.441  67.956  1.00  0.00    -0.269 SA 
BRANCH   8   9
HETATM    9  P   UNL     1     -10.663   9.158  69.642  1.00  0.00    -0.162 P  
HETATM   10  S   UNL     1     -10.095   7.552  68.536  1.00  0.00    -0.188 S  
BRANCH   9  11
HETATM   11  O   UNL     1      -9.368   9.965  70.292  1.00  0.00    -0.225 OA 
HETATM   12  C   UNL     1      -8.175   9.305  70.693  1.00  0.00    -0.190 C  
ENDBRANCH   9  11
BRANCH   9  13
HETATM   13  O   UNL     1     -10.595   8.111  71.017  1.00  0.00    -0.206 OA 
HETATM   14  C   UNL     1     -10.938   6.762  70.767  1.00  0.00    -0.262 C  
ENDBRANCH   9  13
ENDBRANCH   8   9
ENDBRANCH   7   8
BRANCH   7  15
HETATM   15  C   UNL     1      -9.101   9.917  65.882  1.00  0.00    -0.162 C  
HETATM   16  O   UNL     1     -10.017  10.045  65.081  1.00  0.00    -0.323 OA 
BRANCH  15  17
HETATM   17  O   UNL     1      -8.031   9.087  65.722  1.00  0.00    -0.099 OA 
BRANCH  17  18
HETATM   18  C   UNL     1      -8.278   7.930  64.913  1.00  0.00    -0.124 C  
HETATM   19  C   UNL     1      -7.662   6.733  65.612  1.00  0.00    -0.102 C  
ENDBRANCH  17  18
ENDBRANCH  15  17
ENDBRANCH   7  15
ENDBRANCH   6   7
ENDBRANCH   4   6
ENDBRANCH   3   4
ENDBRANCH   2   3
TORSDOF 11
ENDMDL
MODEL      350
REMARK 921   NORMALIZED FREE ENERGY PREDICTED BY IDOCK:   -2.31 KCAL/MOL
REMARK 922        TOTAL FREE ENERGY PREDICTED BY IDOCK:   -4.49 KCAL/MOL
REMARK 923 INTER-LIGAND FREE ENERGY PREDICTED BY IDOCK:   -3.66 KCAL/MOL
REMARK 924 INTRA-LIGAND FREE ENERGY PREDICTED BY IDOCK:   -0.83 KCAL/MOL
REMARK 927      BINDING AFFINITY PREDICTED BY RF-SCORE:    0.00 PKD
ROOT
HETATM    1  C   UNL     1     -10.713   3.247  63.527  1.00  0.00    -0.252 C  
HETATM    2  C   UNL     1      -9.782   3.359  64.722  1.00  0.00    -0.152 C  
ENDROOT
BRANCH   2   3
HETATM    3  O   UNL     1      -9.334   4.717  64.794  1.00  0.00    -0.141 OA 
BRANCH   3   4
HETATM    4  C   UNL     1      -9.028   5.178  66.032  1.00  0.00    -0.140 C  
HETATM    5  O   UNL     1      -7.903   5.405  66.461  1.00  0.00    -0.099 OA 
BRANCH   4   6
HETATM    6  C   UNL     1     -10.286   5.568  66.752  1.00  0.00    -0.321 C  
BRANCH   6   7
HETATM    7  C   UNL     1      -9.984   6.464  67.945  1.00  0.00    -0.131 C  
BRANCH   7   8
HETATM    8  S   UNL     1     -10.449   8.225  67.669  1.00  0.00    -0.208 SA 
BRANCH   8   9
HETATM    9  P   UNL     1      -8.765   9.429  68.125  1.00  0.00    -0.123 P  
HETATM   10  S   UNL     1      -9.811  11.161  67.953  1.00  0.00    -0.178 S  
BRANCH   9  11
HETATM   11  O   UNL     1      -8.700   8.886  69.691  1.00  0.00    -0.132 OA 
HETATM   12  C   UNL     1      -9.682   9.223  70.661  1.00  0.00    -0.272 C  
ENDBRANCH   9  11
BRANCH   9  13
HETATM   13  O   UNL     1      -7.390  10.412  68.497  1.00  0.00    -0.081 OA 
HETATM   14  C   UNL     1      -7.632  11.805  68.522  1.00  0.00    -0.131 C  
ENDBRANCH   9  13
ENDBRANCH   8   9
ENDBRANCH   7   8
BRANCH   7  15
HETATM   15  C   UNL     1     -10.803   5.987  69.137  1.00  0.00    -0.352 C  
HETATM   16  O   UNL     1     -11.778   6.570  69.592  1.00  0.00    -0.357 OA 
BRANCH  15  17
HETATM   17  O   UNL     1     -10.229   4.877  69.683  1.00  0.00    -0.243 OA 
BRANCH  17  18
HETATM   18  C   UNL     1     -10.127   4.889  71.112  1.00  0.00    -0.207 C  
HETATM   19  C   UNL     1      -8.893   5.690  71.484  1.00  0.00    -0.141 C  
ENDBRANCH  17  18
ENDBRANCH  15  17
ENDBRANCH   7  15
ENDBRANCH   6   7
ENDBRANCH   4   6
ENDBRANCH   3   4
ENDBRANCH   2   3
TORSDOF 11
ENDMDL
MODEL      351
REMARK 921   NORMALIZED FREE ENERGY PREDICTED BY IDOCK:   -2.31 KCAL/MOL
REMARK 922        TOTAL FREE ENERGY PREDICTED BY IDOCK:   -4.49 KCAL/MOL
REMARK 923 INTER-LIGAND FREE ENERGY PREDICTED BY IDOCK:   -4.00 KCAL/MOL
REMARK 924 INTRA-LIGAND FREE ENERGY PREDICTED BY IDOCK:   -0.49 KCAL/MOL
REMARK 927      BINDING AFFINITY PREDICTED BY RF-SCORE:    0.00 PKD
ROOT
HETATM    1  C   UNL     1      -9.065   5.706  66.248  1.00  0.00    -0.153 C  
HETATM    2  C   UNL     1      -7.700   6.088  66.792  1.00  0.00    -0.100 C  
ENDROOT
BRANCH   2   3
HETATM    3  O   UNL     1      -7.901   7.085  67.801  1.00  0.00    -0.110 OA 
BRANCH   3   4
HETATM    4  C   UNL     1      -7.728   6.677  69.083  1.00  0.00    -0.106 C  
HETATM    5  O   UNL     1      -7.836   5.529  69.497  1.00  0.00    -0.084 OA 
BRANCH   4   6
HETATM    6  C   UNL     1      -7.185   7.810  69.905  1.00  0.00    -0.067 C  
BRANCH   6   7
HETATM    7  C   UNL     1      -8.301   8.553  70.625  1.00  0.00    -0.133 C  
BRANCH   7   8
HETATM    8  S   UNL     1      -9.983   8.107  70.020  1.00  0.00    -0.195 SA 
BRANCH   8   9
HETATM    9  P   UNL     1     -11.400   9.217  71.139  1.00  0.00    -0.403 P  
HETATM   10  S   UNL     1     -11.829  10.454  69.586  1.00  0.00    -0.130 S  
BRANCH   9  11
HETATM   11  O   UNL     1     -12.449   7.936  71.232  1.00  0.00    -0.308 OA 
HETATM   12  C   UNL     1     -12.094   6.622  70.824  1.00  0.00    -0.304 C  
ENDBRANCH   9  11
BRANCH   9  13
HETATM   13  O   UNL     1     -12.556  10.125  72.052  1.00  0.00    -0.376 OA 
HETATM   14  C   UNL     1     -13.776   9.459  72.314  1.00  0.00    -0.426 C  
ENDBRANCH   9  13
ENDBRANCH   8   9
ENDBRANCH   7   8
BRANCH   7  15
HETATM   15  C   UNL     1      -8.266   8.180  72.102  1.00  0.00    -0.149 C  
HETATM   16  O   UNL     1      -7.704   8.830  72.973  1.00  0.00    -0.376 OA 
BRANCH  15  17
HETATM   17  O   UNL     1      -8.859   6.966  72.290  1.00  0.00    -0.134 OA 
BRANCH  17  18
HETATM   18  C   UNL     1      -8.885   6.511  73.648  1.00  0.00    -0.125 C  
HETATM   19  C   UNL     1     -10.337   6.330  74.051  1.00  0.00    -0.322 C  
ENDBRANCH  17  18
ENDBRANCH  15  17
ENDBRANCH   7  15
ENDBRANCH   6   7
ENDBRANCH   4   6
ENDBRANCH   3   4
ENDBRANCH   2   3
TORSDOF 11
ENDMDL
MODEL      352
REMARK 921   NORMALIZED FREE ENERGY PREDICTED BY IDOCK:   -2.29 KCAL/MOL
REMARK 922        TOTAL FREE ENERGY PREDICTED BY IDOCK:   -4.46 KCAL/MOL
REMARK 923 INTER-LIGAND FREE ENERGY PREDICTED BY IDOCK:   -4.14 KCAL/MOL
REMARK 924 INTRA-LIGAND FREE ENERGY PREDICTED BY IDOCK:   -0.32 KCAL/MOL
REMARK 927      BINDING AFFINITY PREDICTED BY RF-SCORE:    0.00 PKD
ROOT
HETATM    1  C   UNL     1      -9.941   4.549  70.588  1.00  0.00    -0.273 C  
HETATM    2  C   UNL     1     -10.705   5.860  70.515  1.00  0.00    -0.294 C  
ENDROOT
BRANCH   2   3
HETATM    3  O   UNL     1     -10.194   6.594  69.396  1.00  0.00    -0.171 OA 
BRANCH   3   4
HETATM    4  C   UNL     1      -9.074   7.323  69.623  1.00  0.00    -0.140 C  
HETATM    5  O   UNL     1      -7.932   7.008  69.312  1.00  0.00    -0.115 OA 
BRANCH   4   6
HETATM    6  C   UNL     1      -9.450   8.681  70.141  1.00  0.00    -0.172 C  
BRANCH   6   7
HETATM    7  C   UNL     1      -9.818   9.623  69.003  1.00  0.00    -0.182 C  
BRANCH   7   8
HETATM    8  S   UNL     1     -10.394   8.746  67.489  1.00  0.00    -0.272 SA 
BRANCH   8   9
HETATM    9  P   UNL     1      -8.937   9.023  65.974  1.00  0.00    -0.213 P  
HETATM   10  S   UNL     1      -7.926  10.424  67.042  1.00  0.00    -0.118 S  
BRANCH   9  11
HETATM   11  O   UNL     1      -8.313   7.501  66.184  1.00  0.00    -0.123 OA 
HETATM   12  C   UNL     1      -9.121   6.332  66.166  1.00  0.00    -0.138 C  
ENDBRANCH   9  11
BRANCH   9  13
HETATM   13  O   UNL     1      -7.748   9.251  64.738  1.00  0.00    -0.105 OA 
HETATM   14  C   UNL     1      -8.192   8.998  63.420  1.00  0.00    -0.182 C  
ENDBRANCH   9  13
ENDBRANCH   8   9
ENDBRANCH   7   8
BRANCH   7  15
HETATM   15  C   UNL     1     -10.975  10.506  69.452  1.00  0.00    -0.250 C  
HETATM   16  O   UNL     1     -11.040  11.715  69.273  1.00  0.00    -0.240 OA 
BRANCH  15  17
HETATM   17  O   UNL     1     -11.872   9.771  70.169  1.00  0.00    -0.196 OA 
BRANCH  17  18
HETATM   18  C   UNL     1     -12.671  10.523  71.090  1.00  0.00    -0.418 C  
HETATM   19  C   UNL     1     -13.362   9.540  72.017  1.00  0.00    -0.535 C  
ENDBRANCH  17  18
ENDBRANCH  15  17
ENDBRANCH   7  15
ENDBRANCH   6   7
ENDBRANCH   4   6
ENDBRANCH   3   4
ENDBRANCH   2   3
TORSDOF 11
ENDMDL
MODEL      353
REMARK 921   NORMALIZED FREE ENERGY PREDICTED BY IDOCK:   -2.27 KCAL/MOL
REMARK 922        TOTAL FREE ENERGY PREDICTED BY IDOCK:   -4.43 KCAL/MOL
REMARK 923 INTER-LIGAND FREE ENERGY PREDICTED BY IDOCK:   -4.27 KCAL/MOL
REMARK 924 INTRA-LIGAND FREE ENERGY PREDICTED BY IDOCK:   -0.17 KCAL/MOL
REMARK 927      BINDING AFFINITY PREDICTED BY RF-SCORE:    0.00 PKD
ROOT
HETATM    1  C   UNL     1     -12.028   5.813  72.513  1.00  0.00    -0.157 C  
HETATM    2  C   UNL     1     -10.966   6.308  71.546  1.00  0.00    -0.271 C  
ENDROOT
BRANCH   2   3
HETATM    3  O   UNL     1     -11.602   7.210  70.633  1.00  0.00    -0.301 OA 
BRANCH   3   4
HETATM    4  C   UNL     1     -11.678   8.504  71.031  1.00  0.00    -0.275 C  
HETATM    5  O   UNL     1     -12.698   9.102  71.350  1.00  0.00    -0.316 OA 
BRANCH   4   6
HETATM    6  C   UNL     1     -10.296   9.058  71.219  1.00  0.00    -0.383 C  
BRANCH   6   7
HETATM    7  C   UNL     1      -9.435   8.821  69.986  1.00  0.00    -0.169 C  
BRANCH   7   8
HETATM    8  S   UNL     1      -9.918   9.864  68.547  1.00  0.00    -0.166 SA 
BRANCH   8   9
HETATM    9  P   UNL     1      -9.327   8.858  66.777  1.00  0.00    -0.208 P  
HETATM   10  S   UNL     1     -10.311   7.154  67.279  1.00  0.00    -0.305 S  
BRANCH   9  11
HETATM   11  O   UNL     1     -10.239   9.851  65.812  1.00  0.00    -0.265 OA 
HETATM   12  C   UNL     1      -9.762  10.371  64.578  1.00  0.00    -0.330 C  
ENDBRANCH   9  11
BRANCH   9  13
HETATM   13  O   UNL     1      -8.844   8.036  65.334  1.00  0.00    -0.126 OA 
HETATM   14  C   UNL     1      -8.225   6.780  65.532  1.00  0.00    -0.131 C  
ENDBRANCH   9  13
ENDBRANCH   8   9
ENDBRANCH   7   8
BRANCH   7  15
HETATM   15  C   UNL     1      -7.994   9.189  70.316  1.00  0.00    -0.133 C  
HETATM   16  O   UNL     1      -7.103   9.333  69.489  1.00  0.00    -0.056 OA 
BRANCH  15  17
HETATM   17  O   UNL     1      -7.822   9.233  71.668  1.00  0.00    -0.329 OA 
BRANCH  17  18
HETATM   18  C   UNL     1      -7.620   7.959  72.293  1.00  0.00    -0.098 C  
HETATM   19  C   UNL     1      -7.800   8.141  73.789  1.00  0.00    -0.245 C  
ENDBRANCH  17  18
ENDBRANCH  15  17
ENDBRANCH   7  15
ENDBRANCH   6   7
ENDBRANCH   4   6
ENDBRANCH   3   4
ENDBRANCH   2   3
TORSDOF 11
ENDMDL
MODEL      354
REMARK 921   NORMALIZED FREE ENERGY PREDICTED BY IDOCK:   -2.27 KCAL/MOL
REMARK 922        TOTAL FREE ENERGY PREDICTED BY IDOCK:   -4.43 KCAL/MOL
REMARK 923 INTER-LIGAND FREE ENERGY PREDICTED BY IDOCK:   -4.48 KCAL/MOL
REMARK 924 INTRA-LIGAND FREE ENERGY PREDICTED BY IDOCK:    0.05 KCAL/MOL
REMARK 927      BINDING AFFINITY PREDICTED BY RF-SCORE:    0.00 PKD
ROOT
HETATM    1  C   UNL     1      -9.605  19.017  68.046  1.00  0.00    -0.383 C  
HETATM    2  C   UNL     1     -10.725  18.223  67.397  1.00  0.00    -0.350 C  
ENDROOT
BRANCH   2   3
HETATM    3  O   UNL     1     -10.316  16.851  67.360  1.00  0.00    -0.296 OA 
BRANCH   3   4
HETATM    4  C   UNL     1     -10.290  16.271  66.134  1.00  0.00    -0.341 C  
HETATM    5  O   UNL     1     -10.252  16.857  65.058  1.00  0.00    -0.468 OA 
BRANCH   4   6
HETATM    6  C   UNL     1     -10.113  14.788  66.280  1.00  0.00    -0.299 C  
BRANCH   6   7
HETATM    7  C   UNL     1     -10.813  14.269  67.528  1.00  0.00    -0.280 C  
BRANCH   7   8
HETATM    8  S   UNL     1     -11.391  12.527  67.369  1.00  0.00    -0.334 SA 
BRANCH   8   9
HETATM    9  P   UNL     1      -9.685  11.268  67.359  1.00  0.00    -0.176 P  
HETATM   10  S   UNL     1     -10.312  10.211  68.976  1.00  0.00    -0.227 S  
BRANCH   9  11
HETATM   11  O   UNL     1     -10.124  10.551  65.929  1.00  0.00    -0.242 OA 
HETATM   12  C   UNL     1     -10.674  11.282  64.842  1.00  0.00    -0.271 C  
ENDBRANCH   9  11
BRANCH   9  13
HETATM   13  O   UNL     1      -8.293  10.241  67.351  1.00  0.00    -0.117 OA 
HETATM   14  C   UNL     1      -7.871   9.786  68.622  1.00  0.00    -0.081 C  
ENDBRANCH   9  13
ENDBRANCH   8   9
ENDBRANCH   7   8
BRANCH   7  15
HETATM   15  C   UNL     1      -9.826  14.288  68.688  1.00  0.00    -0.228 C  
HETATM   16  O   UNL     1     -10.085  14.679  69.818  1.00  0.00    -0.008 OA 
BRANCH  15  17
HETATM   17  O   UNL     1      -8.591  13.905  68.255  1.00  0.00    -0.167 OA 
BRANCH  17  18
HETATM   18  C   UNL     1      -7.494  14.446  69.002  1.00  0.00    -0.119 C  
HETATM   19  C   UNL     1      -6.409  13.387  69.067  1.00  0.00    -0.097 C  
ENDBRANCH  17  18
ENDBRANCH  15  17
ENDBRANCH   7  15
ENDBRANCH   6   7
ENDBRANCH   4   6
ENDBRANCH   3   4
ENDBRANCH   2   3
TORSDOF 11
ENDMDL
MODEL      355
REMARK 921   NORMALIZED FREE ENERGY PREDICTED BY IDOCK:   -2.27 KCAL/MOL
REMARK 922        TOTAL FREE ENERGY PREDICTED BY IDOCK:   -4.42 KCAL/MOL
REMARK 923 INTER-LIGAND FREE ENERGY PREDICTED BY IDOCK:   -3.69 KCAL/MOL
REMARK 924 INTRA-LIGAND FREE ENERGY PREDICTED BY IDOCK:   -0.73 KCAL/MOL
REMARK 927      BINDING AFFINITY PREDICTED BY RF-SCORE:    0.00 PKD
ROOT
HETATM    1  C   UNL     1     -11.476   5.499  72.704  1.00  0.00    -0.331 C  
HETATM    2  C   UNL     1     -11.097   6.385  71.530  1.00  0.00    -0.273 C  
ENDROOT
BRANCH   2   3
HETATM    3  O   UNL     1     -11.067   7.737  72.003  1.00  0.00    -0.245 OA 
BRANCH   3   4
HETATM    4  C   UNL     1     -11.677   8.657  71.215  1.00  0.00    -0.289 C  
HETATM    5  O   UNL     1     -12.876   8.905  71.189  1.00  0.00    -0.261 OA 
BRANCH   4   6
HETATM    6  C   UNL     1     -10.641   9.482  70.507  1.00  0.00    -0.358 C  
BRANCH   6   7
HETATM    7  C   UNL     1     -10.422   8.988  69.083  1.00  0.00    -0.225 C  
BRANCH   7   8
HETATM    8  S   UNL     1     -10.820  10.253  67.804  1.00  0.00    -0.292 SA 
BRANCH   8   9
HETATM    9  P   UNL     1      -9.559  11.927  68.121  1.00  0.00    -0.192 P  
HETATM   10  S   UNL     1      -9.023  12.039  66.165  1.00  0.00    -0.005 S  
BRANCH   9  11
HETATM   11  O   UNL     1     -10.836  12.922  68.482  1.00  0.00    -0.242 OA 
HETATM   12  C   UNL     1     -11.073  14.144  67.797  1.00  0.00    -0.276 C  
ENDBRANCH   9  11
BRANCH   9  13
HETATM   13  O   UNL     1      -8.529  13.293  68.379  1.00  0.00    -0.165 OA 
HETATM   14  C   UNL     1      -7.220  12.989  68.817  1.00  0.00    -0.082 C  
ENDBRANCH   9  13
ENDBRANCH   8   9
ENDBRANCH   7   8
BRANCH   7  15
HETATM   15  C   UNL     1      -8.948   8.648  68.903  1.00  0.00    -0.142 C  
HETATM   16  O   UNL     1      -8.476   8.088  67.923  1.00  0.00    -0.124 OA 
BRANCH  15  17
HETATM   17  O   UNL     1      -8.255   8.964  70.034  1.00  0.00    -0.106 OA 
BRANCH  17  18
HETATM   18  C   UNL     1      -7.169   8.082  70.345  1.00  0.00    -0.049 C  
HETATM   19  C   UNL     1      -5.890   8.899  70.337  1.00  0.00    -0.030 C  
ENDBRANCH  17  18
ENDBRANCH  15  17
ENDBRANCH   7  15
ENDBRANCH   6   7
ENDBRANCH   4   6
ENDBRANCH   3   4
ENDBRANCH   2   3
TORSDOF 11
ENDMDL
MODEL      356
REMARK 921   NORMALIZED FREE ENERGY PREDICTED BY IDOCK:   -2.25 KCAL/MOL
REMARK 922        TOTAL FREE ENERGY PREDICTED BY IDOCK:   -4.39 KCAL/MOL
REMARK 923 INTER-LIGAND FREE ENERGY PREDICTED BY IDOCK:   -3.59 KCAL/MOL
REMARK 924 INTRA-LIGAND FREE ENERGY PREDICTED BY IDOCK:   -0.80 KCAL/MOL
REMARK 927      BINDING AFFINITY PREDICTED BY RF-SCORE:    0.00 PKD
ROOT
HETATM    1  C   UNL     1     -10.364  10.907  64.795  1.00  0.00    -0.391 C  
HETATM    2  C   UNL     1     -11.132  11.868  65.685  1.00  0.00    -0.310 C  
ENDROOT
BRANCH   2   3
HETATM    3  O   UNL     1     -11.303  11.232  66.958  1.00  0.00    -0.383 OA 
BRANCH   3   4
HETATM    4  C   UNL     1     -10.627  11.785  67.995  1.00  0.00    -0.206 C  
HETATM    5  O   UNL     1     -10.855  12.874  68.507  1.00  0.00    -0.242 OA 
BRANCH   4   6
HETATM    6  C   UNL     1      -9.671  10.780  68.569  1.00  0.00    -0.184 C  
BRANCH   6   7
HETATM    7  C   UNL     1     -10.093   9.359  68.225  1.00  0.00    -0.183 C  
BRANCH   7   8
HETATM    8  S   UNL     1      -8.916   8.502  67.096  1.00  0.00    -0.132 SA 
BRANCH   8   9
HETATM    9  P   UNL     1      -7.097   8.207  68.143  1.00  0.00    -0.085 P  
HETATM   10  S   UNL     1      -6.587   6.584  67.033  1.00  0.00    -0.053 S  
BRANCH   9  11
HETATM   11  O   UNL     1      -6.436   9.608  67.551  1.00  0.00    -0.067 OA 
HETATM   12  C   UNL     1      -6.731  10.106  66.253  1.00  0.00    -0.102 C  
ENDBRANCH   9  11
BRANCH   9  13
HETATM   13  O   UNL     1      -5.613   7.965  68.998  1.00  0.00    -0.028 OA 
HETATM   14  C   UNL     1      -5.561   6.802  69.801  1.00  0.00    -0.015 C  
ENDBRANCH   9  13
ENDBRANCH   8   9
ENDBRANCH   7   8
BRANCH   7  15
HETATM   15  C   UNL     1     -10.132   8.535  69.506  1.00  0.00    -0.200 C  
HETATM   16  O   UNL     1     -10.494   7.368  69.574  1.00  0.00    -0.221 OA 
BRANCH  15  17
HETATM   17  O   UNL     1      -9.806   9.318  70.573  1.00  0.00    -0.215 OA 
BRANCH  17  18
HETATM   18  C   UNL     1      -8.931   8.704  71.528  1.00  0.00    -0.234 C  
HETATM   19  C   UNL     1      -9.768   8.283  72.722  1.00  0.00    -0.336 C  
ENDBRANCH  17  18
ENDBRANCH  15  17
ENDBRANCH   7  15
ENDBRANCH   6   7
ENDBRANCH   4   6
ENDBRANCH   3   4
ENDBRANCH   2   3
TORSDOF 11
ENDMDL
MODEL      357
REMARK 921   NORMALIZED FREE ENERGY PREDICTED BY IDOCK:   -2.22 KCAL/MOL
REMARK 922        TOTAL FREE ENERGY PREDICTED BY IDOCK:   -4.35 KCAL/MOL
REMARK 923 INTER-LIGAND FREE ENERGY PREDICTED BY IDOCK:   -4.66 KCAL/MOL
REMARK 924 INTRA-LIGAND FREE ENERGY PREDICTED BY IDOCK:    0.31 KCAL/MOL
REMARK 927      BINDING AFFINITY PREDICTED BY RF-SCORE:    0.00 PKD
ROOT
HETATM    1  C   UNL     1     -12.929  14.254  71.242  1.00  0.00    -0.422 C  
HETATM    2  C   UNL     1     -12.250  13.295  70.279  1.00  0.00    -0.321 C  
ENDROOT
BRANCH   2   3
HETATM    3  O   UNL     1     -12.377  11.976  70.823  1.00  0.00    -0.375 OA 
BRANCH   3   4
HETATM    4  C   UNL     1     -11.939  10.963  70.035  1.00  0.00    -0.350 C  
HETATM    5  O   UNL     1     -12.128  10.851  68.830  1.00  0.00    -0.496 OA 
BRANCH   4   6
HETATM    6  C   UNL     1     -11.009  10.081  70.816  1.00  0.00    -0.375 C  
BRANCH   6   7
HETATM    7  C   UNL     1     -11.249   8.611  70.501  1.00  0.00    -0.241 C  
BRANCH   7   8
HETATM    8  S   UNL     1      -9.722   7.716  69.989  1.00  0.00    -0.172 SA 
BRANCH   8   9
HETATM    9  P   UNL     1      -8.056   8.731  70.820  1.00  0.00    -0.168 P  
HETATM   10  S   UNL     1      -8.092  10.189  69.406  1.00  0.00    -0.168 S  
BRANCH   9  11
HETATM   11  O   UNL     1      -8.896   9.158  72.185  1.00  0.00    -0.314 OA 
HETATM   12  C   UNL     1      -8.571   8.656  73.474  1.00  0.00     0.231 C  
ENDBRANCH   9  11
BRANCH   9  13
HETATM   13  O   UNL     1      -6.697   9.560  71.497  1.00  0.00    -0.304 OA 
HETATM   14  C   UNL     1      -5.446   9.240  70.921  1.00  0.00    -0.039 C  
ENDBRANCH   9  13
ENDBRANCH   8   9
ENDBRANCH   7   8
BRANCH   7  15
HETATM   15  C   UNL     1     -11.750   7.915  71.760  1.00  0.00    -0.287 C  
HETATM   16  O   UNL     1     -12.515   8.412  72.575  1.00  0.00    -0.364 OA 
BRANCH  15  17
HETATM   17  O   UNL     1     -11.142   6.702  71.895  1.00  0.00    -0.236 OA 
BRANCH  17  18
HETATM   18  C   UNL     1     -11.344   6.062  73.161  1.00  0.00    -0.059 C  
HETATM   19  C   UNL     1     -10.159   5.148  73.416  1.00  0.00    -0.203 C  
ENDBRANCH  17  18
ENDBRANCH  15  17
ENDBRANCH   7  15
ENDBRANCH   6   7
ENDBRANCH   4   6
ENDBRANCH   3   4
ENDBRANCH   2   3
TORSDOF 11
ENDMDL
MODEL      358
REMARK 921   NORMALIZED FREE ENERGY PREDICTED BY IDOCK:   -2.22 KCAL/MOL
REMARK 922        TOTAL FREE ENERGY PREDICTED BY IDOCK:   -4.34 KCAL/MOL
REMARK 923 INTER-LIGAND FREE ENERGY PREDICTED BY IDOCK:   -3.75 KCAL/MOL
REMARK 924 INTRA-LIGAND FREE ENERGY PREDICTED BY IDOCK:   -0.59 KCAL/MOL
REMARK 927      BINDING AFFINITY PREDICTED BY RF-SCORE:    0.00 PKD
ROOT
HETATM    1  C   UNL     1     -10.385   5.379  66.392  1.00  0.00    -0.298 C  
HETATM    2  C   UNL     1      -8.987   5.920  66.634  1.00  0.00    -0.125 C  
ENDROOT
BRANCH   2   3
HETATM    3  O   UNL     1      -8.700   6.855  65.588  1.00  0.00    -0.145 OA 
BRANCH   3   4
HETATM    4  C   UNL     1      -8.043   7.982  65.960  1.00  0.00    -0.110 C  
HETATM    5  O   UNL     1      -7.003   8.407  65.471  1.00  0.00    -0.068 OA 
BRANCH   4   6
HETATM    6  C   UNL     1      -8.881   8.757  66.935  1.00  0.00    -0.142 C  
BRANCH   6   7
HETATM    7  C   UNL     1      -9.074  10.195  66.476  1.00  0.00    -0.144 C  
BRANCH   7   8
HETATM    8  S   UNL     1     -10.681  10.921  67.009  1.00  0.00    -0.263 SA 
BRANCH   8   9
HETATM    9  P   UNL     1     -10.595  13.015  66.687  1.00  0.00    -0.272 P  
HETATM   10  S   UNL     1     -12.215  13.009  65.462  1.00  0.00    -0.469 S  
BRANCH   9  11
HETATM   11  O   UNL     1     -10.996  13.354  68.259  1.00  0.00    -0.241 OA 
HETATM   12  C   UNL     1     -11.705  14.528  68.634  1.00  0.00    -0.329 C  
ENDBRANCH   9  11
BRANCH   9  13
HETATM   13  O   UNL     1     -10.525  14.723  66.422  1.00  0.00    -0.281 OA 
HETATM   14  C   UNL     1     -10.541  15.126  65.067  1.00  0.00    -0.413 C  
ENDBRANCH   9  13
ENDBRANCH   8   9
ENDBRANCH   7   8
BRANCH   7  15
HETATM   15  C   UNL     1      -7.986  11.060  67.101  1.00  0.00    -0.135 C  
HETATM   16  O   UNL     1      -7.191  11.744  66.471  1.00  0.00    -0.038 OA 
BRANCH  15  17
HETATM   17  O   UNL     1      -7.964  10.877  68.452  1.00  0.00    -0.113 OA 
BRANCH  17  18
HETATM   18  C   UNL     1      -6.661  10.689  69.016  1.00  0.00    -0.062 C  
HETATM   19  C   UNL     1      -6.331  11.916  69.846  1.00  0.00    -0.104 C  
ENDBRANCH  17  18
ENDBRANCH  15  17
ENDBRANCH   7  15
ENDBRANCH   6   7
ENDBRANCH   4   6
ENDBRANCH   3   4
ENDBRANCH   2   3
TORSDOF 11
ENDMDL
MODEL      359
REMARK 921   NORMALIZED FREE ENERGY PREDICTED BY IDOCK:   -2.22 KCAL/MOL
REMARK 922        TOTAL FREE ENERGY PREDICTED BY IDOCK:   -4.34 KCAL/MOL
REMARK 923 INTER-LIGAND FREE ENERGY PREDICTED BY IDOCK:   -3.53 KCAL/MOL
REMARK 924 INTRA-LIGAND FREE ENERGY PREDICTED BY IDOCK:   -0.81 KCAL/MOL
REMARK 927      BINDING AFFINITY PREDICTED BY RF-SCORE:    0.00 PKD
ROOT
HETATM    1  C   UNL     1     -10.253  11.081  68.680  1.00  0.00    -0.211 C  
HETATM    2  C   UNL     1      -8.783  10.758  68.879  1.00  0.00    -0.152 C  
ENDROOT
BRANCH   2   3
HETATM    3  O   UNL     1      -8.643  10.167  70.176  1.00  0.00    -0.104 OA 
BRANCH   3   4
HETATM    4  C   UNL     1      -7.730   9.170  70.281  1.00  0.00    -0.113 C  
HETATM    5  O   UNL     1      -6.967   8.985  71.221  1.00  0.00    -0.092 OA 
BRANCH   4   6
HETATM    6  C   UNL     1      -7.918   8.191  69.158  1.00  0.00    -0.113 C  
BRANCH   6   7
HETATM    7  C   UNL     1      -8.713   6.975  69.614  1.00  0.00    -0.141 C  
BRANCH   7   8
HETATM    8  S   UNL     1     -10.527   7.283  69.709  1.00  0.00    -0.231 SA 
BRANCH   8   9
HETATM    9  P   UNL     1     -11.276   6.276  71.417  1.00  0.00    -0.273 P  
HETATM   10  S   UNL     1      -9.515   6.424  72.419  1.00  0.00    -0.141 S  
BRANCH   9  11
HETATM   11  O   UNL     1     -12.317   7.513  71.788  1.00  0.00    -0.304 OA 
HETATM   12  C   UNL     1     -13.675   7.523  71.371  1.00  0.00    -0.324 C  
ENDBRANCH   9  11
BRANCH   9  13
HETATM   13  O   UNL     1     -11.886   5.454  72.811  1.00  0.00    -0.268 OA 
HETATM   14  C   UNL     1     -10.905   4.882  73.654  1.00  0.00    -0.309 C  
ENDBRANCH   9  13
ENDBRANCH   8   9
ENDBRANCH   7   8
BRANCH   7  15
HETATM   15  C   UNL     1      -8.522   5.856  68.599  1.00  0.00    -0.111 C  
HETATM   16  O   UNL     1      -7.490   5.213  68.455  1.00  0.00    -0.073 OA 
BRANCH  15  17
HETATM   17  O   UNL     1      -9.629   5.747  67.811  1.00  0.00    -0.111 OA 
BRANCH  17  18
HETATM   18  C   UNL     1      -9.362   5.563  66.416  1.00  0.00    -0.152 C  
HETATM   19  C   UNL     1     -10.427   4.637  65.856  1.00  0.00    -0.305 C  
ENDBRANCH  17  18
ENDBRANCH  15  17
ENDBRANCH   7  15
ENDBRANCH   6   7
ENDBRANCH   4   6
ENDBRANCH   3   4
ENDBRANCH   2   3
TORSDOF 11
ENDMDL
MODEL      360
REMARK 921   NORMALIZED FREE ENERGY PREDICTED BY IDOCK:   -2.21 KCAL/MOL
REMARK 922        TOTAL FREE ENERGY PREDICTED BY IDOCK:   -4.33 KCAL/MOL
REMARK 923 INTER-LIGAND FREE ENERGY PREDICTED BY IDOCK:   -3.99 KCAL/MOL
REMARK 924 INTRA-LIGAND FREE ENERGY PREDICTED BY IDOCK:   -0.34 KCAL/MOL
REMARK 927      BINDING AFFINITY PREDICTED BY RF-SCORE:    0.00 PKD
ROOT
HETATM    1  C   UNL     1      -9.352   5.660  66.222  1.00  0.00    -0.169 C  
HETATM    2  C   UNL     1      -8.208   6.660  66.216  1.00  0.00    -0.120 C  
ENDROOT
BRANCH   2   3
HETATM    3  O   UNL     1      -8.587   7.754  67.059  1.00  0.00    -0.124 OA 
BRANCH   3   4
HETATM    4  C   UNL     1      -8.383   7.580  68.388  1.00  0.00    -0.125 C  
HETATM    5  O   UNL     1      -8.497   6.528  69.005  1.00  0.00    -0.124 OA 
BRANCH   4   6
HETATM    6  C   UNL     1      -7.798   8.830  68.978  1.00  0.00    -0.096 C  
BRANCH   6   7
HETATM    7  C   UNL     1      -8.832   9.590  69.796  1.00  0.00    -0.199 C  
BRANCH   7   8
HETATM    8  S   UNL     1     -10.534   9.482  69.101  1.00  0.00    -0.214 SA 
BRANCH   8   9
HETATM    9  P   UNL     1     -11.201  11.451  68.688  1.00  0.00    -0.304 P  
HETATM   10  S   UNL     1     -11.137  11.176  66.677  1.00  0.00    -0.105 S  
BRANCH   9  11
HETATM   11  O   UNL     1     -12.708  11.158  69.315  1.00  0.00    -0.252 OA 
HETATM   12  C   UNL     1     -12.908  10.648  70.626  1.00  0.00    -0.320 C  
ENDBRANCH   9  11
BRANCH   9  13
HETATM   13  O   UNL     1     -11.745  13.059  68.350  1.00  0.00    -0.311 OA 
HETATM   14  C   UNL     1     -11.309  14.048  69.261  1.00  0.00    -0.273 C  
ENDBRANCH   9  13
ENDBRANCH   8   9
ENDBRANCH   7   8
BRANCH   7  15
HETATM   15  C   UNL     1      -8.900   8.979  71.190  1.00  0.00    -0.215 C  
HETATM   16  O   UNL     1      -7.951   8.880  71.956  1.00  0.00    -0.350 OA 
BRANCH  15  17
HETATM   17  O   UNL     1     -10.145   8.469  71.415  1.00  0.00    -0.198 OA 
BRANCH  17  18
HETATM   18  C   UNL     1     -10.165   7.164  72.007  1.00  0.00    -0.190 C  
HETATM   19  C   UNL     1     -11.098   7.211  73.203  1.00  0.00    -0.302 C  
ENDBRANCH  17  18
ENDBRANCH  15  17
ENDBRANCH   7  15
ENDBRANCH   6   7
ENDBRANCH   4   6
ENDBRANCH   3   4
ENDBRANCH   2   3
TORSDOF 11
ENDMDL
MODEL      361
REMARK 921   NORMALIZED FREE ENERGY PREDICTED BY IDOCK:   -2.21 KCAL/MOL
REMARK 922        TOTAL FREE ENERGY PREDICTED BY IDOCK:   -4.33 KCAL/MOL
REMARK 923 INTER-LIGAND FREE ENERGY PREDICTED BY IDOCK:   -3.60 KCAL/MOL
REMARK 924 INTRA-LIGAND FREE ENERGY PREDICTED BY IDOCK:   -0.73 KCAL/MOL
REMARK 927      BINDING AFFINITY PREDICTED BY RF-SCORE:    0.00 PKD
ROOT
HETATM    1  C   UNL     1     -11.315   3.896  73.495  1.00  0.00    -0.261 C  
HETATM    2  C   UNL     1     -10.274   4.349  72.486  1.00  0.00    -0.181 C  
ENDROOT
BRANCH   2   3
HETATM    3  O   UNL     1     -10.414   5.766  72.330  1.00  0.00    -0.196 OA 
BRANCH   3   4
HETATM    4  C   UNL     1     -11.330   6.177  71.418  1.00  0.00    -0.275 C  
HETATM    5  O   UNL     1     -12.430   6.656  71.664  1.00  0.00    -0.352 OA 
BRANCH   4   6
HETATM    6  C   UNL     1     -10.724   6.147  70.044  1.00  0.00    -0.370 C  
BRANCH   6   7
HETATM    7  C   UNL     1      -9.276   6.614  70.070  1.00  0.00    -0.158 C  
BRANCH   7   8
HETATM    8  S   UNL     1      -8.132   5.494  69.158  1.00  0.00    -0.096 SA 
BRANCH   8   9
HETATM    9  P   UNL     1      -8.424   5.805  67.082  1.00  0.00    -0.105 P  
HETATM   10  S   UNL     1      -6.500   5.344  66.625  1.00  0.00    -0.045 S  
BRANCH   9  11
HETATM   11  O   UNL     1      -9.434   4.496  66.946  1.00  0.00    -0.149 OA 
HETATM   12  C   UNL     1      -9.142   3.385  66.110  1.00  0.00    -0.152 C  
ENDBRANCH   9  11
BRANCH   9  13
HETATM   13  O   UNL     1      -8.662   6.059  65.387  1.00  0.00    -0.148 OA 
HETATM   14  C   UNL     1      -7.955   7.153  64.835  1.00  0.00    -0.127 C  
ENDBRANCH   9  13
ENDBRANCH   8   9
ENDBRANCH   7   8
BRANCH   7  15
HETATM   15  C   UNL     1      -9.185   7.970  69.381  1.00  0.00    -0.152 C  
HETATM   16  O   UNL     1      -8.198   8.693  69.391  1.00  0.00    -0.109 OA 
BRANCH  15  17
HETATM   17  O   UNL     1     -10.394   8.301  68.844  1.00  0.00    -0.214 OA 
BRANCH  17  18
HETATM   18  C   UNL     1     -10.438   9.580  68.199  1.00  0.00    -0.223 C  
HETATM   19  C   UNL     1     -10.323   9.351  66.703  1.00  0.00    -0.284 C  
ENDBRANCH  17  18
ENDBRANCH  15  17
ENDBRANCH   7  15
ENDBRANCH   6   7
ENDBRANCH   4   6
ENDBRANCH   3   4
ENDBRANCH   2   3
TORSDOF 11
ENDMDL
MODEL      362
REMARK 921   NORMALIZED FREE ENERGY PREDICTED BY IDOCK:   -2.21 KCAL/MOL
REMARK 922        TOTAL FREE ENERGY PREDICTED BY IDOCK:   -4.33 KCAL/MOL
REMARK 923 INTER-LIGAND FREE ENERGY PREDICTED BY IDOCK:   -4.17 KCAL/MOL
REMARK 924 INTRA-LIGAND FREE ENERGY PREDICTED BY IDOCK:   -0.16 KCAL/MOL
REMARK 927      BINDING AFFINITY PREDICTED BY RF-SCORE:    0.00 PKD
ROOT
HETATM    1  C   UNL     1     -10.620   5.788  67.827  1.00  0.00    -0.310 C  
HETATM    2  C   UNL     1      -9.471   6.774  67.706  1.00  0.00    -0.118 C  
ENDROOT
BRANCH   2   3
HETATM    3  O   UNL     1      -9.466   7.267  66.361  1.00  0.00    -0.175 OA 
BRANCH   3   4
HETATM    4  C   UNL     1      -9.421   8.615  66.222  1.00  0.00    -0.241 C  
HETATM    5  O   UNL     1      -8.615   9.245  65.548  1.00  0.00    -0.134 OA 
BRANCH   4   6
HETATM    6  C   UNL     1     -10.634   9.230  66.858  1.00  0.00    -0.239 C  
BRANCH   6   7
HETATM    7  C   UNL     1     -10.247  10.144  68.012  1.00  0.00    -0.173 C  
BRANCH   7   8
HETATM    8  S   UNL     1      -8.757  11.170  67.662  1.00  0.00    -0.132 SA 
BRANCH   8   9
HETATM    9  P   UNL     1      -7.433  10.987  69.307  1.00  0.00    -0.002 P  
HETATM   10  S   UNL     1      -8.457   9.427  70.108  1.00  0.00    -0.221 S  
BRANCH   9  11
HETATM   11  O   UNL     1      -6.178  10.488  68.344  1.00  0.00    -0.050 OA 
HETATM   12  C   UNL     1      -5.976   9.127  67.991  1.00  0.00    -0.049 C  
ENDBRANCH   9  11
BRANCH   9  13
HETATM   13  O   UNL     1      -6.352  10.838  70.650  1.00  0.00    -0.305 OA 
HETATM   14  C   UNL     1      -5.294  11.775  70.681  1.00  0.00    -0.145 C  
ENDBRANCH   9  13
ENDBRANCH   8   9
ENDBRANCH   7   8
BRANCH   7  15
HETATM   15  C   UNL     1     -11.387  11.121  68.268  1.00  0.00    -0.297 C  
HETATM   16  O   UNL     1     -11.967  11.760  67.401  1.00  0.00    -0.617 OA 
BRANCH  15  17
HETATM   17  O   UNL     1     -11.595  11.254  69.610  1.00  0.00    -0.271 OA 
BRANCH  17  18
HETATM   18  C   UNL     1     -12.570  10.362  70.162  1.00  0.00    -0.130 C  
HETATM   19  C   UNL     1     -12.832  10.789  71.595  1.00  0.00    -0.562 C  
ENDBRANCH  17  18
ENDBRANCH  15  17
ENDBRANCH   7  15
ENDBRANCH   6   7
ENDBRANCH   4   6
ENDBRANCH   3   4
ENDBRANCH   2   3
TORSDOF 11
ENDMDL
MODEL      363
REMARK 921   NORMALIZED FREE ENERGY PREDICTED BY IDOCK:   -2.21 KCAL/MOL
REMARK 922        TOTAL FREE ENERGY PREDICTED BY IDOCK:   -4.32 KCAL/MOL
REMARK 923 INTER-LIGAND FREE ENERGY PREDICTED BY IDOCK:   -4.60 KCAL/MOL
REMARK 924 INTRA-LIGAND FREE ENERGY PREDICTED BY IDOCK:    0.28 KCAL/MOL
REMARK 927      BINDING AFFINITY PREDICTED BY RF-SCORE:    0.00 PKD
ROOT
HETATM    1  C   UNL     1     -11.004   6.485  69.427  1.00  0.00    -0.395 C  
HETATM    2  C   UNL     1     -10.220   7.625  68.802  1.00  0.00    -0.199 C  
ENDROOT
BRANCH   2   3
HETATM    3  O   UNL     1     -10.766   7.861  67.499  1.00  0.00    -0.247 OA 
BRANCH   3   4
HETATM    4  C   UNL     1     -10.372   9.005  66.887  1.00  0.00    -0.254 C  
HETATM    5  O   UNL     1      -9.917   9.097  65.753  1.00  0.00    -0.277 OA 
BRANCH   4   6
HETATM    6  C   UNL     1     -10.757  10.187  67.727  1.00  0.00    -0.328 C  
BRANCH   6   7
HETATM    7  C   UNL     1     -10.073  11.457  67.239  1.00  0.00    -0.192 C  
BRANCH   7   8
HETATM    8  S   UNL     1      -8.486  11.137  66.360  1.00  0.00    -0.162 SA 
BRANCH   8   9
HETATM    9  P   UNL     1      -6.949  12.185  67.377  1.00  0.00    -0.131 P  
HETATM   10  S   UNL     1      -8.257  13.414  68.327  1.00  0.00    -0.151 S  
BRANCH   9  11
HETATM   11  O   UNL     1      -6.546  10.864  68.295  1.00  0.00    -0.057 OA 
HETATM   12  C   UNL     1      -6.960   9.545  67.965  1.00  0.00    -0.079 C  
ENDBRANCH   9  11
BRANCH   9  13
HETATM   13  O   UNL     1      -5.695  13.041  68.207  1.00  0.00    -0.066 OA 
HETATM   14  C   UNL     1      -6.022  14.359  68.601  1.00  0.00    -0.085 C  
ENDBRANCH   9  13
ENDBRANCH   8   9
ENDBRANCH   7   8
BRANCH   7  15
HETATM   15  C   UNL     1     -10.984  12.151  66.235  1.00  0.00    -0.295 C  
HETATM   16  O   UNL     1     -12.207  12.132  66.273  1.00  0.00    -0.604 OA 
BRANCH  15  17
HETATM   17  O   UNL     1     -10.241  12.707  65.237  1.00  0.00    -0.286 OA 
BRANCH  17  18
HETATM   18  C   UNL     1     -10.820  13.864  64.623  1.00  0.00    -0.408 C  
HETATM   19  C   UNL     1     -10.506  15.062  65.501  1.00  0.00    -0.385 C  
ENDBRANCH  17  18
ENDBRANCH  15  17
ENDBRANCH   7  15
ENDBRANCH   6   7
ENDBRANCH   4   6
ENDBRANCH   3   4
ENDBRANCH   2   3
TORSDOF 11
ENDMDL
MODEL      364
REMARK 921   NORMALIZED FREE ENERGY PREDICTED BY IDOCK:   -2.20 KCAL/MOL
REMARK 922        TOTAL FREE ENERGY PREDICTED BY IDOCK:   -4.31 KCAL/MOL
REMARK 923 INTER-LIGAND FREE ENERGY PREDICTED BY IDOCK:   -3.43 KCAL/MOL
REMARK 924 INTRA-LIGAND FREE ENERGY PREDICTED BY IDOCK:   -0.89 KCAL/MOL
REMARK 927      BINDING AFFINITY PREDICTED BY RF-SCORE:    0.00 PKD
ROOT
HETATM    1  C   UNL     1      -8.283  11.376  67.780  1.00  0.00    -0.125 C  
HETATM    2  C   UNL     1      -7.721  10.160  67.064  1.00  0.00    -0.096 C  
ENDROOT
BRANCH   2   3
HETATM    3  O   UNL     1      -7.033   9.366  68.037  1.00  0.00    -0.077 OA 
BRANCH   3   4
HETATM    4  C   UNL     1      -7.457   8.084  68.166  1.00  0.00    -0.101 C  
HETATM    5  O   UNL     1      -6.854   7.083  67.799  1.00  0.00    -0.068 OA 
BRANCH   4   6
HETATM    6  C   UNL     1      -8.698   8.044  69.011  1.00  0.00    -0.137 C  
BRANCH   6   7
HETATM    7  C   UNL     1      -9.662   6.971  68.524  1.00  0.00    -0.141 C  
BRANCH   7   8
HETATM    8  S   UNL     1     -10.874   6.444  69.808  1.00  0.00    -0.350 SA 
BRANCH   8   9
HETATM    9  P   UNL     1     -10.169   7.115  71.691  1.00  0.00    -0.191 P  
HETATM   10  S   UNL     1     -11.456   8.686  71.742  1.00  0.00    -0.350 S  
BRANCH   9  11
HETATM   11  O   UNL     1     -10.769   5.784  72.479  1.00  0.00    -0.212 OA 
HETATM   12  C   UNL     1     -10.059   4.556  72.560  1.00  0.00    -0.176 C  
ENDBRANCH   9  11
BRANCH   9  13
HETATM   13  O   UNL     1      -9.595   7.663  73.228  1.00  0.00    -0.219 OA 
HETATM   14  C   UNL     1      -8.267   8.149  73.239  1.00  0.00    -0.199 C  
ENDBRANCH   9  13
ENDBRANCH   8   9
ENDBRANCH   7   8
BRANCH   7  15
HETATM   15  C   UNL     1     -10.480   7.533  67.369  1.00  0.00    -0.297 C  
HETATM   16  O   UNL     1     -10.884   8.686  67.296  1.00  0.00    -0.217 OA 
BRANCH  15  17
HETATM   17  O   UNL     1     -10.782   6.540  66.485  1.00  0.00    -0.184 OA 
BRANCH  17  18
HETATM   18  C   UNL     1      -9.727   5.598  66.250  1.00  0.00    -0.135 C  
HETATM   19  C   UNL     1     -10.363   4.266  65.898  1.00  0.00    -0.152 C  
ENDBRANCH  17  18
ENDBRANCH  15  17
ENDBRANCH   7  15
ENDBRANCH   6   7
ENDBRANCH   4   6
ENDBRANCH   3   4
ENDBRANCH   2   3
TORSDOF 11
ENDMDL
MODEL      365
REMARK 921   NORMALIZED FREE ENERGY PREDICTED BY IDOCK:   -2.20 KCAL/MOL
REMARK 922        TOTAL FREE ENERGY PREDICTED BY IDOCK:   -4.31 KCAL/MOL
REMARK 923 INTER-LIGAND FREE ENERGY PREDICTED BY IDOCK:   -3.59 KCAL/MOL
REMARK 924 INTRA-LIGAND FREE ENERGY PREDICTED BY IDOCK:   -0.72 KCAL/MOL
REMARK 927      BINDING AFFINITY PREDICTED BY RF-SCORE:    0.00 PKD
ROOT
HETATM    1  C   UNL     1      -8.072   3.594  67.529  1.00  0.00    -0.089 C  
HETATM    2  C   UNL     1      -8.858   4.733  68.154  1.00  0.00    -0.104 C  
ENDROOT
BRANCH   2   3
HETATM    3  O   UNL     1      -9.935   5.052  67.265  1.00  0.00    -0.165 OA 
BRANCH   3   4
HETATM    4  C   UNL     1     -10.473   6.289  67.402  1.00  0.00    -0.248 C  
HETATM    5  O   UNL     1     -11.575   6.646  67.003  1.00  0.00    -0.032 OA 
BRANCH   4   6
HETATM    6  C   UNL     1      -9.602   7.124  68.296  1.00  0.00    -0.136 C  
BRANCH   6   7
HETATM    7  C   UNL     1     -10.334   8.371  68.771  1.00  0.00    -0.206 C  
BRANCH   7   8
HETATM    8  S   UNL     1      -9.846   8.902  70.466  1.00  0.00    -0.217 SA 
BRANCH   8   9
HETATM    9  P   UNL     1     -10.079   7.244  71.766  1.00  0.00    -0.178 P  
HETATM   10  S   UNL     1      -8.669   7.917  73.065  1.00  0.00    -0.227 S  
BRANCH   9  11
HETATM   11  O   UNL     1     -11.610   7.703  72.207  1.00  0.00    -0.289 OA 
HETATM   12  C   UNL     1     -12.769   7.296  71.491  1.00  0.00    -0.384 C  
ENDBRANCH   9  11
BRANCH   9  13
HETATM   13  O   UNL     1     -10.268   5.892  72.828  1.00  0.00    -0.177 OA 
HETATM   14  C   UNL     1     -10.345   6.209  74.204  1.00  0.00    -0.294 C  
ENDBRANCH   9  13
ENDBRANCH   8   9
ENDBRANCH   7   8
BRANCH   7  15
HETATM   15  C   UNL     1      -9.985   9.528  67.843  1.00  0.00    -0.172 C  
HETATM   16  O   UNL     1     -10.799  10.295  67.347  1.00  0.00    -0.279 OA 
BRANCH  15  17
HETATM   17  O   UNL     1      -8.650   9.518  67.568  1.00  0.00    -0.125 OA 
BRANCH  17  18
HETATM   18  C   UNL     1      -8.170  10.665  66.857  1.00  0.00    -0.123 C  
HETATM   19  C   UNL     1      -7.405  10.174  65.642  1.00  0.00    -0.144 C  
ENDBRANCH  17  18
ENDBRANCH  15  17
ENDBRANCH   7  15
ENDBRANCH   6   7
ENDBRANCH   4   6
ENDBRANCH   3   4
ENDBRANCH   2   3
TORSDOF 11
ENDMDL
MODEL      366
REMARK 921   NORMALIZED FREE ENERGY PREDICTED BY IDOCK:   -2.20 KCAL/MOL
REMARK 922        TOTAL FREE ENERGY PREDICTED BY IDOCK:   -4.31 KCAL/MOL
REMARK 923 INTER-LIGAND FREE ENERGY PREDICTED BY IDOCK:   -3.68 KCAL/MOL
REMARK 924 INTRA-LIGAND FREE ENERGY PREDICTED BY IDOCK:   -0.63 KCAL/MOL
REMARK 927      BINDING AFFINITY PREDICTED BY RF-SCORE:    0.00 PKD
ROOT
HETATM    1  C   UNL     1      -9.406   5.674  66.778  1.00  0.00    -0.139 C  
HETATM    2  C   UNL     1      -8.748   6.925  66.222  1.00  0.00    -0.142 C  
ENDROOT
BRANCH   2   3
HETATM    3  O   UNL     1      -9.785   7.879  65.963  1.00  0.00    -0.081 OA 
BRANCH   3   4
HETATM    4  C   UNL     1      -9.401   9.179  65.919  1.00  0.00    -0.243 C  
HETATM    5  O   UNL     1      -8.328   9.601  65.505  1.00  0.00    -0.130 OA 
BRANCH   4   6
HETATM    6  C   UNL     1     -10.562  10.062  66.271  1.00  0.00    -0.115 C  
BRANCH   6   7
HETATM    7  C   UNL     1     -10.422  10.622  67.680  1.00  0.00    -0.227 C  
BRANCH   7   8
HETATM    8  S   UNL     1      -9.381   9.574  68.780  1.00  0.00    -0.149 SA 
BRANCH   8   9
HETATM    9  P   UNL     1     -10.465   9.215  70.566  1.00  0.00    -0.284 P  
HETATM   10  S   UNL     1     -10.840   7.278  70.086  1.00  0.00    -0.259 S  
BRANCH   9  11
HETATM   11  O   UNL     1      -9.115   9.380  71.514  1.00  0.00    -0.275 OA 
HETATM   12  C   UNL     1      -7.854   8.830  71.155  1.00  0.00    -0.134 C  
ENDBRANCH   9  11
BRANCH   9  13
HETATM   13  O   UNL     1     -11.351   8.922  72.023  1.00  0.00    -0.353 OA 
HETATM   14  C   UNL     1     -11.314   7.590  72.495  1.00  0.00    -0.334 C  
ENDBRANCH   9  13
ENDBRANCH   8   9
ENDBRANCH   7   8
BRANCH   7  15
HETATM   15  C   UNL     1      -9.733  11.978  67.603  1.00  0.00    -0.187 C  
HETATM   16  O   UNL     1     -10.207  12.973  67.071  1.00  0.00    -0.241 OA 
BRANCH  15  17
HETATM   17  O   UNL     1      -8.474  11.891  68.120  1.00  0.00    -0.149 OA 
BRANCH  17  18
HETATM   18  C   UNL     1      -7.465  12.581  67.373  1.00  0.00    -0.153 C  
HETATM   19  C   UNL     1      -6.324  12.904  68.321  1.00  0.00    -0.085 C  
ENDBRANCH  17  18
ENDBRANCH  15  17
ENDBRANCH   7  15
ENDBRANCH   6   7
ENDBRANCH   4   6
ENDBRANCH   3   4
ENDBRANCH   2   3
TORSDOF 11
ENDMDL
MODEL      367
REMARK 921   NORMALIZED FREE ENERGY PREDICTED BY IDOCK:   -2.18 KCAL/MOL
REMARK 922        TOTAL FREE ENERGY PREDICTED BY IDOCK:   -4.28 KCAL/MOL
REMARK 923 INTER-LIGAND FREE ENERGY PREDICTED BY IDOCK:   -3.47 KCAL/MOL
REMARK 924 INTRA-LIGAND FREE ENERGY PREDICTED BY IDOCK:   -0.81 KCAL/MOL
REMARK 927      BINDING AFFINITY PREDICTED BY RF-SCORE:    0.00 PKD
ROOT
HETATM    1  C   UNL     1     -10.186   7.413  73.344  1.00  0.00    -0.402 C  
HETATM    2  C   UNL     1     -10.780   6.083  72.916  1.00  0.00    -0.247 C  
ENDROOT
BRANCH   2   3
HETATM    3  O   UNL     1     -10.463   5.894  71.532  1.00  0.00    -0.217 OA 
BRANCH   3   4
HETATM    4  C   UNL     1     -11.349   6.409  70.643  1.00  0.00    -0.357 C  
HETATM    5  O   UNL     1     -12.501   6.747  70.885  1.00  0.00    -0.364 OA 
BRANCH   4   6
HETATM    6  C   UNL     1     -10.653   6.695  69.344  1.00  0.00    -0.279 C  
BRANCH   6   7
HETATM    7  C   UNL     1      -9.243   7.218  69.577  1.00  0.00    -0.149 C  
BRANCH   7   8
HETATM    8  S   UNL     1      -8.003   6.517  68.408  1.00  0.00    -0.111 SA 
BRANCH   8   9
HETATM    9  P   UNL     1      -8.904   4.887  67.395  1.00  0.00    -0.105 P  
HETATM   10  S   UNL     1      -8.437   5.620  65.559  1.00  0.00    -0.148 S  
BRANCH   9  11
HETATM   11  O   UNL     1      -7.770   3.811  67.950  1.00  0.00    -0.069 OA 
HETATM   12  C   UNL     1      -6.709   4.193  68.815  1.00  0.00    -0.046 C  
ENDBRANCH   9  11
BRANCH   9  13
HETATM   13  O   UNL     1      -9.639   3.558  66.567  1.00  0.00    -0.181 OA 
HETATM   14  C   UNL     1      -8.781   2.830  65.710  1.00  0.00    -0.129 C  
ENDBRANCH   9  13
ENDBRANCH   8   9
ENDBRANCH   7   8
BRANCH   7  15
HETATM   15  C   UNL     1      -9.235   8.724  69.355  1.00  0.00    -0.146 C  
HETATM   16  O   UNL     1     -10.198   9.460  69.523  1.00  0.00    -0.190 OA 
BRANCH  15  17
HETATM   17  O   UNL     1      -8.032   9.114  68.845  1.00  0.00    -0.096 OA 
BRANCH  17  18
HETATM   18  C   UNL     1      -7.462  10.276  69.459  1.00  0.00    -0.142 C  
HETATM   19  C   UNL     1      -6.328   9.819  70.358  1.00  0.00    -0.093 C  
ENDBRANCH  17  18
ENDBRANCH  15  17
ENDBRANCH   7  15
ENDBRANCH   6   7
ENDBRANCH   4   6
ENDBRANCH   3   4
ENDBRANCH   2   3
TORSDOF 11
ENDMDL
MODEL      368
REMARK 921   NORMALIZED FREE ENERGY PREDICTED BY IDOCK:   -2.18 KCAL/MOL
REMARK 922        TOTAL FREE ENERGY PREDICTED BY IDOCK:   -4.27 KCAL/MOL
REMARK 923 INTER-LIGAND FREE ENERGY PREDICTED BY IDOCK:   -3.59 KCAL/MOL
REMARK 924 INTRA-LIGAND FREE ENERGY PREDICTED BY IDOCK:   -0.69 KCAL/MOL
REMARK 927      BINDING AFFINITY PREDICTED BY RF-SCORE:    0.00 PKD
ROOT
HETATM    1  C   UNL     1     -10.393   3.763  64.169  1.00  0.00    -0.260 C  
HETATM    2  C   UNL     1      -9.683   4.042  65.482  1.00  0.00    -0.194 C  
ENDROOT
BRANCH   2   3
HETATM    3  O   UNL     1      -9.386   5.443  65.523  1.00  0.00    -0.136 OA 
BRANCH   3   4
HETATM    4  C   UNL     1      -8.654   5.866  66.584  1.00  0.00    -0.119 C  
HETATM    5  O   UNL     1      -7.520   6.325  66.542  1.00  0.00    -0.083 OA 
BRANCH   4   6
HETATM    6  C   UNL     1      -9.511   5.877  67.817  1.00  0.00    -0.114 C  
BRANCH   6   7
HETATM    7  C   UNL     1      -9.429   7.218  68.532  1.00  0.00    -0.140 C  
BRANCH   7   8
HETATM    8  S   UNL     1     -10.847   8.332  68.158  1.00  0.00     0.183 SA 
BRANCH   8   9
HETATM    9  P   UNL     1     -10.068  10.196  67.515  1.00  0.00    -0.229 P  
HETATM   10  S   UNL     1      -9.684   9.519  65.638  1.00  0.00    -0.249 S  
BRANCH   9  11
HETATM   11  O   UNL     1     -11.544  10.942  67.625  1.00  0.00    -0.531 OA 
HETATM   12  C   UNL     1     -11.964  11.643  68.787  1.00  0.00    -0.264 C  
ENDBRANCH   9  11
BRANCH   9  13
HETATM   13  O   UNL     1      -9.431  11.716  66.989  1.00  0.00    -0.178 OA 
HETATM   14  C   UNL     1      -8.050  11.908  67.229  1.00  0.00    -0.171 C  
ENDBRANCH   9  13
ENDBRANCH   8   9
ENDBRANCH   7   8
BRANCH   7  15
HETATM   15  C   UNL     1      -9.462   6.976  70.036  1.00  0.00    -0.161 C  
HETATM   16  O   UNL     1      -8.729   7.524  70.848  1.00  0.00    -0.139 OA 
BRANCH  15  17
HETATM   17  O   UNL     1     -10.353   5.986  70.329  1.00  0.00    -0.194 OA 
BRANCH  17  18
HETATM   18  C   UNL     1     -11.282   6.298  71.374  1.00  0.00    -0.293 C  
HETATM   19  C   UNL     1     -11.002   5.367  72.539  1.00  0.00    -0.312 C  
ENDBRANCH  17  18
ENDBRANCH  15  17
ENDBRANCH   7  15
ENDBRANCH   6   7
ENDBRANCH   4   6
ENDBRANCH   3   4
ENDBRANCH   2   3
TORSDOF 11
ENDMDL
MODEL      369
REMARK 921   NORMALIZED FREE ENERGY PREDICTED BY IDOCK:   -2.17 KCAL/MOL
REMARK 922        TOTAL FREE ENERGY PREDICTED BY IDOCK:   -4.26 KCAL/MOL
REMARK 923 INTER-LIGAND FREE ENERGY PREDICTED BY IDOCK:   -3.70 KCAL/MOL
REMARK 924 INTRA-LIGAND FREE ENERGY PREDICTED BY IDOCK:   -0.55 KCAL/MOL
REMARK 927      BINDING AFFINITY PREDICTED BY RF-SCORE:    0.00 PKD
ROOT
HETATM    1  C   UNL     1      -5.522   9.062  72.420  1.00  0.00    -0.068 C  
HETATM    2  C   UNL     1      -6.427   8.701  71.256  1.00  0.00    -0.062 C  
ENDROOT
BRANCH   2   3
HETATM    3  O   UNL     1      -7.583   9.543  71.331  1.00  0.00    -0.311 OA 
BRANCH   3   4
HETATM    4  C   UNL     1      -8.757   8.920  71.602  1.00  0.00    -0.116 C  
HETATM    5  O   UNL     1      -9.012   8.262  72.603  1.00  0.00    -0.205 OA 
BRANCH   4   6
HETATM    6  C   UNL     1      -9.786   9.315  70.583  1.00  0.00    -0.332 C  
BRANCH   6   7
HETATM    7  C   UNL     1     -10.261   8.111  69.783  1.00  0.00    -0.203 C  
BRANCH   7   8
HETATM    8  S   UNL     1      -8.980   6.797  69.614  1.00  0.00    -0.143 SA 
BRANCH   8   9
HETATM    9  P   UNL     1      -9.191   5.918  67.696  1.00  0.00    -0.103 P  
HETATM   10  S   UNL     1      -9.879   7.634  66.857  1.00  0.00    -0.250 S  
BRANCH   9  11
HETATM   11  O   UNL     1      -7.553   5.738  67.510  1.00  0.00    -0.090 OA 
HETATM   12  C   UNL     1      -6.609   6.445  68.304  1.00  0.00    -0.066 C  
ENDBRANCH   9  11
BRANCH   9  13
HETATM   13  O   UNL     1      -9.364   5.200  66.132  1.00  0.00    -0.144 OA 
HETATM   14  C   UNL     1      -8.764   3.928  65.980  1.00  0.00    -0.115 C  
ENDBRANCH   9  13
ENDBRANCH   8   9
ENDBRANCH   7   8
BRANCH   7  15
HETATM   15  C   UNL     1     -11.436   7.470  70.511  1.00  0.00    -0.237 C  
HETATM   16  O   UNL     1     -11.587   6.266  70.668  1.00  0.00    -0.353 OA 
BRANCH  15  17
HETATM   17  O   UNL     1     -12.340   8.426  70.869  1.00  0.00    -0.197 OA 
BRANCH  17  18
HETATM   18  C   UNL     1     -12.923   8.252  72.166  1.00  0.00    -0.299 C  
HETATM   19  C   UNL     1     -14.251   8.987  72.182  1.00  0.00    -0.409 C  
ENDBRANCH  17  18
ENDBRANCH  15  17
ENDBRANCH   7  15
ENDBRANCH   6   7
ENDBRANCH   4   6
ENDBRANCH   3   4
ENDBRANCH   2   3
TORSDOF 11
ENDMDL
MODEL      370
REMARK 921   NORMALIZED FREE ENERGY PREDICTED BY IDOCK:   -2.15 KCAL/MOL
REMARK 922        TOTAL FREE ENERGY PREDICTED BY IDOCK:   -4.23 KCAL/MOL
REMARK 923 INTER-LIGAND FREE ENERGY PREDICTED BY IDOCK:   -3.47 KCAL/MOL
REMARK 924 INTRA-LIGAND FREE ENERGY PREDICTED BY IDOCK:   -0.76 KCAL/MOL
REMARK 927      BINDING AFFINITY PREDICTED BY RF-SCORE:    0.00 PKD
ROOT
HETATM    1  C   UNL     1      -8.789   5.178  67.408  1.00  0.00    -0.105 C  
HETATM    2  C   UNL     1      -9.108   6.627  67.731  1.00  0.00    -0.113 C  
ENDROOT
BRANCH   2   3
HETATM    3  O   UNL     1      -9.721   7.202  66.571  1.00  0.00    -0.183 OA 
BRANCH   3   4
HETATM    4  C   UNL     1      -9.492   8.524  66.370  1.00  0.00    -0.232 C  
HETATM    5  O   UNL     1      -9.895   9.191  65.425  1.00  0.00    -0.156 OA 
BRANCH   4   6
HETATM    6  C   UNL     1      -8.831   9.113  67.583  1.00  0.00    -0.123 C  
BRANCH   6   7
HETATM    7  C   UNL     1      -9.206  10.578  67.757  1.00  0.00    -0.145 C  
BRANCH   7   8
HETATM    8  S   UNL     1      -9.916  10.956  69.414  1.00  0.00     0.032 SA 
BRANCH   8   9
HETATM    9  P   UNL     1     -10.612   9.140  70.261  1.00  0.00    -0.256 P  
HETATM   10  S   UNL     1      -8.862   8.787  71.230  1.00  0.00    -0.235 S  
BRANCH   9  11
HETATM   11  O   UNL     1     -11.717   9.919  71.221  1.00  0.00    -0.354 OA 
HETATM   12  C   UNL     1     -12.316  11.154  70.855  1.00  0.00    -0.399 C  
ENDBRANCH   9  11
BRANCH   9  13
HETATM   13  O   UNL     1     -11.178   7.659  70.951  1.00  0.00    -0.259 OA 
HETATM   14  C   UNL     1     -11.746   7.771  72.241  1.00  0.00    -0.340 C  
ENDBRANCH   9  13
ENDBRANCH   8   9
ENDBRANCH   7   8
BRANCH   7  15
HETATM   15  C   UNL     1      -7.946  11.425  67.630  1.00  0.00    -0.123 C  
HETATM   16  O   UNL     1      -7.142  11.345  66.711  1.00  0.00    -0.138 OA 
BRANCH  15  17
HETATM   17  O   UNL     1      -7.796  12.206  68.737  1.00  0.00    -0.107 OA 
BRANCH  17  18
HETATM   18  C   UNL     1      -6.868  13.288  68.591  1.00  0.00    -0.099 C  
HETATM   19  C   UNL     1      -7.628  14.585  68.803  1.00  0.00    -0.131 C  
ENDBRANCH  17  18
ENDBRANCH  15  17
ENDBRANCH   7  15
ENDBRANCH   6   7
ENDBRANCH   4   6
ENDBRANCH   3   4
ENDBRANCH   2   3
TORSDOF 11
ENDMDL
MODEL      371
REMARK 921   NORMALIZED FREE ENERGY PREDICTED BY IDOCK:   -2.13 KCAL/MOL
REMARK 922        TOTAL FREE ENERGY PREDICTED BY IDOCK:   -4.19 KCAL/MOL
REMARK 923 INTER-LIGAND FREE ENERGY PREDICTED BY IDOCK:   -3.27 KCAL/MOL
REMARK 924 INTRA-LIGAND FREE ENERGY PREDICTED BY IDOCK:   -0.92 KCAL/MOL
REMARK 927      BINDING AFFINITY PREDICTED BY RF-SCORE:    0.00 PKD
ROOT
HETATM    1  C   UNL     1      -6.710   7.031  71.733  1.00  0.00    -0.053 C  
HETATM    2  C   UNL     1      -7.915   6.137  71.964  1.00  0.00    -0.106 C  
ENDROOT
BRANCH   2   3
HETATM    3  O   UNL     1      -8.998   6.665  71.188  1.00  0.00    -0.144 OA 
BRANCH   3   4
HETATM    4  C   UNL     1      -9.637   5.783  70.380  1.00  0.00    -0.168 C  
HETATM    5  O   UNL     1     -10.561   5.047  70.702  1.00  0.00    -0.200 OA 
BRANCH   4   6
HETATM    6  C   UNL     1      -9.181   5.973  68.962  1.00  0.00    -0.125 C  
BRANCH   6   7
HETATM    7  C   UNL     1     -10.330   5.780  67.983  1.00  0.00    -0.206 C  
BRANCH   7   8
HETATM    8  S   UNL     1     -10.742   7.305  67.034  1.00  0.00    -0.244 SA 
BRANCH   8   9
HETATM    9  P   UNL     1      -9.505   8.874  67.742  1.00  0.00    -0.148 P  
HETATM   10  S   UNL     1      -9.685   9.946  66.027  1.00  0.00    -0.265 S  
BRANCH   9  11
HETATM   11  O   UNL     1     -10.609   9.334  68.891  1.00  0.00    -0.218 OA 
HETATM   12  C   UNL     1     -10.228   9.782  70.185  1.00  0.00    -0.275 C  
ENDBRANCH   9  11
BRANCH   9  13
HETATM   13  O   UNL     1      -8.494  10.154  68.319  1.00  0.00    -0.112 OA 
HETATM   14  C   UNL     1      -7.562  10.657  67.382  1.00  0.00    -0.095 C  
ENDBRANCH   9  13
ENDBRANCH   8   9
ENDBRANCH   7   8
BRANCH   7  15
HETATM   15  C   UNL     1      -9.927   4.733  66.953  1.00  0.00    -0.217 C  
HETATM   16  O   UNL     1     -10.473   4.573  65.870  1.00  0.00    -0.280 OA 
BRANCH  15  17
HETATM   17  O   UNL     1      -8.942   3.937  67.459  1.00  0.00    -0.115 OA 
BRANCH  17  18
HETATM   18  C   UNL     1      -9.332   2.583  67.720  1.00  0.00    -0.175 C  
HETATM   19  C   UNL     1      -8.780   2.194  69.079  1.00  0.00    -0.124 C  
ENDBRANCH  17  18
ENDBRANCH  15  17
ENDBRANCH   7  15
ENDBRANCH   6   7
ENDBRANCH   4   6
ENDBRANCH   3   4
ENDBRANCH   2   3
TORSDOF 11
ENDMDL
MODEL      372
REMARK 921   NORMALIZED FREE ENERGY PREDICTED BY IDOCK:   -2.12 KCAL/MOL
REMARK 922        TOTAL FREE ENERGY PREDICTED BY IDOCK:   -4.18 KCAL/MOL
REMARK 923 INTER-LIGAND FREE ENERGY PREDICTED BY IDOCK:   -3.84 KCAL/MOL
REMARK 924 INTRA-LIGAND FREE ENERGY PREDICTED BY IDOCK:   -0.34 KCAL/MOL
REMARK 927      BINDING AFFINITY PREDICTED BY RF-SCORE:    0.00 PKD
ROOT
HETATM    1  C   UNL     1      -8.000  16.051  68.766  1.00  0.00    -0.196 C  
HETATM    2  C   UNL     1      -8.001  14.653  69.357  1.00  0.00    -0.003 C  
ENDROOT
BRANCH   2   3
HETATM    3  O   UNL     1      -8.683  13.795  68.435  1.00  0.00    -0.175 OA 
BRANCH   3   4
HETATM    4  C   UNL     1      -7.918  12.870  67.805  1.00  0.00    -0.162 C  
HETATM    5  O   UNL     1      -6.726  12.975  67.544  1.00  0.00    -0.148 OA 
BRANCH   4   6
HETATM    6  C   UNL     1      -8.695  11.596  67.643  1.00  0.00    -0.156 C  
BRANCH   6   7
HETATM    7  C   UNL     1     -10.111  11.741  68.184  1.00  0.00    -0.192 C  
BRANCH   7   8
HETATM    8  S   UNL     1     -11.356  12.111  66.877  1.00  0.00    -0.351 SA 
BRANCH   8   9
HETATM    9  P   UNL     1     -10.746  13.873  65.869  1.00  0.00    -0.300 P  
HETATM   10  S   UNL     1     -10.232  12.869  64.181  1.00  0.00    -0.152 S  
BRANCH   9  11
HETATM   11  O   UNL     1     -12.293  14.466  65.802  1.00  0.00    -0.393 OA 
HETATM   12  C   UNL     1     -13.383  13.711  65.291  1.00  0.00     0.372 C  
ENDBRANCH   9  11
BRANCH   9  13
HETATM   13  O   UNL     1     -10.248  15.311  65.046  1.00  0.00    -0.365 OA 
HETATM   14  C   UNL     1     -10.348  16.504  65.799  1.00  0.00    -0.341 C  
ENDBRANCH   9  13
ENDBRANCH   8   9
ENDBRANCH   7   8
BRANCH   7  15
HETATM   15  C   UNL     1     -10.533  10.420  68.814  1.00  0.00    -0.199 C  
HETATM   16  O   UNL     1     -10.867   9.423  68.188  1.00  0.00    -0.203 OA 
BRANCH  15  17
HETATM   17  O   UNL     1     -10.582  10.546  70.171  1.00  0.00    -0.246 OA 
BRANCH  17  18
HETATM   18  C   UNL     1     -10.682   9.310  70.889  1.00  0.00    -0.301 C  
HETATM   19  C   UNL     1      -9.282   8.900  71.307  1.00  0.00    -0.328 C  
ENDBRANCH  17  18
ENDBRANCH  15  17
ENDBRANCH   7  15
ENDBRANCH   6   7
ENDBRANCH   4   6
ENDBRANCH   3   4
ENDBRANCH   2   3
TORSDOF 11
ENDMDL
MODEL      373
REMARK 921   NORMALIZED FREE ENERGY PREDICTED BY IDOCK:   -2.08 KCAL/MOL
REMARK 922        TOTAL FREE ENERGY PREDICTED BY IDOCK:   -4.12 KCAL/MOL
REMARK 923 INTER-LIGAND FREE ENERGY PREDICTED BY IDOCK:   -3.40 KCAL/MOL
REMARK 924 INTRA-LIGAND FREE ENERGY PREDICTED BY IDOCK:   -0.72 KCAL/MOL
REMARK 927      BINDING AFFINITY PREDICTED BY RF-SCORE:    0.00 PKD
ROOT
HETATM    1  C   UNL     1     -11.417   4.785  73.179  1.00  0.00    -0.348 C  
HETATM    2  C   UNL     1     -10.454   5.160  72.066  1.00  0.00    -0.215 C  
ENDROOT
BRANCH   2   3
HETATM    3  O   UNL     1     -11.166   5.991  71.142  1.00  0.00    -0.293 OA 
BRANCH   3   4
HETATM    4  C   UNL     1     -11.257   7.304  71.470  1.00  0.00    -0.245 C  
HETATM    5  O   UNL     1     -12.288   7.916  71.720  1.00  0.00    -0.299 OA 
BRANCH   4   6
HETATM    6  C   UNL     1      -9.882   7.869  71.680  1.00  0.00    -0.212 C  
BRANCH   6   7
HETATM    7  C   UNL     1      -9.110   7.943  70.370  1.00  0.00    -0.154 C  
BRANCH   7   8
HETATM    8  S   UNL     1      -8.744   9.668  69.836  1.00  0.00    -0.229 SA 
BRANCH   8   9
HETATM    9  P   UNL     1      -9.063   9.790  67.744  1.00  0.00    -0.130 P  
HETATM   10  S   UNL     1      -7.106  10.166  67.351  1.00  0.00    -0.084 S  
BRANCH   9  11
HETATM   11  O   UNL     1      -9.430   8.177  67.625  1.00  0.00    -0.141 OA 
HETATM   12  C   UNL     1     -10.618   7.704  67.005  1.00  0.00    -0.336 C  
ENDBRANCH   9  11
BRANCH   9  13
HETATM   13  O   UNL     1      -9.323   9.890  66.037  1.00  0.00    -0.165 OA 
HETATM   14  C   UNL     1      -9.937  11.082  65.588  1.00  0.00    -0.248 C  
ENDBRANCH   9  13
ENDBRANCH   8   9
ENDBRANCH   7   8
BRANCH   7  15
HETATM   15  C   UNL     1      -7.762   7.258  70.555  1.00  0.00    -0.093 C  
HETATM   16  O   UNL     1      -6.760   7.799  71.004  1.00  0.00    -0.038 OA 
BRANCH  15  17
HETATM   17  O   UNL     1      -7.810   5.991  70.053  1.00  0.00    -0.100 OA 
BRANCH  17  18
HETATM   18  C   UNL     1      -6.578   5.513  69.499  1.00  0.00    -0.050 C  
HETATM   19  C   UNL     1      -6.151   4.295  70.296  1.00  0.00    -0.018 C  
ENDBRANCH  17  18
ENDBRANCH  15  17
ENDBRANCH   7  15
ENDBRANCH   6   7
ENDBRANCH   4   6
ENDBRANCH   3   4
ENDBRANCH   2   3
TORSDOF 11
ENDMDL
MODEL      374
REMARK 921   NORMALIZED FREE ENERGY PREDICTED BY IDOCK:   -2.06 KCAL/MOL
REMARK 922        TOTAL FREE ENERGY PREDICTED BY IDOCK:   -4.07 KCAL/MOL
REMARK 923 INTER-LIGAND FREE ENERGY PREDICTED BY IDOCK:   -3.45 KCAL/MOL
REMARK 924 INTRA-LIGAND FREE ENERGY PREDICTED BY IDOCK:   -0.63 KCAL/MOL
REMARK 927      BINDING AFFINITY PREDICTED BY RF-SCORE:    0.00 PKD
ROOT
HETATM    1  C   UNL     1      -8.071  10.876  66.479  1.00  0.00    -0.154 C  
HETATM    2  C   UNL     1      -8.807   9.589  66.809  1.00  0.00    -0.131 C  
ENDROOT
BRANCH   2   3
HETATM    3  O   UNL     1      -8.189   9.026  67.972  1.00  0.00    -0.109 OA 
BRANCH   3   4
HETATM    4  C   UNL     1      -8.935   8.134  68.670  1.00  0.00    -0.137 C  
HETATM    5  O   UNL     1      -9.718   7.320  68.195  1.00  0.00    -0.142 OA 
BRANCH   4   6
HETATM    6  C   UNL     1      -8.519   8.144  70.112  1.00  0.00    -0.127 C  
BRANCH   6   7
HETATM    7  C   UNL     1      -9.604   7.557  71.003  1.00  0.00    -0.160 C  
BRANCH   7   8
HETATM    8  S   UNL     1      -8.987   7.042  72.661  1.00  0.00    -0.123 SA 
BRANCH   8   9
HETATM    9  P   UNL     1      -9.028   4.924  72.747  1.00  0.00    -0.122 P  
HETATM   10  S   UNL     1      -9.896   4.750  70.919  1.00  0.00    -0.217 S  
BRANCH   9  11
HETATM   11  O   UNL     1      -7.375   4.809  72.673  1.00  0.00    -0.080 OA 
HETATM   12  C   UNL     1      -6.591   4.316  73.750  1.00  0.00    -0.053 C  
ENDBRANCH   9  11
BRANCH   9  13
HETATM   13  O   UNL     1      -9.062   3.196  72.818  1.00  0.00    -0.086 OA 
HETATM   14  C   UNL     1     -10.343   2.623  72.998  1.00  0.00    -0.148 C  
ENDBRANCH   9  13
ENDBRANCH   8   9
ENDBRANCH   7   8
BRANCH   7  15
HETATM   15  C   UNL     1     -10.663   8.623  71.255  1.00  0.00    -0.254 C  
HETATM   16  O   UNL     1     -10.446   9.827  71.292  1.00  0.00    -0.241 OA 
BRANCH  15  17
HETATM   17  O   UNL     1     -11.861   8.034  71.534  1.00  0.00    -0.275 OA 
BRANCH  17  18
HETATM   18  C   UNL     1     -12.970   8.936  71.628  1.00  0.00    -0.354 C  
HETATM   19  C   UNL     1     -14.242   8.108  71.659  1.00  0.00    -0.536 C  
ENDBRANCH  17  18
ENDBRANCH  15  17
ENDBRANCH   7  15
ENDBRANCH   6   7
ENDBRANCH   4   6
ENDBRANCH   3   4
ENDBRANCH   2   3
TORSDOF 11
ENDMDL
MODEL      375
REMARK 921   NORMALIZED FREE ENERGY PREDICTED BY IDOCK:   -2.05 KCAL/MOL
REMARK 922        TOTAL FREE ENERGY PREDICTED BY IDOCK:   -4.06 KCAL/MOL
REMARK 923 INTER-LIGAND FREE ENERGY PREDICTED BY IDOCK:   -3.40 KCAL/MOL
REMARK 924 INTRA-LIGAND FREE ENERGY PREDICTED BY IDOCK:   -0.66 KCAL/MOL
REMARK 927      BINDING AFFINITY PREDICTED BY RF-SCORE:    0.00 PKD
ROOT
HETATM    1  C   UNL     1     -10.628   3.727  63.801  1.00  0.00    -0.267 C  
HETATM    2  C   UNL     1      -9.830   3.976  65.069  1.00  0.00    -0.202 C  
ENDROOT
BRANCH   2   3
HETATM    3  O   UNL     1      -8.730   4.827  64.727  1.00  0.00    -0.143 OA 
BRANCH   3   4
HETATM    4  C   UNL     1      -8.516   5.883  65.550  1.00  0.00    -0.154 C  
HETATM    5  O   UNL     1      -8.436   7.058  65.212  1.00  0.00    -0.129 OA 
BRANCH   4   6
HETATM    6  C   UNL     1      -8.586   5.432  66.980  1.00  0.00    -0.109 C  
BRANCH   6   7
HETATM    7  C   UNL     1      -8.870   6.600  67.914  1.00  0.00    -0.115 C  
BRANCH   7   8
HETATM    8  S   UNL     1     -10.534   6.517  68.700  1.00  0.00    -0.243 SA 
BRANCH   8   9
HETATM    9  P   UNL     1     -10.634   8.024  70.187  1.00  0.00    -0.236 P  
HETATM   10  S   UNL     1     -10.770   9.523  68.823  1.00  0.00    -0.150 S  
BRANCH   9  11
HETATM   11  O   UNL     1     -12.122   7.516  70.716  1.00  0.00    -0.259 OA 
HETATM   12  C   UNL     1     -12.282   6.590  71.782  1.00  0.00    -0.322 C  
ENDBRANCH   9  11
BRANCH   9  13
HETATM   13  O   UNL     1     -10.715   9.255  71.400  1.00  0.00    -0.317 OA 
HETATM   14  C   UNL     1     -11.869  10.070  71.358  1.00  0.00    -0.363 C  
ENDBRANCH   9  13
ENDBRANCH   8   9
ENDBRANCH   7   8
BRANCH   7  15
HETATM   15  C   UNL     1      -7.858   6.576  69.052  1.00  0.00    -0.110 C  
HETATM   16  O   UNL     1      -7.690   5.636  69.817  1.00  0.00    -0.077 OA 
BRANCH  15  17
HETATM   17  O   UNL     1      -7.244   7.790  69.155  1.00  0.00    -0.078 OA 
BRANCH  17  18
HETATM   18  C   UNL     1      -7.155   8.528  67.931  1.00  0.00    -0.086 C  
HETATM   19  C   UNL     1      -5.823   8.198  67.283  1.00  0.00    -0.042 C  
ENDBRANCH  17  18
ENDBRANCH  15  17
ENDBRANCH   7  15
ENDBRANCH   6   7
ENDBRANCH   4   6
ENDBRANCH   3   4
ENDBRANCH   2   3
TORSDOF 11
ENDMDL
MODEL      376
REMARK 921   NORMALIZED FREE ENERGY PREDICTED BY IDOCK:   -2.04 KCAL/MOL
REMARK 922        TOTAL FREE ENERGY PREDICTED BY IDOCK:   -4.05 KCAL/MOL
REMARK 923 INTER-LIGAND FREE ENERGY PREDICTED BY IDOCK:   -3.14 KCAL/MOL
REMARK 924 INTRA-LIGAND FREE ENERGY PREDICTED BY IDOCK:   -0.91 KCAL/MOL
REMARK 927      BINDING AFFINITY PREDICTED BY RF-SCORE:    0.00 PKD
ROOT
HETATM    1  C   UNL     1     -10.467   8.241  66.886  1.00  0.00    -0.365 C  
HETATM    2  C   UNL     1     -10.282   6.892  67.557  1.00  0.00    -0.194 C  
ENDROOT
BRANCH   2   3
HETATM    3  O   UNL     1      -8.971   6.420  67.224  1.00  0.00    -0.108 OA 
BRANCH   3   4
HETATM    4  C   UNL     1      -8.669   5.163  67.632  1.00  0.00    -0.103 C  
HETATM    5  O   UNL     1      -8.023   4.335  67.002  1.00  0.00    -0.096 OA 
BRANCH   4   6
HETATM    6  C   UNL     1      -9.072   4.987  69.068  1.00  0.00    -0.140 C  
BRANCH   6   7
HETATM    7  C   UNL     1      -7.860   4.731  69.953  1.00  0.00    -0.062 C  
BRANCH   7   8
HETATM    8  S   UNL     1      -6.781   6.209  70.157  1.00  0.00    -0.051 SA 
BRANCH   8   9
HETATM    9  P   UNL     1      -7.740   7.543  71.497  1.00  0.00    -0.089 P  
HETATM   10  S   UNL     1      -6.046   8.614  71.827  1.00  0.00    -0.067 S  
BRANCH   9  11
HETATM   11  O   UNL     1      -8.677   8.201  70.297  1.00  0.00    -0.130 OA 
HETATM   12  C   UNL     1      -8.710   9.596  70.028  1.00  0.00    -0.231 C  
ENDBRANCH   9  11
BRANCH   9  13
HETATM   13  O   UNL     1      -8.522   8.631  72.591  1.00  0.00    -0.378 OA 
HETATM   14  C   UNL     1      -9.602   8.083  73.321  1.00  0.00    -0.252 C  
ENDBRANCH   9  13
ENDBRANCH   8   9
ENDBRANCH   7   8
BRANCH   7  15
HETATM   15  C   UNL     1      -8.343   4.358  71.349  1.00  0.00    -0.092 C  
HETATM   16  O   UNL     1      -7.611   4.061  72.284  1.00  0.00    -0.070 OA 
BRANCH  15  17
HETATM   17  O   UNL     1      -9.705   4.302  71.372  1.00  0.00    -0.161 OA 
BRANCH  17  18
HETATM   18  C   UNL     1     -10.266   3.717  72.553  1.00  0.00    -0.161 C  
HETATM   19  C   UNL     1     -11.210   4.732  73.172  1.00  0.00    -0.390 C  
ENDBRANCH  17  18
ENDBRANCH  15  17
ENDBRANCH   7  15
ENDBRANCH   6   7
ENDBRANCH   4   6
ENDBRANCH   3   4
ENDBRANCH   2   3
TORSDOF 11
ENDMDL
MODEL      377
REMARK 921   NORMALIZED FREE ENERGY PREDICTED BY IDOCK:   -2.03 KCAL/MOL
REMARK 922        TOTAL FREE ENERGY PREDICTED BY IDOCK:   -4.04 KCAL/MOL
REMARK 923 INTER-LIGAND FREE ENERGY PREDICTED BY IDOCK:   -3.19 KCAL/MOL
REMARK 924 INTRA-LIGAND FREE ENERGY PREDICTED BY IDOCK:   -0.85 KCAL/MOL
REMARK 927      BINDING AFFINITY PREDICTED BY RF-SCORE:    0.00 PKD
ROOT
HETATM    1  C   UNL     1      -9.790   7.659  73.413  1.00  0.00    -0.362 C  
HETATM    2  C   UNL     1     -11.128   7.564  72.701  1.00  0.00    -0.347 C  
ENDROOT
BRANCH   2   3
HETATM    3  O   UNL     1     -10.965   8.137  71.398  1.00  0.00    -0.228 OA 
BRANCH   3   4
HETATM    4  C   UNL     1     -11.069   7.279  70.353  1.00  0.00    -0.268 C  
HETATM    5  O   UNL     1     -11.972   6.473  70.168  1.00  0.00    -0.383 OA 
BRANCH   4   6
HETATM    6  C   UNL     1     -10.012   7.592  69.334  1.00  0.00    -0.178 C  
BRANCH   6   7
HETATM    7  C   UNL     1      -9.631   6.353  68.536  1.00  0.00    -0.122 C  
BRANCH   7   8
HETATM    8  S   UNL     1      -9.503   6.664  66.725  1.00  0.00    -0.163 SA 
BRANCH   8   9
HETATM    9  P   UNL     1      -8.477   5.028  65.848  1.00  0.00    -0.130 P  
HETATM   10  S   UNL     1     -10.165   4.268  65.012  1.00  0.00    -0.140 S  
BRANCH   9  11
HETATM   11  O   UNL     1      -7.643   6.009  64.803  1.00  0.00    -0.078 OA 
HETATM   12  C   UNL     1      -6.746   7.018  65.247  1.00  0.00    -0.051 C  
ENDBRANCH   9  11
BRANCH   9  13
HETATM   13  O   UNL     1      -7.641   3.693  65.134  1.00  0.00    -0.076 OA 
HETATM   14  C   UNL     1      -8.332   3.036  64.090  1.00  0.00    -0.086 C  
ENDBRANCH   9  13
ENDBRANCH   8   9
ENDBRANCH   7   8
BRANCH   7  15
HETATM   15  C   UNL     1      -8.255   5.881  68.987  1.00  0.00    -0.103 C  
HETATM   16  O   UNL     1      -7.212   6.494  68.803  1.00  0.00    -0.080 OA 
BRANCH  15  17
HETATM   17  O   UNL     1      -8.345   4.634  69.531  1.00  0.00    -0.074 OA 
BRANCH  17  18
HETATM   18  C   UNL     1      -8.257   4.590  70.960  1.00  0.00    -0.089 C  
HETATM   19  C   UNL     1      -9.586   4.084  71.492  1.00  0.00    -0.237 C  
ENDBRANCH  17  18
ENDBRANCH  15  17
ENDBRANCH   7  15
ENDBRANCH   6   7
ENDBRANCH   4   6
ENDBRANCH   3   4
ENDBRANCH   2   3
TORSDOF 11
ENDMDL
MODEL      378
REMARK 921   NORMALIZED FREE ENERGY PREDICTED BY IDOCK:   -2.02 KCAL/MOL
REMARK 922        TOTAL FREE ENERGY PREDICTED BY IDOCK:   -4.02 KCAL/MOL
REMARK 923 INTER-LIGAND FREE ENERGY PREDICTED BY IDOCK:   -3.56 KCAL/MOL
REMARK 924 INTRA-LIGAND FREE ENERGY PREDICTED BY IDOCK:   -0.46 KCAL/MOL
REMARK 927      BINDING AFFINITY PREDICTED BY RF-SCORE:    0.00 PKD
ROOT
HETATM    1  C   UNL     1      -5.842  12.798  67.512  1.00  0.00    -0.132 C  
HETATM    2  C   UNL     1      -6.490  11.445  67.278  1.00  0.00    -0.098 C  
ENDROOT
BRANCH   2   3
HETATM    3  O   UNL     1      -6.177  10.616  68.403  1.00  0.00    -0.050 OA 
BRANCH   3   4
HETATM    4  C   UNL     1      -6.972  10.766  69.492  1.00  0.00    -0.130 C  
HETATM    5  O   UNL     1      -6.593  10.948  70.643  1.00  0.00    -0.319 OA 
BRANCH   4   6
HETATM    6  C   UNL     1      -8.405  10.879  69.062  1.00  0.00    -0.118 C  
BRANCH   6   7
HETATM    7  C   UNL     1      -9.056   9.508  68.949  1.00  0.00    -0.141 C  
BRANCH   7   8
HETATM    8  S   UNL     1      -8.761   8.438  70.419  1.00  0.00    -0.148 SA 
BRANCH   8   9
HETATM    9  P   UNL     1      -8.580   6.435  69.748  1.00  0.00    -0.139 P  
HETATM   10  S   UNL     1      -7.724   5.810  71.481  1.00  0.00    -0.109 S  
BRANCH   9  11
HETATM   11  O   UNL     1     -10.222   6.205  69.739  1.00  0.00    -0.173 OA 
HETATM   12  C   UNL     1     -10.986   6.178  68.541  1.00  0.00    -0.320 C  
ENDBRANCH   9  11
BRANCH   9  13
HETATM   13  O   UNL     1      -8.432   4.800  69.201  1.00  0.00    -0.080 OA 
HETATM   14  C   UNL     1      -7.648   4.621  68.038  1.00  0.00    -0.077 C  
ENDBRANCH   9  13
ENDBRANCH   8   9
ENDBRANCH   7   8
BRANCH   7  15
HETATM   15  C   UNL     1     -10.565   9.688  68.848  1.00  0.00    -0.217 C  
HETATM   16  O   UNL     1     -11.152  10.127  67.868  1.00  0.00    -0.286 OA 
BRANCH  15  17
HETATM   17  O   UNL     1     -11.152   9.387  70.042  1.00  0.00    -0.236 OA 
BRANCH  17  18
HETATM   18  C   UNL     1     -11.567  10.520  70.814  1.00  0.00    -0.338 C  
HETATM   19  C   UNL     1     -13.077  10.456  70.959  1.00  0.00    -0.450 C  
ENDBRANCH  17  18
ENDBRANCH  15  17
ENDBRANCH   7  15
ENDBRANCH   6   7
ENDBRANCH   4   6
ENDBRANCH   3   4
ENDBRANCH   2   3
TORSDOF 11
ENDMDL
MODEL      379
REMARK 921   NORMALIZED FREE ENERGY PREDICTED BY IDOCK:   -2.00 KCAL/MOL
REMARK 922        TOTAL FREE ENERGY PREDICTED BY IDOCK:   -3.99 KCAL/MOL
REMARK 923 INTER-LIGAND FREE ENERGY PREDICTED BY IDOCK:   -4.18 KCAL/MOL
REMARK 924 INTRA-LIGAND FREE ENERGY PREDICTED BY IDOCK:    0.19 KCAL/MOL
REMARK 927      BINDING AFFINITY PREDICTED BY RF-SCORE:    0.00 PKD
ROOT
HETATM    1  C   UNL     1     -10.564  11.171  62.725  1.00  0.00     0.244 C  
HETATM    2  C   UNL     1      -9.689  11.753  63.821  1.00  0.00    -0.232 C  
ENDROOT
BRANCH   2   3
HETATM    3  O   UNL     1     -10.140  11.209  65.067  1.00  0.00    -0.248 OA 
BRANCH   3   4
HETATM    4  C   UNL     1     -11.054  11.948  65.743  1.00  0.00    -0.317 C  
HETATM    5  O   UNL     1     -12.000  12.553  65.252  1.00  0.00    -0.400 OA 
BRANCH   4   6
HETATM    6  C   UNL     1     -10.863  11.762  67.220  1.00  0.00    -0.300 C  
BRANCH   6   7
HETATM    7  C   UNL     1     -10.162  12.962  67.841  1.00  0.00    -0.233 C  
BRANCH   7   8
HETATM    8  S   UNL     1      -9.781  14.292  66.626  1.00  0.00    -0.297 SA 
BRANCH   8   9
HETATM    9  P   UNL     1      -8.869  15.896  67.671  1.00  0.00    -0.178 P  
HETATM   10  S   UNL     1      -7.007  15.106  67.493  1.00  0.00    -0.168 S  
BRANCH   9  11
HETATM   11  O   UNL     1      -9.211  16.982  66.465  1.00  0.00    -0.247 OA 
HETATM   12  C   UNL     1     -10.533  17.224  66.003  1.00  0.00    -0.282 C  
ENDBRANCH   9  11
BRANCH   9  13
HETATM   13  O   UNL     1      -8.125  17.203  68.525  1.00  0.00    -0.241 OA 
HETATM   14  C   UNL     1      -6.889  16.898  69.140  1.00  0.00    -0.238 C  
ENDBRANCH   9  13
ENDBRANCH   8   9
ENDBRANCH   7   8
BRANCH   7  15
HETATM   15  C   UNL     1     -11.083  13.584  68.882  1.00  0.00    -0.267 C  
HETATM   16  O   UNL     1     -10.793  14.542  69.587  1.00  0.00    -0.229 OA 
BRANCH  15  17
HETATM   17  O   UNL     1     -12.231  12.856  68.984  1.00  0.00    -0.205 OA 
BRANCH  17  18
HETATM   18  C   UNL     1     -12.652  12.575  70.324  1.00  0.00     0.045 C  
HETATM   19  C   UNL     1     -11.934  11.320  70.784  1.00  0.00    -0.383 C  
ENDBRANCH  17  18
ENDBRANCH  15  17
ENDBRANCH   7  15
ENDBRANCH   6   7
ENDBRANCH   4   6
ENDBRANCH   3   4
ENDBRANCH   2   3
TORSDOF 11
ENDMDL
MODEL      380
REMARK 921   NORMALIZED FREE ENERGY PREDICTED BY IDOCK:   -1.99 KCAL/MOL
REMARK 922        TOTAL FREE ENERGY PREDICTED BY IDOCK:   -3.97 KCAL/MOL
REMARK 923 INTER-LIGAND FREE ENERGY PREDICTED BY IDOCK:   -4.23 KCAL/MOL
REMARK 924 INTRA-LIGAND FREE ENERGY PREDICTED BY IDOCK:    0.25 KCAL/MOL
REMARK 927      BINDING AFFINITY PREDICTED BY RF-SCORE:    0.00 PKD
ROOT
HETATM    1  C   UNL     1     -12.915  13.885  65.221  1.00  0.00    -0.341 C  
HETATM    2  C   UNL     1     -11.817  12.941  65.679  1.00  0.00    -0.417 C  
ENDROOT
BRANCH   2   3
HETATM    3  O   UNL     1     -10.710  13.742  66.108  1.00  0.00    -0.280 OA 
BRANCH   3   4
HETATM    4  C   UNL     1     -10.593  13.929  67.446  1.00  0.00    -0.267 C  
HETATM    5  O   UNL     1     -11.048  14.868  68.087  1.00  0.00    -0.262 OA 
BRANCH   4   6
HETATM    6  C   UNL     1      -9.988  12.708  68.075  1.00  0.00    -0.220 C  
BRANCH   6   7
HETATM    7  C   UNL     1      -8.518  12.929  68.406  1.00  0.00    -0.115 C  
BRANCH   7   8
HETATM    8  S   UNL     1      -7.381  11.881  67.405  1.00  0.00    -0.155 SA 
BRANCH   8   9
HETATM    9  P   UNL     1      -8.552  10.757  66.041  1.00  0.00    -0.176 P  
HETATM   10  S   UNL     1      -6.925  10.000  65.089  1.00  0.00    -0.138 S  
BRANCH   9  11
HETATM   11  O   UNL     1      -9.112   9.747  67.231  1.00  0.00    -0.134 OA 
HETATM   12  C   UNL     1     -10.436   9.232  67.240  1.00  0.00    -0.264 C  
ENDBRANCH   9  11
BRANCH   9  13
HETATM   13  O   UNL     1      -9.507   9.840  64.928  1.00  0.00    -0.264 OA 
HETATM   14  C   UNL     1      -9.554  10.349  63.609  1.00  0.00    -0.310 C  
ENDBRANCH   9  13
ENDBRANCH   8   9
ENDBRANCH   7   8
BRANCH   7  15
HETATM   15  C   UNL     1      -8.156  14.374  68.090  1.00  0.00    -0.137 C  
HETATM   16  O   UNL     1      -7.833  14.788  66.985  1.00  0.00    -0.186 OA 
BRANCH  15  17
HETATM   17  O   UNL     1      -8.145  15.113  69.237  1.00  0.00    -0.199 OA 
BRANCH  17  18
HETATM   18  C   UNL     1      -7.915  16.515  69.051  1.00  0.00    -0.225 C  
HETATM   19  C   UNL     1      -6.587  16.858  69.699  1.00  0.00    -0.138 C  
ENDBRANCH  17  18
ENDBRANCH  15  17
ENDBRANCH   7  15
ENDBRANCH   6   7
ENDBRANCH   4   6
ENDBRANCH   3   4
ENDBRANCH   2   3
TORSDOF 11
ENDMDL
MODEL      381
REMARK 921   NORMALIZED FREE ENERGY PREDICTED BY IDOCK:   -1.98 KCAL/MOL
REMARK 922        TOTAL FREE ENERGY PREDICTED BY IDOCK:   -3.95 KCAL/MOL
REMARK 923 INTER-LIGAND FREE ENERGY PREDICTED BY IDOCK:   -3.69 KCAL/MOL
REMARK 924 INTRA-LIGAND FREE ENERGY PREDICTED BY IDOCK:   -0.26 KCAL/MOL
REMARK 927      BINDING AFFINITY PREDICTED BY RF-SCORE:    0.00 PKD
ROOT
HETATM    1  C   UNL     1      -6.908  18.826  68.912  1.00  0.00    -0.316 C  
HETATM    2  C   UNL     1      -8.005  17.834  68.568  1.00  0.00    -0.294 C  
ENDROOT
BRANCH   2   3
HETATM    3  O   UNL     1      -7.396  16.544  68.442  1.00  0.00    -0.164 OA 
BRANCH   3   4
HETATM    4  C   UNL     1      -7.122  16.136  67.178  1.00  0.00    -0.218 C  
HETATM    5  O   UNL     1      -6.626  16.818  66.290  1.00  0.00    -0.192 OA 
BRANCH   4   6
HETATM    6  C   UNL     1      -7.332  14.653  67.069  1.00  0.00     0.225 C  
BRANCH   6   7
HETATM    7  C   UNL     1      -7.996  14.097  68.321  1.00  0.00    -0.140 C  
BRANCH   7   8
HETATM    8  S   UNL     1      -9.802  14.449  68.406  1.00  0.00    -0.237 SA 
BRANCH   8   9
HETATM    9  P   UNL     1     -10.838  12.753  67.667  1.00  0.00    -0.245 P  
HETATM   10  S   UNL     1     -11.754  12.395  69.444  1.00  0.00    -0.307 S  
BRANCH   9  11
HETATM   11  O   UNL     1     -11.774  13.669  66.650  1.00  0.00    -0.348 OA 
HETATM   12  C   UNL     1     -12.416  13.127  65.503  1.00  0.00    -0.458 C  
ENDBRANCH   9  11
BRANCH   9  13
HETATM   13  O   UNL     1     -11.683  11.369  67.065  1.00  0.00    -0.535 OA 
HETATM   14  C   UNL     1     -11.139  10.118  67.441  1.00  0.00    -0.147 C  
ENDBRANCH   9  13
ENDBRANCH   8   9
ENDBRANCH   7   8
BRANCH   7  15
HETATM   15  C   UNL     1      -7.856  12.580  68.317  1.00  0.00    -0.144 C  
HETATM   16  O   UNL     1      -8.143  11.850  69.256  1.00  0.00     0.206 OA 
BRANCH  15  17
HETATM   17  O   UNL     1      -7.269  12.169  67.157  1.00  0.00    -0.143 OA 
BRANCH  17  18
HETATM   18  C   UNL     1      -7.119  10.750  67.025  1.00  0.00    -0.104 C  
HETATM   19  C   UNL     1      -6.191  10.487  65.854  1.00  0.00    -0.128 C  
ENDBRANCH  17  18
ENDBRANCH  15  17
ENDBRANCH   7  15
ENDBRANCH   6   7
ENDBRANCH   4   6
ENDBRANCH   3   4
ENDBRANCH   2   3
TORSDOF 11
ENDMDL
MODEL      382
REMARK 921   NORMALIZED FREE ENERGY PREDICTED BY IDOCK:   -1.97 KCAL/MOL
REMARK 922        TOTAL FREE ENERGY PREDICTED BY IDOCK:   -3.94 KCAL/MOL
REMARK 923 INTER-LIGAND FREE ENERGY PREDICTED BY IDOCK:   -3.26 KCAL/MOL
REMARK 924 INTRA-LIGAND FREE ENERGY PREDICTED BY IDOCK:   -0.67 KCAL/MOL
REMARK 927      BINDING AFFINITY PREDICTED BY RF-SCORE:    0.00 PKD
ROOT
HETATM    1  C   UNL     1     -10.825   2.501  62.682  1.00  0.00    -0.189 C  
HETATM    2  C   UNL     1     -10.233   2.930  64.012  1.00  0.00    -0.122 C  
ENDROOT
BRANCH   2   3
HETATM    3  O   UNL     1      -9.388   4.060  63.764  1.00  0.00    -0.135 OA 
BRANCH   3   4
HETATM    4  C   UNL     1      -9.102   4.837  64.837  1.00  0.00    -0.141 C  
HETATM    5  O   UNL     1      -8.354   5.808  64.848  1.00  0.00    -0.135 OA 
BRANCH   4   6
HETATM    6  C   UNL     1      -9.993   4.462  65.986  1.00  0.00    -0.256 C  
BRANCH   6   7
HETATM    7  C   UNL     1      -9.613   5.220  67.250  1.00  0.00    -0.137 C  
BRANCH   7   8
HETATM    8  S   UNL     1     -10.804   6.557  67.684  1.00  0.00    -0.346 SA 
BRANCH   8   9
HETATM    9  P   UNL     1      -9.711   8.157  68.544  1.00  0.00    -0.171 P  
HETATM   10  S   UNL     1     -10.082   9.402  66.983  1.00  0.00    -0.257 S  
BRANCH   9  11
HETATM   11  O   UNL     1     -10.806   8.348  69.775  1.00  0.00    -0.238 OA 
HETATM   12  C   UNL     1     -10.421   8.401  71.142  1.00  0.00    -0.212 C  
ENDBRANCH   9  11
BRANCH   9  13
HETATM   13  O   UNL     1      -8.819   9.463  69.245  1.00  0.00    -0.137 OA 
HETATM   14  C   UNL     1      -9.114  10.744  68.725  1.00  0.00    -0.178 C  
ENDBRANCH   9  13
ENDBRANCH   8   9
ENDBRANCH   7   8
BRANCH   7  15
HETATM   15  C   UNL     1      -9.614   4.249  68.423  1.00  0.00    -0.133 C  
HETATM   16  O   UNL     1      -9.775   4.569  69.593  1.00  0.00    -0.186 OA 
BRANCH  15  17
HETATM   17  O   UNL     1      -9.306   2.994  67.990  1.00  0.00    -0.190 OA 
BRANCH  17  18
HETATM   18  C   UNL     1      -8.470   2.237  68.874  1.00  0.00    -0.059 C  
HETATM   19  C   UNL     1      -7.199   1.882  68.123  1.00  0.00    -0.043 C  
ENDBRANCH  17  18
ENDBRANCH  15  17
ENDBRANCH   7  15
ENDBRANCH   6   7
ENDBRANCH   4   6
ENDBRANCH   3   4
ENDBRANCH   2   3
TORSDOF 11
ENDMDL
MODEL      383
REMARK 921   NORMALIZED FREE ENERGY PREDICTED BY IDOCK:   -1.89 KCAL/MOL
REMARK 922        TOTAL FREE ENERGY PREDICTED BY IDOCK:   -3.80 KCAL/MOL
REMARK 923 INTER-LIGAND FREE ENERGY PREDICTED BY IDOCK:   -3.15 KCAL/MOL
REMARK 924 INTRA-LIGAND FREE ENERGY PREDICTED BY IDOCK:   -0.65 KCAL/MOL
REMARK 927      BINDING AFFINITY PREDICTED BY RF-SCORE:    0.00 PKD
ROOT
HETATM    1  C   UNL     1     -10.851   2.681  62.961  1.00  0.00    -0.219 C  
HETATM    2  C   UNL     1     -10.105   3.157  64.196  1.00  0.00    -0.155 C  
ENDROOT
BRANCH   2   3
HETATM    3  O   UNL     1      -9.203   4.190  63.782  1.00  0.00    -0.135 OA 
BRANCH   3   4
HETATM    4  C   UNL     1      -8.826   5.070  64.742  1.00  0.00    -0.128 C  
HETATM    5  O   UNL     1      -8.041   6.000  64.602  1.00  0.00    -0.129 OA 
BRANCH   4   6
HETATM    6  C   UNL     1      -9.666   4.870  65.971  1.00  0.00    -0.200 C  
BRANCH   6   7
HETATM    7  C   UNL     1      -9.367   5.928  67.022  1.00  0.00    -0.120 C  
BRANCH   7   8
HETATM    8  S   UNL     1     -10.661   7.235  67.130  1.00  0.00    -0.339 SA 
BRANCH   8   9
HETATM    9  P   UNL     1      -9.944   8.765  68.410  1.00  0.00    -0.190 P  
HETATM   10  S   UNL     1      -8.166   8.906  67.438  1.00  0.00    -0.108 S  
BRANCH   9  11
HETATM   11  O   UNL     1     -11.055   9.863  67.852  1.00  0.00    -0.262 OA 
HETATM   12  C   UNL     1     -11.566  10.915  68.660  1.00  0.00    -0.303 C  
ENDBRANCH   9  11
BRANCH   9  13
HETATM   13  O   UNL     1      -9.358  10.014  69.455  1.00  0.00    -0.207 OA 
HETATM   14  C   UNL     1      -7.981  10.309  69.331  1.00  0.00    -0.159 C  
ENDBRANCH   9  13
ENDBRANCH   8   9
ENDBRANCH   7   8
BRANCH   7  15
HETATM   15  C   UNL     1      -9.318   5.261  68.391  1.00  0.00    -0.118 C  
HETATM   16  O   UNL     1     -10.244   4.642  68.898  1.00  0.00    -0.102 OA 
BRANCH  15  17
HETATM   17  O   UNL     1      -8.134   5.543  69.005  1.00  0.00    -0.093 OA 
BRANCH  17  18
HETATM   18  C   UNL     1      -8.250   6.260  70.241  1.00  0.00    -0.125 C  
HETATM   19  C   UNL     1      -6.861   6.717  70.645  1.00  0.00    -0.058 C  
ENDBRANCH  17  18
ENDBRANCH  15  17
ENDBRANCH   7  15
ENDBRANCH   6   7
ENDBRANCH   4   6
ENDBRANCH   3   4
ENDBRANCH   2   3
TORSDOF 11
ENDMDL
MODEL      384
REMARK 921   NORMALIZED FREE ENERGY PREDICTED BY IDOCK:   -1.89 KCAL/MOL
REMARK 922        TOTAL FREE ENERGY PREDICTED BY IDOCK:   -3.80 KCAL/MOL
REMARK 923 INTER-LIGAND FREE ENERGY PREDICTED BY IDOCK:   -3.14 KCAL/MOL
REMARK 924 INTRA-LIGAND FREE ENERGY PREDICTED BY IDOCK:   -0.66 KCAL/MOL
REMARK 927      BINDING AFFINITY PREDICTED BY RF-SCORE:    0.00 PKD
ROOT
HETATM    1  C   UNL     1      -9.688   9.597  70.562  1.00  0.00    -0.280 C  
HETATM    2  C   UNL     1      -8.836   9.486  69.309  1.00  0.00    -0.153 C  
ENDROOT
BRANCH   2   3
HETATM    3  O   UNL     1      -8.433  10.811  68.943  1.00  0.00    -0.144 OA 
BRANCH   3   4
HETATM    4  C   UNL     1      -7.868  10.944  67.717  1.00  0.00    -0.109 C  
HETATM    5  O   UNL     1      -6.676  10.839  67.457  1.00  0.00    -0.070 OA 
BRANCH   4   6
HETATM    6  C   UNL     1      -8.942  11.044  66.673  1.00  0.00    -0.176 C  
BRANCH   6   7
HETATM    7  C   UNL     1      -8.669  10.101  65.510  1.00  0.00    -0.158 C  
BRANCH   7   8
HETATM    8  S   UNL     1      -9.109   8.349  65.873  1.00  0.00    -0.137 SA 
BRANCH   8   9
HETATM    9  P   UNL     1      -7.661   7.104  64.953  1.00  0.00    -0.126 P  
HETATM   10  S   UNL     1      -6.474   8.669  64.436  1.00  0.00    -0.067 S  
BRANCH   9  11
HETATM   11  O   UNL     1      -7.212   6.423  66.397  1.00  0.00    -0.070 OA 
HETATM   12  C   UNL     1      -6.325   7.063  67.304  1.00  0.00    -0.052 C  
ENDBRANCH   9  11
BRANCH   9  13
HETATM   13  O   UNL     1      -6.480   6.088  64.202  1.00  0.00    -0.032 OA 
HETATM   14  C   UNL     1      -6.701   4.698  64.341  1.00  0.00    -0.044 C  
ENDBRANCH   9  13
ENDBRANCH   8   9
ENDBRANCH   7   8
BRANCH   7  15
HETATM   15  C   UNL     1      -9.530  10.521  64.325  1.00  0.00    -0.285 C  
HETATM   16  O   UNL     1      -9.552   9.951  63.242  1.00  0.00    -0.204 OA 
BRANCH  15  17
HETATM   17  O   UNL     1     -10.188  11.679  64.615  1.00  0.00    -0.253 OA 
BRANCH  17  18
HETATM   18  C   UNL     1     -11.617  11.594  64.554  1.00  0.00    -0.154 C  
HETATM   19  C   UNL     1     -12.108  12.681  63.615  1.00  0.00    -0.632 C  
ENDBRANCH  17  18
ENDBRANCH  15  17
ENDBRANCH   7  15
ENDBRANCH   6   7
ENDBRANCH   4   6
ENDBRANCH   3   4
ENDBRANCH   2   3
TORSDOF 11
ENDMDL
MODEL      385
REMARK 921   NORMALIZED FREE ENERGY PREDICTED BY IDOCK:   -1.86 KCAL/MOL
REMARK 922        TOTAL FREE ENERGY PREDICTED BY IDOCK:   -3.76 KCAL/MOL
REMARK 923 INTER-LIGAND FREE ENERGY PREDICTED BY IDOCK:   -4.14 KCAL/MOL
REMARK 924 INTRA-LIGAND FREE ENERGY PREDICTED BY IDOCK:    0.38 KCAL/MOL
REMARK 927      BINDING AFFINITY PREDICTED BY RF-SCORE:    0.00 PKD
ROOT
HETATM    1  C   UNL     1      -6.775  19.785  67.672  1.00  0.00    -0.268 C  
HETATM    2  C   UNL     1      -7.922  19.429  68.602  1.00  0.00    -0.368 C  
ENDROOT
BRANCH   2   3
HETATM    3  O   UNL     1      -9.076  19.187  67.789  1.00  0.00    -0.289 OA 
BRANCH   3   4
HETATM    4  C   UNL     1      -9.228  17.919  67.333  1.00  0.00    -0.253 C  
HETATM    5  O   UNL     1      -9.174  17.561  66.162  1.00  0.00    -0.441 OA 
BRANCH   4   6
HETATM    6  C   UNL     1      -9.276  16.966  68.492  1.00  0.00    -0.260 C  
BRANCH   6   7
HETATM    7  C   UNL     1      -8.412  15.740  68.234  1.00  0.00    -0.164 C  
BRANCH   7   8
HETATM    8  S   UNL     1      -8.672  15.002  66.566  1.00  0.00    -0.125 SA 
BRANCH   8   9
HETATM    9  P   UNL     1      -9.299  12.994  66.827  1.00  0.00    -0.204 P  
HETATM   10  S   UNL     1      -7.716  12.533  68.014  1.00  0.00    -0.154 S  
BRANCH   9  11
HETATM   11  O   UNL     1     -10.634  13.440  67.704  1.00  0.00    -0.239 OA 
HETATM   12  C   UNL     1     -11.907  12.834  67.524  1.00  0.00    -0.343 C  
ENDBRANCH   9  11
BRANCH   9  13
HETATM   13  O   UNL     1      -9.809  11.355  67.040  1.00  0.00    -0.188 OA 
HETATM   14  C   UNL     1      -8.815  10.469  67.517  1.00  0.00    -0.131 C  
ENDBRANCH   9  13
ENDBRANCH   8   9
ENDBRANCH   7   8
BRANCH   7  15
HETATM   15  C   UNL     1      -6.946  16.151  68.295  1.00  0.00    -0.124 C  
HETATM   16  O   UNL     1      -6.278  16.498  67.331  1.00  0.00    -0.132 OA 
BRANCH  15  17
HETATM   17  O   UNL     1      -6.465  15.975  69.559  1.00  0.00    -0.168 OA 
BRANCH  17  18
HETATM   18  C   UNL     1      -5.605  14.842  69.726  1.00  0.00    -0.100 C  
HETATM   19  C   UNL     1      -5.924  14.210  71.069  1.00  0.00    -0.187 C  
ENDBRANCH  17  18
ENDBRANCH  15  17
ENDBRANCH   7  15
ENDBRANCH   6   7
ENDBRANCH   4   6
ENDBRANCH   3   4
ENDBRANCH   2   3
TORSDOF 11
ENDMDL
MODEL      386
REMARK 921   NORMALIZED FREE ENERGY PREDICTED BY IDOCK:   -1.82 KCAL/MOL
REMARK 922        TOTAL FREE ENERGY PREDICTED BY IDOCK:   -3.69 KCAL/MOL
REMARK 923 INTER-LIGAND FREE ENERGY PREDICTED BY IDOCK:   -2.95 KCAL/MOL
REMARK 924 INTRA-LIGAND FREE ENERGY PREDICTED BY IDOCK:   -0.74 KCAL/MOL
REMARK 927      BINDING AFFINITY PREDICTED BY RF-SCORE:    0.00 PKD
ROOT
HETATM    1  C   UNL     1     -10.819   3.874  73.775  1.00  0.00    -0.326 C  
HETATM    2  C   UNL     1     -10.411   3.866  72.312  1.00  0.00    -0.032 C  
ENDROOT
BRANCH   2   3
HETATM    3  O   UNL     1      -9.926   5.176  71.993  1.00  0.00    -0.174 OA 
BRANCH   3   4
HETATM    4  C   UNL     1     -10.709   5.916  71.170  1.00  0.00    -0.265 C  
HETATM    5  O   UNL     1     -11.847   6.302  71.409  1.00  0.00    -0.304 OA 
BRANCH   4   6
HETATM    6  C   UNL     1      -9.908   6.374  69.985  1.00  0.00    -0.193 C  
BRANCH   6   7
HETATM    7  C   UNL     1      -8.499   5.798  70.017  1.00  0.00    -0.124 C  
BRANCH   7   8
HETATM    8  S   UNL     1      -7.897   5.253  68.364  1.00  0.00    -0.087 SA 
BRANCH   8   9
HETATM    9  P   UNL     1      -8.501   6.698  66.935  1.00  0.00    -0.119 P  
HETATM   10  S   UNL     1      -6.609   6.982  66.252  1.00  0.00    -0.053 S  
BRANCH   9  11
HETATM   11  O   UNL     1      -9.333   5.579  66.037  1.00  0.00    -0.159 OA 
HETATM   12  C   UNL     1     -10.656   5.169  66.357  1.00  0.00    -0.276 C  
ENDBRANCH   9  11
BRANCH   9  13
HETATM   13  O   UNL     1      -8.993   7.878  65.770  1.00  0.00    -0.155 OA 
HETATM   14  C   UNL     1      -9.851   8.889  66.259  1.00  0.00    -0.285 C  
ENDBRANCH   9  13
ENDBRANCH   8   9
ENDBRANCH   7   8
BRANCH   7  15
HETATM   15  C   UNL     1      -7.537   6.881  70.486  1.00  0.00    -0.091 C  
HETATM   16  O   UNL     1      -6.439   6.672  70.984  1.00  0.00    -0.047 OA 
BRANCH  15  17
HETATM   17  O   UNL     1      -8.121   8.108  70.366  1.00  0.00    -0.103 OA 
BRANCH  17  18
HETATM   18  C   UNL     1      -7.230   9.219  70.520  1.00  0.00    -0.110 C  
HETATM   19  C   UNL     1      -6.817   9.680  69.134  1.00  0.00    -0.050 C  
ENDBRANCH  17  18
ENDBRANCH  15  17
ENDBRANCH   7  15
ENDBRANCH   6   7
ENDBRANCH   4   6
ENDBRANCH   3   4
ENDBRANCH   2   3
TORSDOF 11
ENDMDL
MODEL      387
REMARK 921   NORMALIZED FREE ENERGY PREDICTED BY IDOCK:   -1.78 KCAL/MOL
REMARK 922        TOTAL FREE ENERGY PREDICTED BY IDOCK:   -3.62 KCAL/MOL
REMARK 923 INTER-LIGAND FREE ENERGY PREDICTED BY IDOCK:   -2.80 KCAL/MOL
REMARK 924 INTRA-LIGAND FREE ENERGY PREDICTED BY IDOCK:   -0.82 KCAL/MOL
REMARK 927      BINDING AFFINITY PREDICTED BY RF-SCORE:    0.00 PKD
ROOT
HETATM    1  C   UNL     1      -7.272  15.153  69.358  1.00  0.00    -0.198 C  
HETATM    2  C   UNL     1      -7.918  14.861  68.015  1.00  0.00    -0.129 C  
ENDROOT
BRANCH   2   3
HETATM    3  O   UNL     1      -8.526  13.567  68.100  1.00  0.00    -0.157 OA 
BRANCH   3   4
HETATM    4  C   UNL     1      -8.076  12.639  67.219  1.00  0.00    -0.178 C  
HETATM    5  O   UNL     1      -6.904  12.375  66.984  1.00  0.00    -0.117 OA 
BRANCH   4   6
HETATM    6  C   UNL     1      -9.231  11.829  66.705  1.00  0.00    -0.201 C  
BRANCH   6   7
HETATM    7  C   UNL     1      -8.753  10.536  66.058  1.00  0.00    -0.164 C  
BRANCH   7   8
HETATM    8  S   UNL     1      -9.810   9.083  66.463  1.00  0.00    -0.284 SA 
BRANCH   8   9
HETATM    9  P   UNL     1      -8.717   7.818  67.766  1.00  0.00    -0.121 P  
HETATM   10  S   UNL     1      -6.922   8.539  67.148  1.00  0.00    -0.075 S  
BRANCH   9  11
HETATM   11  O   UNL     1      -9.276   8.596  69.120  1.00  0.00    -0.151 OA 
HETATM   12  C   UNL     1      -8.566   9.659  69.741  1.00  0.00    -0.199 C  
ENDBRANCH   9  11
BRANCH   9  13
HETATM   13  O   UNL     1      -7.825   6.785  68.828  1.00  0.00    -0.107 OA 
HETATM   14  C   UNL     1      -8.606   5.904  69.612  1.00  0.00    -0.121 C  
ENDBRANCH   9  13
ENDBRANCH   8   9
ENDBRANCH   7   8
BRANCH   7  15
HETATM   15  C   UNL     1      -8.807  10.696  64.544  1.00  0.00    -0.176 C  
HETATM   16  O   UNL     1      -9.365  11.614  63.959  1.00  0.00    -0.093 OA 
BRANCH  15  17
HETATM   17  O   UNL     1      -8.235   9.615  63.940  1.00  0.00    -0.137 OA 
BRANCH  17  18
HETATM   18  C   UNL     1      -8.950   9.106  62.808  1.00  0.00    -0.047 C  
HETATM   19  C   UNL     1      -8.244   7.847  62.339  1.00  0.00    -0.141 C  
ENDBRANCH  17  18
ENDBRANCH  15  17
ENDBRANCH   7  15
ENDBRANCH   6   7
ENDBRANCH   4   6
ENDBRANCH   3   4
ENDBRANCH   2   3
TORSDOF 11
ENDMDL
MODEL      388
REMARK 921   NORMALIZED FREE ENERGY PREDICTED BY IDOCK:   -1.77 KCAL/MOL
REMARK 922        TOTAL FREE ENERGY PREDICTED BY IDOCK:   -3.61 KCAL/MOL
REMARK 923 INTER-LIGAND FREE ENERGY PREDICTED BY IDOCK:   -3.53 KCAL/MOL
REMARK 924 INTRA-LIGAND FREE ENERGY PREDICTED BY IDOCK:   -0.08 KCAL/MOL
REMARK 927      BINDING AFFINITY PREDICTED BY RF-SCORE:    0.00 PKD
ROOT
HETATM    1  C   UNL     1      -6.068  15.726  69.843  1.00  0.00    -0.166 C  
HETATM    2  C   UNL     1      -7.266  15.600  68.919  1.00  0.00    -0.146 C  
ENDROOT
BRANCH   2   3
HETATM    3  O   UNL     1      -7.761  14.261  69.033  1.00  0.00    -0.125 OA 
BRANCH   3   4
HETATM    4  C   UNL     1      -7.460  13.425  68.009  1.00  0.00    -0.139 C  
HETATM    5  O   UNL     1      -6.521  12.640  67.969  1.00  0.00    -0.071 OA 
BRANCH   4   6
HETATM    6  C   UNL     1      -8.565  13.452  66.993  1.00  0.00    -0.168 C  
BRANCH   6   7
HETATM    7  C   UNL     1      -9.307  12.124  66.951  1.00  0.00    -0.203 C  
BRANCH   7   8
HETATM    8  S   UNL     1      -8.915  11.024  68.376  1.00  0.00    -0.162 SA 
BRANCH   8   9
HETATM    9  P   UNL     1      -8.016   9.261  67.617  1.00  0.00    -0.103 P  
HETATM   10  S   UNL     1      -6.697   9.132  69.155  1.00  0.00    -0.050 S  
BRANCH   9  11
HETATM   11  O   UNL     1      -9.381   8.356  67.881  1.00  0.00    -0.135 OA 
HETATM   12  C   UNL     1     -10.472   8.330  66.971  1.00  0.00    -0.314 C  
ENDBRANCH   9  11
BRANCH   9  13
HETATM   13  O   UNL     1      -7.282   7.822  66.998  1.00  0.00    -0.085 OA 
HETATM   14  C   UNL     1      -6.520   7.082  67.931  1.00  0.00    -0.051 C  
ENDBRANCH   9  13
ENDBRANCH   8   9
ENDBRANCH   7   8
BRANCH   7  15
HETATM   15  C   UNL     1     -10.804  12.396  67.021  1.00  0.00    -0.246 C  
HETATM   16  O   UNL     1     -11.416  12.673  68.043  1.00  0.00    -0.274 OA 
BRANCH  15  17
HETATM   17  O   UNL     1     -11.374  12.184  65.800  1.00  0.00    -0.330 OA 
BRANCH  17  18
HETATM   18  C   UNL     1     -11.555  13.361  65.005  1.00  0.00    -0.317 C  
HETATM   19  C   UNL     1     -12.883  13.986  65.393  1.00  0.00    -0.442 C  
ENDBRANCH  17  18
ENDBRANCH  15  17
ENDBRANCH   7  15
ENDBRANCH   6   7
ENDBRANCH   4   6
ENDBRANCH   3   4
ENDBRANCH   2   3
TORSDOF 11
ENDMDL
MODEL      389
REMARK 921   NORMALIZED FREE ENERGY PREDICTED BY IDOCK:   -1.70 KCAL/MOL
REMARK 922        TOTAL FREE ENERGY PREDICTED BY IDOCK:   -3.50 KCAL/MOL
REMARK 923 INTER-LIGAND FREE ENERGY PREDICTED BY IDOCK:   -2.63 KCAL/MOL
REMARK 924 INTRA-LIGAND FREE ENERGY PREDICTED BY IDOCK:   -0.86 KCAL/MOL
REMARK 927      BINDING AFFINITY PREDICTED BY RF-SCORE:    0.00 PKD
ROOT
HETATM    1  C   UNL     1      -9.095   9.341  70.885  1.00  0.00    -0.288 C  
HETATM    2  C   UNL     1      -8.962   9.198  69.379  1.00  0.00    -0.147 C  
ENDROOT
BRANCH   2   3
HETATM    3  O   UNL     1      -8.581  10.476  68.857  1.00  0.00    -0.137 OA 
BRANCH   3   4
HETATM    4  C   UNL     1      -8.907  10.711  67.561  1.00  0.00    -0.132 C  
HETATM    5  O   UNL     1      -8.492  10.093  66.588  1.00  0.00    -0.125 OA 
BRANCH   4   6
HETATM    6  C   UNL     1     -10.016  11.721  67.493  1.00  0.00    -0.204 C  
BRANCH   6   7
HETATM    7  C   UNL     1      -9.552  13.084  67.988  1.00  0.00    -0.224 C  
BRANCH   7   8
HETATM    8  S   UNL     1      -8.044  13.697  67.125  1.00  0.00    -0.002 SA 
BRANCH   8   9
HETATM    9  P   UNL     1      -6.564  14.092  68.590  1.00  0.00    -0.115 P  
HETATM   10  S   UNL     1      -5.281  14.904  67.242  1.00  0.00     0.776 S  
BRANCH   9  11
HETATM   11  O   UNL     1      -7.498  15.239  69.340  1.00  0.00    -0.182 OA 
HETATM   12  C   UNL     1      -7.655  16.555  68.828  1.00  0.00    -0.219 C  
ENDBRANCH   9  11
BRANCH   9  13
HETATM   13  O   UNL     1      -5.355  14.414  69.786  1.00  0.00    -0.092 OA 
HETATM   14  C   UNL     1      -5.692  14.030  71.104  1.00  0.00    -0.223 C  
ENDBRANCH   9  13
ENDBRANCH   8   9
ENDBRANCH   7   8
BRANCH   7  15
HETATM   15  C   UNL     1     -10.647  14.105  67.711  1.00  0.00    -0.243 C  
HETATM   16  O   UNL     1     -10.824  15.130  68.355  1.00  0.00    -0.241 OA 
BRANCH  15  17
HETATM   17  O   UNL     1     -11.460  13.658  66.712  1.00  0.00    -0.320 OA 
BRANCH  17  18
HETATM   18  C   UNL     1     -11.603  14.554  65.603  1.00  0.00    -0.344 C  
HETATM   19  C   UNL     1     -12.846  14.146  64.832  1.00  0.00    -0.173 C  
ENDBRANCH  17  18
ENDBRANCH  15  17
ENDBRANCH   7  15
ENDBRANCH   6   7
ENDBRANCH   4   6
ENDBRANCH   3   4
ENDBRANCH   2   3
TORSDOF 11
ENDMDL
MODEL      390
REMARK 921   NORMALIZED FREE ENERGY PREDICTED BY IDOCK:   -1.64 KCAL/MOL
REMARK 922        TOTAL FREE ENERGY PREDICTED BY IDOCK:   -3.40 KCAL/MOL
REMARK 923 INTER-LIGAND FREE ENERGY PREDICTED BY IDOCK:   -2.71 KCAL/MOL
REMARK 924 INTRA-LIGAND FREE ENERGY PREDICTED BY IDOCK:   -0.69 KCAL/MOL
REMARK 927      BINDING AFFINITY PREDICTED BY RF-SCORE:    0.00 PKD
ROOT
HETATM    1  C   UNL     1      -9.749   7.347  72.986  1.00  0.00    -0.255 C  
HETATM    2  C   UNL     1     -10.174   5.963  72.529  1.00  0.00    -0.187 C  
ENDROOT
BRANCH   2   3
HETATM    3  O   UNL     1      -9.811   5.834  71.150  1.00  0.00    -0.172 OA 
BRANCH   3   4
HETATM    4  C   UNL     1     -10.605   6.482  70.262  1.00  0.00    -0.228 C  
HETATM    5  O   UNL     1     -11.792   6.747  70.413  1.00  0.00    -0.376 OA 
BRANCH   4   6
HETATM    6  C   UNL     1      -9.772   7.014  69.132  1.00  0.00    -0.156 C  
BRANCH   6   7
HETATM    7  C   UNL     1      -8.478   7.630  69.644  1.00  0.00    -0.135 C  
BRANCH   7   8
HETATM    8  S   UNL     1      -7.026   7.278  68.566  1.00  0.00    -0.081 SA 
BRANCH   8   9
HETATM    9  P   UNL     1      -7.688   7.278  66.552  1.00  0.00    -0.097 P  
HETATM   10  S   UNL     1      -6.457   8.805  66.026  1.00  0.00    -0.057 S  
BRANCH   9  11
HETATM   11  O   UNL     1      -7.014   5.793  66.247  1.00  0.00    -0.057 OA 
HETATM   12  C   UNL     1      -5.647   5.504  66.505  1.00  0.00    -0.017 C  
ENDBRANCH   9  11
BRANCH   9  13
HETATM   13  O   UNL     1      -8.228   7.279  64.909  1.00  0.00    -0.130 OA 
HETATM   14  C   UNL     1      -7.492   8.108  64.031  1.00  0.00    -0.115 C  
ENDBRANCH   9  13
ENDBRANCH   8   9
ENDBRANCH   7   8
BRANCH   7  15
HETATM   15  C   UNL     1      -8.632   9.145  69.671  1.00  0.00    -0.143 C  
HETATM   16  O   UNL     1      -9.665   9.736  69.957  1.00  0.00    -0.229 OA 
BRANCH  15  17
HETATM   17  O   UNL     1      -7.486   9.739  69.231  1.00  0.00    -0.077 OA 
BRANCH  17  18
HETATM   18  C   UNL     1      -6.879  10.645  70.160  1.00  0.00    -0.113 C  
HETATM   19  C   UNL     1      -5.880   9.860  70.990  1.00  0.00    -0.082 C  
ENDBRANCH  17  18
ENDBRANCH  15  17
ENDBRANCH   7  15
ENDBRANCH   6   7
ENDBRANCH   4   6
ENDBRANCH   3   4
ENDBRANCH   2   3
TORSDOF 11
ENDMDL
MODEL      391
REMARK 921   NORMALIZED FREE ENERGY PREDICTED BY IDOCK:   -1.56 KCAL/MOL
REMARK 922        TOTAL FREE ENERGY PREDICTED BY IDOCK:   -3.26 KCAL/MOL
REMARK 923 INTER-LIGAND FREE ENERGY PREDICTED BY IDOCK:   -2.38 KCAL/MOL
REMARK 924 INTRA-LIGAND FREE ENERGY PREDICTED BY IDOCK:   -0.88 KCAL/MOL
REMARK 927      BINDING AFFINITY PREDICTED BY RF-SCORE:    0.00 PKD
ROOT
HETATM    1  C   UNL     1      -9.239   9.238  70.435  1.00  0.00    -0.291 C  
HETATM    2  C   UNL     1      -8.533   7.952  70.044  1.00  0.00    -0.134 C  
ENDROOT
BRANCH   2   3
HETATM    3  O   UNL     1      -7.181   8.287  69.709  1.00  0.00    -0.058 OA 
BRANCH   3   4
HETATM    4  C   UNL     1      -6.626   7.579  68.694  1.00  0.00    -0.053 C  
HETATM    5  O   UNL     1      -6.265   6.409  68.743  1.00  0.00    -0.027 OA 
BRANCH   4   6
HETATM    6  C   UNL     1      -6.695   8.376  67.424  1.00  0.00    -0.063 C  
BRANCH   6   7
HETATM    7  C   UNL     1      -7.238   7.537  66.276  1.00  0.00    -0.074 C  
BRANCH   7   8
HETATM    8  S   UNL     1      -9.022   7.117  66.461  1.00  0.00    -0.155 SA 
BRANCH   8   9
HETATM    9  P   UNL     1      -9.343   5.214  65.584  1.00  0.00    -0.049 P  
HETATM   10  S   UNL     1      -7.397   4.668  65.778  1.00  0.00    -0.078 S  
BRANCH   9  11
HETATM   11  O   UNL     1     -10.273   4.695  66.855  1.00  0.00    -0.213 OA 
HETATM   12  C   UNL     1     -10.175   5.258  68.157  1.00  0.00    -0.140 C  
ENDBRANCH   9  11
BRANCH   9  13
HETATM   13  O   UNL     1      -9.604   3.661  64.867  1.00  0.00    -0.157 OA 
HETATM   14  C   UNL     1      -9.172   3.534  63.526  1.00  0.00    -0.101 C  
ENDBRANCH   9  13
ENDBRANCH   8   9
ENDBRANCH   7   8
BRANCH   7  15
HETATM   15  C   UNL     1      -7.120   8.338  64.985  1.00  0.00    -0.075 C  
HETATM   16  O   UNL     1      -6.546   7.953  63.976  1.00  0.00    -0.060 OA 
BRANCH  15  17
HETATM   17  O   UNL     1      -7.656   9.580  65.156  1.00  0.00    -0.105 OA 
BRANCH  17  18
HETATM   18  C   UNL     1      -8.356  10.098  64.018  1.00  0.00    -0.172 C  
HETATM   19  C   UNL     1      -9.810  10.284  64.412  1.00  0.00    -0.374 C  
ENDBRANCH  17  18
ENDBRANCH  15  17
ENDBRANCH   7  15
ENDBRANCH   6   7
ENDBRANCH   4   6
ENDBRANCH   3   4
ENDBRANCH   2   3
TORSDOF 11
ENDMDL
MODEL      392
REMARK 921   NORMALIZED FREE ENERGY PREDICTED BY IDOCK:   -1.35 KCAL/MOL
REMARK 922        TOTAL FREE ENERGY PREDICTED BY IDOCK:   -2.92 KCAL/MOL
REMARK 923 INTER-LIGAND FREE ENERGY PREDICTED BY IDOCK:   -2.53 KCAL/MOL
REMARK 924 INTRA-LIGAND FREE ENERGY PREDICTED BY IDOCK:   -0.39 KCAL/MOL
REMARK 927      BINDING AFFINITY PREDICTED BY RF-SCORE:    0.00 PKD
ROOT
HETATM    1  C   UNL     1     -10.479   6.165  71.801  1.00  0.00    -0.259 C  
HETATM    2  C   UNL     1     -10.195   6.556  70.362  1.00  0.00    -0.193 C  
ENDROOT
BRANCH   2   3
HETATM    3  O   UNL     1      -9.984   7.973  70.334  1.00  0.00    -0.187 OA 
BRANCH   3   4
HETATM    4  C   UNL     1      -8.754   8.398  70.716  1.00  0.00    -0.150 C  
HETATM    5  O   UNL     1      -8.516   9.323  71.484  1.00  0.00    -0.320 OA 
BRANCH   4   6
HETATM    6  C   UNL     1      -7.710   7.443  70.216  1.00  0.00    -0.093 C  
BRANCH   6   7
HETATM    7  C   UNL     1      -7.549   7.542  68.705  1.00  0.00    -0.106 C  
BRANCH   7   8
HETATM    8  S   UNL     1      -6.856   9.156  68.151  1.00  0.00    -0.069 SA 
BRANCH   8   9
HETATM    9  P   UNL     1      -7.537   9.519  66.176  1.00  0.00    -0.103 P  
HETATM   10  S   UNL     1      -9.178   8.344  66.402  1.00  0.00    -0.214 S  
BRANCH   9  11
HETATM   11  O   UNL     1      -7.856  11.115  66.494  1.00  0.00    -0.150 OA 
HETATM   12  C   UNL     1      -6.935  11.963  67.165  1.00  0.00    -0.142 C  
ENDBRANCH   9  11
BRANCH   9  13
HETATM   13  O   UNL     1      -8.092   9.815  64.564  1.00  0.00    -0.130 OA 
HETATM   14  C   UNL     1      -7.076  10.033  63.605  1.00  0.00    -0.126 C  
ENDBRANCH   9  13
ENDBRANCH   8   9
ENDBRANCH   7   8
BRANCH   7  15
HETATM   15  C   UNL     1      -6.566   6.474  68.245  1.00  0.00    -0.059 C  
HETATM   16  O   UNL     1      -5.366   6.480  68.485  1.00  0.00    -0.010 OA 
BRANCH  15  17
HETATM   17  O   UNL     1      -7.199   5.571  67.443  1.00  0.00    -0.072 OA 
BRANCH  17  18
HETATM   18  C   UNL     1      -7.458   4.300  68.051  1.00  0.00    -0.068 C  
HETATM   19  C   UNL     1      -8.146   3.423  67.021  1.00  0.00    -0.083 C  
ENDBRANCH  17  18
ENDBRANCH  15  17
ENDBRANCH   7  15
ENDBRANCH   6   7
ENDBRANCH   4   6
ENDBRANCH   3   4
ENDBRANCH   2   3
TORSDOF 11
ENDMDL
MODEL      393
REMARK 921   NORMALIZED FREE ENERGY PREDICTED BY IDOCK:   -1.17 KCAL/MOL
REMARK 922        TOTAL FREE ENERGY PREDICTED BY IDOCK:   -2.62 KCAL/MOL
REMARK 923 INTER-LIGAND FREE ENERGY PREDICTED BY IDOCK:   -1.75 KCAL/MOL
REMARK 924 INTRA-LIGAND FREE ENERGY PREDICTED BY IDOCK:   -0.87 KCAL/MOL
REMARK 927      BINDING AFFINITY PREDICTED BY RF-SCORE:    0.00 PKD
ROOT
HETATM    1  C   UNL     1      -8.047   9.075  70.046  1.00  0.00    -0.124 C  
HETATM    2  C   UNL     1      -7.756   7.584  70.078  1.00  0.00    -0.094 C  
ENDROOT
BRANCH   2   3
HETATM    3  O   UNL     1      -6.363   7.410  69.793  1.00  0.00    -0.030 OA 
BRANCH   3   4
HETATM    4  C   UNL     1      -6.027   6.268  69.144  1.00  0.00    -0.021 C  
HETATM    5  O   UNL     1      -6.157   5.128  69.572  1.00  0.00    -0.020 OA 
BRANCH   4   6
HETATM    6  C   UNL     1      -5.648   6.585  67.726  1.00  0.00    -0.008 C  
BRANCH   6   7
HETATM    7  C   UNL     1      -6.575   5.890  66.739  1.00  0.00    -0.056 C  
BRANCH   7   8
HETATM    8  S   UNL     1      -8.180   6.764  66.505  1.00  0.00    -0.121 SA 
BRANCH   8   9
HETATM    9  P   UNL     1      -9.619   5.339  65.880  1.00  0.00    -0.033 P  
HETATM   10  S   UNL     1      -8.835   3.866  67.037  1.00  0.00    -0.136 S  
BRANCH   9  11
HETATM   11  O   UNL     1     -10.859   6.140  66.636  1.00  0.00    -0.294 OA 
HETATM   12  C   UNL     1     -10.655   7.320  67.401  1.00  0.00    -0.300 C  
ENDBRANCH   9  11
BRANCH   9  13
HETATM   13  O   UNL     1     -10.793   4.175  65.369  1.00  0.00    -0.107 OA 
HETATM   14  C   UNL     1     -10.496   3.508  64.158  1.00  0.00    -0.219 C  
ENDBRANCH   9  13
ENDBRANCH   8   9
ENDBRANCH   7   8
BRANCH   7  15
HETATM   15  C   UNL     1      -5.903   5.858  65.373  1.00  0.00    -0.024 C  
HETATM   16  O   UNL     1      -5.751   4.852  64.693  1.00  0.00    -0.016 OA 
BRANCH  15  17
HETATM   17  O   UNL     1      -5.406   7.091  65.069  1.00  0.00    -0.026 OA 
BRANCH  17  18
HETATM   18  C   UNL     1      -5.428   7.426  63.676  1.00  0.00    -0.037 C  
HETATM   19  C   UNL     1      -6.063   8.797  63.537  1.00  0.00    -0.081 C  
ENDBRANCH  17  18
ENDBRANCH  15  17
ENDBRANCH   7  15
ENDBRANCH   6   7
ENDBRANCH   4   6
ENDBRANCH   3   4
ENDBRANCH   2   3
TORSDOF 11
ENDMDL
MODEL      394
REMARK 921   NORMALIZED FREE ENERGY PREDICTED BY IDOCK:   -0.49 KCAL/MOL
REMARK 922        TOTAL FREE ENERGY PREDICTED BY IDOCK:   -1.50 KCAL/MOL
REMARK 923 INTER-LIGAND FREE ENERGY PREDICTED BY IDOCK:   -3.03 KCAL/MOL
REMARK 924 INTRA-LIGAND FREE ENERGY PREDICTED BY IDOCK:    1.52 KCAL/MOL
REMARK 927      BINDING AFFINITY PREDICTED BY RF-SCORE:    0.00 PKD
ROOT
HETATM    1  C   UNL     1      -9.438   9.983  64.140  1.00  0.00    -0.314 C  
HETATM    2  C   UNL     1     -10.090  10.744  65.282  1.00  0.00    -0.290 C  
ENDROOT
BRANCH   2   3
HETATM    3  O   UNL     1      -9.778  10.050  66.496  1.00  0.00    -0.180 OA 
BRANCH   3   4
HETATM    4  C   UNL     1      -8.483   9.682  66.654  1.00  0.00    -0.123 C  
HETATM    5  O   UNL     1      -7.517  10.434  66.698  1.00  0.00    -0.105 OA 
BRANCH   4   6
HETATM    6  C   UNL     1      -8.409   8.216  66.972  1.00  0.00    -0.116 C  
BRANCH   6   7
HETATM    7  C   UNL     1      -9.621   7.764  67.774  1.00  0.00    -0.146 C  
BRANCH   7   8
HETATM    8  S   UNL     1     -10.336   6.174  67.181  1.00  0.00    -0.267 SA 
BRANCH   8   9
HETATM    9  P   UNL     1      -8.805   4.709  67.223  1.00  0.00    -0.110 P  
HETATM   10  S   UNL     1      -7.424   5.963  66.420  1.00  0.00    -0.084 S  
BRANCH   9  11
HETATM   11  O   UNL     1      -8.754   4.694  68.881  1.00  0.00    -0.087 OA 
HETATM   12  C   UNL     1      -8.153   3.640  69.621  1.00  0.00    -0.053 C  
ENDBRANCH   9  11
BRANCH   9  13
HETATM   13  O   UNL     1      -7.555   3.513  67.257  1.00  0.00    -0.076 OA 
HETATM   14  C   UNL     1      -6.512   3.702  66.320  1.00  0.00    -0.037 C  
ENDBRANCH   9  13
ENDBRANCH   8   9
ENDBRANCH   7   8
BRANCH   7  15
HETATM   15  C   UNL     1      -9.195   7.529  69.217  1.00  0.00    -0.144 C  
HETATM   16  O   UNL     1      -8.052   7.652  69.636  1.00  0.00    -0.121 OA 
BRANCH  15  17
HETATM   17  O   UNL     1     -10.250   7.064  69.945  1.00  0.00    -0.194 OA 
BRANCH  17  18
HETATM   18  C   UNL     1     -11.059   8.078  70.554  1.00  0.00    -0.251 C  
HETATM   19  C   UNL     1     -10.976   7.897  72.059  1.00  0.00    -0.329 C  
ENDBRANCH  17  18
ENDBRANCH  15  17
ENDBRANCH   7  15
ENDBRANCH   6   7
ENDBRANCH   4   6
ENDBRANCH   3   4
ENDBRANCH   2   3
TORSDOF 11
ENDMDL
MODEL      395
REMARK 921   NORMALIZED FREE ENERGY PREDICTED BY IDOCK:    8.44 KCAL/MOL
REMARK 922        TOTAL FREE ENERGY PREDICTED BY IDOCK:   13.17 KCAL/MOL
REMARK 923 INTER-LIGAND FREE ENERGY PREDICTED BY IDOCK:    9.62 KCAL/MOL
REMARK 924 INTRA-LIGAND FREE ENERGY PREDICTED BY IDOCK:    3.55 KCAL/MOL
REMARK 927      BINDING AFFINITY PREDICTED BY RF-SCORE:    0.00 PKD
ROOT
HETATM    1  C   UNL     1      -8.338  19.452  66.350  1.00  0.00    -0.342 C  
HETATM    2  C   UNL     1      -7.051  18.796  65.883  1.00  0.00    -0.255 C  
ENDROOT
BRANCH   2   3
HETATM    3  O   UNL     1      -7.199  17.382  66.055  1.00  0.00    -0.297 OA 
BRANCH   3   4
HETATM    4  C   UNL     1      -6.230  16.765  66.774  1.00  0.00    -0.152 C  
HETATM    5  O   UNL     1      -5.154  16.367  66.344  1.00  0.00    -0.228 OA 
BRANCH   4   6
HETATM    6  C   UNL     1      -6.576  16.810  68.234  1.00  0.00    -0.152 C  
BRANCH   6   7
HETATM    7  C   UNL     1      -7.459  15.634  68.628  1.00  0.00    -0.130 C  
BRANCH   7   8
HETATM    8  S   UNL     1      -8.019  15.699  70.382  1.00  0.00     1.601 SA 
BRANCH   8   9
HETATM    9  P   UNL     1      -6.953  17.252  71.355  1.00  0.00     6.262 P  
HETATM   10  S   UNL     1      -5.167  16.304  71.163  1.00  0.00     0.005 S  
BRANCH   9  11
HETATM   11  O   UNL     1      -7.232  18.325  70.122  1.00  0.00     0.709 OA 
HETATM   12  C   UNL     1      -8.528  18.563  69.591  1.00  0.00     0.840 C  
ENDBRANCH   9  11
BRANCH   9  13
HETATM   13  O   UNL     1      -6.082  18.518  72.150  1.00  0.00     0.887 OA 
HETATM   14  C   UNL     1      -6.834  19.681  72.437  1.00  0.00     1.708 C  
ENDBRANCH   9  13
ENDBRANCH   8   9
ENDBRANCH   7   8
BRANCH   7  15
HETATM   15  C   UNL     1      -8.721  15.661  67.776  1.00  0.00    -0.170 C  
HETATM   16  O   UNL     1      -8.742  15.551  66.557  1.00  0.00    -0.267 OA 
BRANCH  15  17
HETATM   17  O   UNL     1      -9.806  15.927  68.557  1.00  0.00    -0.203 OA 
BRANCH  17  18
HETATM   18  C   UNL     1     -11.000  15.224  68.193  1.00  0.00    -0.292 C  
HETATM   19  C   UNL     1     -12.170  15.910  68.874  1.00  0.00     0.099 C  
ENDBRANCH  17  18
ENDBRANCH  15  17
ENDBRANCH   7  15
ENDBRANCH   6   7
ENDBRANCH   4   6
ENDBRANCH   3   4
ENDBRANCH   2   3
TORSDOF 11
ENDMDL
MODEL      396
REMARK 921   NORMALIZED FREE ENERGY PREDICTED BY IDOCK:    8.47 KCAL/MOL
REMARK 922        TOTAL FREE ENERGY PREDICTED BY IDOCK:   13.21 KCAL/MOL
REMARK 923 INTER-LIGAND FREE ENERGY PREDICTED BY IDOCK:   12.78 KCAL/MOL
REMARK 924 INTRA-LIGAND FREE ENERGY PREDICTED BY IDOCK:    0.44 KCAL/MOL
REMARK 927      BINDING AFFINITY PREDICTED BY RF-SCORE:    0.00 PKD
ROOT
HETATM    1  C   UNL     1      -9.555  15.000  73.148  1.00  0.00     7.402 C  
HETATM    2  C   UNL     1     -10.268  14.542  71.888  1.00  0.00     3.598 C  
ENDROOT
BRANCH   2   3
HETATM    3  O   UNL     1     -10.206  15.616  70.943  1.00  0.00     0.146 OA 
BRANCH   3   4
HETATM    4  C   UNL     1     -10.010  15.259  69.649  1.00  0.00    -0.228 C  
HETATM    5  O   UNL     1     -10.565  15.750  68.673  1.00  0.00    -0.234 OA 
BRANCH   4   6
HETATM    6  C   UNL     1      -8.858  14.301  69.557  1.00  0.00     0.552 C  
BRANCH   6   7
HETATM    7  C   UNL     1      -9.141  13.195  68.549  1.00  0.00    -0.053 C  
BRANCH   7   8
HETATM    8  S   UNL     1      -8.705  13.656  66.820  1.00  0.00    -0.003 SA 
BRANCH   8   9
HETATM    9  P   UNL     1      -9.590  12.236  65.518  1.00  0.00     0.068 P  
HETATM   10  S   UNL     1     -10.203  13.654  64.200  1.00  0.00     0.778 S  
BRANCH   9  11
HETATM   11  O   UNL     1      -8.123  11.583  65.103  1.00  0.00     0.470 OA 
HETATM   12  C   UNL     1      -7.822  10.204  65.269  1.00  0.00    -0.143 C  
ENDBRANCH   9  11
BRANCH   9  13
HETATM   13  O   UNL     1     -10.313  11.078  64.456  1.00  0.00    -0.315 OA 
HETATM   14  C   UNL     1      -9.971  11.214  63.091  1.00  0.00    -0.356 C  
ENDBRANCH   9  13
ENDBRANCH   8   9
ENDBRANCH   7   8
BRANCH   7  15
HETATM   15  C   UNL     1      -8.285  11.984  68.898  1.00  0.00     0.131 C  
HETATM   16  O   UNL     1      -7.196  11.733  68.399  1.00  0.00    -0.077 OA 
BRANCH  15  17
HETATM   17  O   UNL     1      -8.955  11.173  69.765  1.00  0.00     0.524 OA 
BRANCH  17  18
HETATM   18  C   UNL     1     -10.346  11.478  69.925  1.00  0.00     0.825 C  
HETATM   19  C   UNL     1     -11.084  10.940  68.713  1.00  0.00    -0.310 C  
ENDBRANCH  17  18
ENDBRANCH  15  17
ENDBRANCH   7  15
ENDBRANCH   6   7
ENDBRANCH   4   6
ENDBRANCH   3   4
ENDBRANCH   2   3
TORSDOF 11
ENDMDL
MODEL      397
REMARK 921   NORMALIZED FREE ENERGY PREDICTED BY IDOCK:   10.44 KCAL/MOL
REMARK 922        TOTAL FREE ENERGY PREDICTED BY IDOCK:   16.45 KCAL/MOL
REMARK 923 INTER-LIGAND FREE ENERGY PREDICTED BY IDOCK:   -1.02 KCAL/MOL
REMARK 924 INTRA-LIGAND FREE ENERGY PREDICTED BY IDOCK:   17.47 KCAL/MOL
REMARK 927      BINDING AFFINITY PREDICTED BY RF-SCORE:    0.00 PKD
ROOT
HETATM    1  C   UNL     1      -5.917  17.588  68.499  1.00  0.00    -0.167 C  
HETATM    2  C   UNL     1      -6.225  16.159  68.909  1.00  0.00    -0.132 C  
ENDROOT
BRANCH   2   3
HETATM    3  O   UNL     1      -6.707  15.472  67.748  1.00  0.00    -0.134 OA 
BRANCH   3   4
HETATM    4  C   UNL     1      -7.743  16.058  67.097  1.00  0.00    -0.207 C  
HETATM    5  O   UNL     1      -8.237  15.682  66.041  1.00  0.00     0.038 OA 
BRANCH   4   6
HETATM    6  C   UNL     1      -8.339  17.132  67.959  1.00  0.00    -0.218 C  
BRANCH   6   7
HETATM    7  C   UNL     1      -9.841  16.941  68.118  1.00  0.00    -0.264 C  
BRANCH   7   8
HETATM    8  S   UNL     1     -10.644  16.207  66.631  1.00  0.00    -0.230 SA 
BRANCH   8   9
HETATM    9  P   UNL     1     -10.580  14.097  66.824  1.00  0.00    -0.282 P  
HETATM   10  S   UNL     1     -12.289  14.029  67.919  1.00  0.00     0.219 S  
BRANCH   9  11
HETATM   11  O   UNL     1     -10.859  13.861  65.206  1.00  0.00    -0.304 OA 
HETATM   12  C   UNL     1     -11.660  12.795  64.714  1.00  0.00    -0.325 C  
ENDBRANCH   9  11
BRANCH   9  13
HETATM   13  O   UNL     1     -10.528  12.375  66.982  1.00  0.00    -0.219 OA 
HETATM   14  C   UNL     1     -11.729  11.702  66.660  1.00  0.00     0.018 C  
ENDBRANCH   9  13
ENDBRANCH   8   9
ENDBRANCH   7   8
BRANCH   7  15
HETATM   15  C   UNL     1     -10.093  15.969  69.263  1.00  0.00    -0.249 C  
HETATM   16  O   UNL     1      -9.912  16.222  70.446  1.00  0.00     0.361 OA 
BRANCH  15  17
HETATM   17  O   UNL     1     -10.448  14.749  68.769  1.00  0.00    -0.235 OA 
BRANCH  17  18
HETATM   18  C   UNL     1      -9.358  13.943  68.305  1.00  0.00    -0.209 C  
HETATM   19  C   UNL     1      -8.811  13.172  69.493  1.00  0.00     1.519 C  
ENDBRANCH  17  18
ENDBRANCH  15  17
ENDBRANCH   7  15
ENDBRANCH   6   7
ENDBRANCH   4   6
ENDBRANCH   3   4
ENDBRANCH   2   3
TORSDOF 11
ENDMDL
