MODEL        1
REMARK 921   NORMALIZED FREE ENERGY PREDICTED BY IDOCK:   -5.06 KCAL/MOL
REMARK 922        TOTAL FREE ENERGY PREDICTED BY IDOCK:   -5.39 KCAL/MOL
REMARK 923 INTER-LIGAND FREE ENERGY PREDICTED BY IDOCK:   -5.36 KCAL/MOL
REMARK 924 INTRA-LIGAND FREE ENERGY PREDICTED BY IDOCK:   -0.04 KCAL/MOL
REMARK 927      BINDING AFFINITY PREDICTED BY RF-SCORE:    0.00 PKD
ROOT
HETATM    1  O   UNL     1     -13.265  14.134  65.276  1.00  0.00    -0.760 OA 
HETATM    2  C   UNL     1     -12.144  14.082  64.390  1.00  0.00    -0.458 C  
HETATM    3  H   UNL     1     -13.768  13.338  65.149  1.00  0.00     0.000 HD 
HETATM    4  O   UNL     1     -10.446  15.342  65.622  1.00  0.00    -0.319 OA 
HETATM    5  C   UNL     1     -11.331  15.371  64.595  1.00  0.00    -0.355 C  
HETATM    6  O   UNL     1     -11.537  16.393  63.950  1.00  0.00    -1.100 OA 
ENDROOT
BRANCH   2   7
HETATM    7  C   UNL     1     -11.351  12.800  64.595  1.00  0.00    -0.362 A  
HETATM    8  C   UNL     1     -11.289  12.163  65.846  1.00  0.00    -0.407 A  
HETATM    9  C   UNL     1     -10.572  10.976  66.010  1.00  0.00    -0.275 A  
HETATM   10  C   UNL     1      -9.908  10.406  64.928  1.00  0.00    -0.400 A  
HETATM   11  C   UNL     1      -9.965  11.018  63.679  1.00  0.00    -0.415 A  
HETATM   12  C   UNL     1     -10.687  12.201  63.511  1.00  0.00    -0.509 A  
ENDBRANCH   2   7
TORSDOF 1
ENDMDL
MODEL        2
REMARK 921   NORMALIZED FREE ENERGY PREDICTED BY IDOCK:   -5.05 KCAL/MOL
REMARK 922        TOTAL FREE ENERGY PREDICTED BY IDOCK:   -5.38 KCAL/MOL
REMARK 923 INTER-LIGAND FREE ENERGY PREDICTED BY IDOCK:   -5.30 KCAL/MOL
REMARK 924 INTRA-LIGAND FREE ENERGY PREDICTED BY IDOCK:   -0.08 KCAL/MOL
REMARK 927      BINDING AFFINITY PREDICTED BY RF-SCORE:    0.00 PKD
ROOT
HETATM    1  O   UNL     1     -13.249  14.148  65.435  1.00  0.00    -0.741 OA 
HETATM    2  C   UNL     1     -12.242  14.060  64.424  1.00  0.00    -0.426 C  
HETATM    3  H   UNL     1     -13.765  13.351  65.396  1.00  0.00     0.000 HD 
HETATM    4  O   UNL     1     -10.405  15.348  65.400  1.00  0.00    -0.345 OA 
HETATM    5  C   UNL     1     -11.407  15.349  64.487  1.00  0.00    -0.313 C  
HETATM    6  O   UNL     1     -11.686  16.351  63.838  1.00  0.00    -1.085 OA 
ENDROOT
BRANCH   2   7
HETATM    7  C   UNL     1     -11.434  12.780  64.575  1.00  0.00    -0.389 A  
HETATM    8  C   UNL     1     -10.721  12.226  63.498  1.00  0.00    -0.497 A  
HETATM    9  C   UNL     1      -9.969  11.060  63.661  1.00  0.00    -0.415 A  
HETATM   10  C   UNL     1      -9.915  10.432  64.901  1.00  0.00    -0.409 A  
HETATM   11  C   UNL     1     -10.608  10.970  65.982  1.00  0.00    -0.275 A  
HETATM   12  C   UNL     1     -11.355  12.140  65.824  1.00  0.00    -0.402 A  
ENDBRANCH   2   7
TORSDOF 1
ENDMDL
MODEL        3
REMARK 921   NORMALIZED FREE ENERGY PREDICTED BY IDOCK:   -5.02 KCAL/MOL
REMARK 922        TOTAL FREE ENERGY PREDICTED BY IDOCK:   -5.34 KCAL/MOL
REMARK 923 INTER-LIGAND FREE ENERGY PREDICTED BY IDOCK:   -5.22 KCAL/MOL
REMARK 924 INTRA-LIGAND FREE ENERGY PREDICTED BY IDOCK:   -0.12 KCAL/MOL
REMARK 927      BINDING AFFINITY PREDICTED BY RF-SCORE:    0.00 PKD
ROOT
HETATM    1  O   UNL     1      -9.991  13.672  64.184  1.00  0.00    -0.746 OA 
HETATM    2  C   UNL     1     -10.541  14.586  65.135  1.00  0.00    -0.410 C  
HETATM    3  H   UNL     1      -9.275  13.213  64.607  1.00  0.00     0.000 HD 
HETATM    4  O   UNL     1     -12.892  14.688  64.467  1.00  0.00    -0.579 OA 
HETATM    5  C   UNL     1     -11.698  15.330  64.449  1.00  0.00    -0.285 C  
HETATM    6  O   UNL     1     -11.539  16.379  63.835  1.00  0.00    -1.100 OA 
ENDROOT
BRANCH   2   7
HETATM    7  C   UNL     1     -10.929  13.865  66.417  1.00  0.00    -0.303 A  
HETATM    8  C   UNL     1     -11.329  14.567  67.567  1.00  0.00    -0.355 A  
HETATM    9  C   UNL     1     -11.701  13.887  68.728  1.00  0.00    -0.392 A  
HETATM   10  C   UNL     1     -11.682  12.495  68.759  1.00  0.00    -0.371 A  
HETATM   11  C   UNL     1     -11.297  11.782  67.627  1.00  0.00    -0.370 A  
HETATM   12  C   UNL     1     -10.931  12.460  66.462  1.00  0.00    -0.312 A  
ENDBRANCH   2   7
TORSDOF 1
ENDMDL
MODEL        4
REMARK 921   NORMALIZED FREE ENERGY PREDICTED BY IDOCK:   -5.01 KCAL/MOL
REMARK 922        TOTAL FREE ENERGY PREDICTED BY IDOCK:   -5.34 KCAL/MOL
REMARK 923 INTER-LIGAND FREE ENERGY PREDICTED BY IDOCK:   -5.23 KCAL/MOL
REMARK 924 INTRA-LIGAND FREE ENERGY PREDICTED BY IDOCK:   -0.11 KCAL/MOL
REMARK 927      BINDING AFFINITY PREDICTED BY RF-SCORE:    0.00 PKD
ROOT
HETATM    1  O   UNL     1     -10.053  13.669  64.091  1.00  0.00    -0.757 OA 
HETATM    2  C   UNL     1     -10.640  14.529  65.070  1.00  0.00    -0.437 C  
HETATM    3  H   UNL     1      -9.361  13.178  64.518  1.00  0.00     0.000 HD 
HETATM    4  O   UNL     1     -12.957  14.694  64.301  1.00  0.00    -0.508 OA 
HETATM    5  C   UNL     1     -11.759  15.324  64.378  1.00  0.00    -0.285 C  
HETATM    6  O   UNL     1     -11.565  16.407  63.837  1.00  0.00    -1.100 OA 
ENDROOT
BRANCH   2   7
HETATM    7  C   UNL     1     -11.093  13.736  66.286  1.00  0.00    -0.302 A  
HETATM    8  C   UNL     1     -11.008  12.333  66.326  1.00  0.00    -0.327 A  
HETATM    9  C   UNL     1     -11.411  11.623  67.459  1.00  0.00    -0.360 A  
HETATM   10  C   UNL     1     -11.902  12.302  68.570  1.00  0.00    -0.359 A  
HETATM   11  C   UNL     1     -11.986  13.691  68.553  1.00  0.00    -0.396 A  
HETATM   12  C   UNL     1     -11.577  14.404  67.424  1.00  0.00    -0.398 A  
ENDBRANCH   2   7
TORSDOF 1
ENDMDL
MODEL        5
REMARK 921   NORMALIZED FREE ENERGY PREDICTED BY IDOCK:   -5.00 KCAL/MOL
REMARK 922        TOTAL FREE ENERGY PREDICTED BY IDOCK:   -5.33 KCAL/MOL
REMARK 923 INTER-LIGAND FREE ENERGY PREDICTED BY IDOCK:   -5.20 KCAL/MOL
REMARK 924 INTRA-LIGAND FREE ENERGY PREDICTED BY IDOCK:   -0.13 KCAL/MOL
REMARK 927      BINDING AFFINITY PREDICTED BY RF-SCORE:    0.00 PKD
ROOT
HETATM    1  O   UNL     1      -9.846  12.668  63.381  1.00  0.00    -0.641 OA 
HETATM    2  C   UNL     1     -10.732  12.846  64.489  1.00  0.00    -0.371 C  
HETATM    3  H   UNL     1      -8.977  12.507  63.732  1.00  0.00     0.000 HD 
HETATM    4  O   UNL     1     -12.851  11.998  63.606  1.00  0.00    -0.713 OA 
HETATM    5  C   UNL     1     -12.137  13.106  63.922  1.00  0.00    -0.470 C  
HETATM    6  O   UNL     1     -12.551  14.232  63.669  1.00  0.00    -0.831 OA 
ENDROOT
BRANCH   2   7
HETATM    7  C   UNL     1     -10.649  11.665  65.444  1.00  0.00    -0.331 A  
HETATM    8  C   UNL     1      -9.963  10.486  65.103  1.00  0.00    -0.375 A  
HETATM    9  C   UNL     1      -9.882   9.420  66.001  1.00  0.00    -0.366 A  
HETATM   10  C   UNL     1     -10.480   9.514  67.253  1.00  0.00    -0.328 A  
HETATM   11  C   UNL     1     -11.156  10.677  67.613  1.00  0.00    -0.385 A  
HETATM   12  C   UNL     1     -11.234  11.748  66.720  1.00  0.00    -0.388 A  
ENDBRANCH   2   7
TORSDOF 1
ENDMDL
MODEL        6
REMARK 921   NORMALIZED FREE ENERGY PREDICTED BY IDOCK:   -4.97 KCAL/MOL
REMARK 922        TOTAL FREE ENERGY PREDICTED BY IDOCK:   -5.29 KCAL/MOL
REMARK 923 INTER-LIGAND FREE ENERGY PREDICTED BY IDOCK:   -5.17 KCAL/MOL
REMARK 924 INTRA-LIGAND FREE ENERGY PREDICTED BY IDOCK:   -0.12 KCAL/MOL
REMARK 927      BINDING AFFINITY PREDICTED BY RF-SCORE:    0.00 PKD
ROOT
HETATM    1  O   UNL     1      -9.858  12.684  63.473  1.00  0.00    -0.637 OA 
HETATM    2  C   UNL     1     -10.768  12.913  64.551  1.00  0.00    -0.371 C  
HETATM    3  H   UNL     1      -8.999  12.531  63.850  1.00  0.00     0.000 HD 
HETATM    4  O   UNL     1     -12.873  12.047  63.652  1.00  0.00    -0.713 OA 
HETATM    5  C   UNL     1     -12.157  13.162  63.941  1.00  0.00    -0.470 C  
HETATM    6  O   UNL     1     -12.555  14.280  63.635  1.00  0.00    -0.831 OA 
ENDROOT
BRANCH   2   7
HETATM    7  C   UNL     1     -10.718  11.769  65.553  1.00  0.00    -0.329 A  
HETATM    8  C   UNL     1     -11.304  11.877  66.826  1.00  0.00    -0.393 A  
HETATM    9  C   UNL     1     -11.264  10.809  67.725  1.00  0.00    -0.385 A  
HETATM   10  C   UNL     1     -10.642   9.616  67.366  1.00  0.00    -0.333 A  
HETATM   11  C   UNL     1     -10.064   9.488  66.106  1.00  0.00    -0.326 A  
HETATM   12  C   UNL     1     -10.108  10.552  65.203  1.00  0.00    -0.383 A  
ENDBRANCH   2   7
TORSDOF 1
ENDMDL
MODEL        7
REMARK 921   NORMALIZED FREE ENERGY PREDICTED BY IDOCK:   -4.85 KCAL/MOL
REMARK 922        TOTAL FREE ENERGY PREDICTED BY IDOCK:   -5.17 KCAL/MOL
REMARK 923 INTER-LIGAND FREE ENERGY PREDICTED BY IDOCK:   -5.05 KCAL/MOL
REMARK 924 INTRA-LIGAND FREE ENERGY PREDICTED BY IDOCK:   -0.12 KCAL/MOL
REMARK 927      BINDING AFFINITY PREDICTED BY RF-SCORE:    0.00 PKD
ROOT
HETATM    1  O   UNL     1     -12.436  15.068  63.594  1.00  0.00    -1.036 OA 
HETATM    2  C   UNL     1     -12.277  14.040  64.575  1.00  0.00    -0.434 C  
HETATM    3  H   UNL     1     -12.544  15.891  64.056  1.00  0.00     0.000 HD 
HETATM    4  O   UNL     1     -10.840  12.431  63.420  1.00  0.00    -0.451 OA 
HETATM    5  C   UNL     1     -12.103  12.708  63.828  1.00  0.00    -0.522 C  
HETATM    6  O   UNL     1     -13.050  11.991  63.523  1.00  0.00    -0.764 OA 
ENDROOT
BRANCH   2   7
HETATM    7  C   UNL     1     -11.143  14.376  65.531  1.00  0.00    -0.326 A  
HETATM    8  C   UNL     1     -10.193  15.368  65.231  1.00  0.00    -0.390 A  
HETATM    9  C   UNL     1      -9.170  15.675  66.131  1.00  0.00    -0.378 A  
HETATM   10  C   UNL     1      -9.082  15.001  67.345  1.00  0.00    -0.194 A  
HETATM   11  C   UNL     1     -10.019  14.022  67.665  1.00  0.00    -0.237 A  
HETATM   12  C   UNL     1     -11.047  13.717  66.769  1.00  0.00    -0.315 A  
ENDBRANCH   2   7
TORSDOF 1
ENDMDL
MODEL        8
REMARK 921   NORMALIZED FREE ENERGY PREDICTED BY IDOCK:   -4.84 KCAL/MOL
REMARK 922        TOTAL FREE ENERGY PREDICTED BY IDOCK:   -5.15 KCAL/MOL
REMARK 923 INTER-LIGAND FREE ENERGY PREDICTED BY IDOCK:   -5.07 KCAL/MOL
REMARK 924 INTRA-LIGAND FREE ENERGY PREDICTED BY IDOCK:   -0.09 KCAL/MOL
REMARK 927      BINDING AFFINITY PREDICTED BY RF-SCORE:    0.00 PKD
ROOT
HETATM    1  O   UNL     1     -12.447  14.949  63.600  1.00  0.00    -1.055 OA 
HETATM    2  C   UNL     1     -12.205  13.892  64.532  1.00  0.00    -0.417 C  
HETATM    3  H   UNL     1     -12.547  15.752  64.098  1.00  0.00     0.000 HD 
HETATM    4  O   UNL     1     -10.802  12.362  63.236  1.00  0.00    -0.432 OA 
HETATM    5  C   UNL     1     -12.045  12.592  63.728  1.00  0.00    -0.529 C  
HETATM    6  O   UNL     1     -12.991  11.861  63.455  1.00  0.00    -0.730 OA 
ENDROOT
BRANCH   2   7
HETATM    7  C   UNL     1     -11.024  14.224  65.432  1.00  0.00    -0.335 A  
HETATM    8  C   UNL     1     -10.600  13.349  66.446  1.00  0.00    -0.285 A  
HETATM    9  C   UNL     1      -9.501  13.662  67.250  1.00  0.00    -0.230 A  
HETATM   10  C   UNL     1      -8.807  14.852  67.050  1.00  0.00    -0.255 A  
HETATM   11  C   UNL     1      -9.206  15.727  66.044  1.00  0.00    -0.379 A  
HETATM   12  C   UNL     1     -10.301  15.413  65.235  1.00  0.00    -0.420 A  
ENDBRANCH   2   7
TORSDOF 1
ENDMDL
MODEL        9
REMARK 921   NORMALIZED FREE ENERGY PREDICTED BY IDOCK:   -4.74 KCAL/MOL
REMARK 922        TOTAL FREE ENERGY PREDICTED BY IDOCK:   -5.05 KCAL/MOL
REMARK 923 INTER-LIGAND FREE ENERGY PREDICTED BY IDOCK:   -4.95 KCAL/MOL
REMARK 924 INTRA-LIGAND FREE ENERGY PREDICTED BY IDOCK:   -0.10 KCAL/MOL
REMARK 927      BINDING AFFINITY PREDICTED BY RF-SCORE:    0.00 PKD
ROOT
HETATM    1  O   UNL     1     -11.433  16.713  64.051  1.00  0.00    -1.523 OA 
HETATM    2  C   UNL     1     -10.420  16.072  64.831  1.00  0.00    -0.092 C  
HETATM    3  H   UNL     1     -11.616  16.155  63.305  1.00  0.00     0.000 HD 
HETATM    4  O   UNL     1     -10.953  16.820  67.099  1.00  0.00    -0.168 OA 
HETATM    5  C   UNL     1     -10.123  16.976  66.039  1.00  0.00    -0.302 C  
HETATM    6  O   UNL     1      -9.266  17.852  66.015  1.00  0.00    -0.509 OA 
ENDROOT
BRANCH   2   7
HETATM    7  C   UNL     1     -10.833  14.654  65.194  1.00  0.00    -0.414 A  
HETATM    8  C   UNL     1      -9.972  13.791  65.894  1.00  0.00    -0.308 A  
HETATM    9  C   UNL     1     -10.377  12.498  66.235  1.00  0.00    -0.269 A  
HETATM   10  C   UNL     1     -11.647  12.049  65.886  1.00  0.00    -0.364 A  
HETATM   11  C   UNL     1     -12.517  12.892  65.201  1.00  0.00    -0.561 A  
HETATM   12  C   UNL     1     -12.117  14.188  64.864  1.00  0.00    -0.438 A  
ENDBRANCH   2   7
TORSDOF 1
ENDMDL
MODEL       10
REMARK 921   NORMALIZED FREE ENERGY PREDICTED BY IDOCK:   -4.72 KCAL/MOL
REMARK 922        TOTAL FREE ENERGY PREDICTED BY IDOCK:   -5.03 KCAL/MOL
REMARK 923 INTER-LIGAND FREE ENERGY PREDICTED BY IDOCK:   -4.93 KCAL/MOL
REMARK 924 INTRA-LIGAND FREE ENERGY PREDICTED BY IDOCK:   -0.11 KCAL/MOL
REMARK 927      BINDING AFFINITY PREDICTED BY RF-SCORE:    0.00 PKD
ROOT
HETATM    1  O   UNL     1     -10.266  14.202  69.540  1.00  0.00    -0.429 OA 
HETATM    2  C   UNL     1     -11.685  14.032  69.579  1.00  0.00    -0.313 C  
HETATM    3  H   UNL     1     -10.087  15.133  69.613  1.00  0.00     0.000 HD 
HETATM    4  O   UNL     1     -11.919  11.830  70.621  1.00  0.00    -0.350 OA 
HETATM    5  C   UNL     1     -11.975  12.527  69.459  1.00  0.00    -0.266 C  
HETATM    6  O   UNL     1     -12.141  11.969  68.380  1.00  0.00    -0.412 OA 
ENDROOT
BRANCH   2   7
HETATM    7  C   UNL     1     -12.275  14.688  70.819  1.00  0.00    -0.394 A  
HETATM    8  C   UNL     1     -13.663  14.747  71.034  1.00  0.00    -0.322 A  
HETATM    9  C   UNL     1     -14.184  15.337  72.187  1.00  0.00    -0.667 A  
HETATM   10  C   UNL     1     -13.329  15.874  73.145  1.00  0.00    -0.681 A  
HETATM   11  C   UNL     1     -11.951  15.817  72.954  1.00  0.00    -0.599 A  
HETATM   12  C   UNL     1     -11.426  15.221  71.805  1.00  0.00    -0.494 A  
ENDBRANCH   2   7
TORSDOF 1
ENDMDL
MODEL       11
REMARK 921   NORMALIZED FREE ENERGY PREDICTED BY IDOCK:   -4.71 KCAL/MOL
REMARK 922        TOTAL FREE ENERGY PREDICTED BY IDOCK:   -5.02 KCAL/MOL
REMARK 923 INTER-LIGAND FREE ENERGY PREDICTED BY IDOCK:   -4.90 KCAL/MOL
REMARK 924 INTRA-LIGAND FREE ENERGY PREDICTED BY IDOCK:   -0.12 KCAL/MOL
REMARK 927      BINDING AFFINITY PREDICTED BY RF-SCORE:    0.00 PKD
ROOT
HETATM    1  O   UNL     1     -10.333  14.378  69.380  1.00  0.00    -0.397 OA 
HETATM    2  C   UNL     1     -11.739  14.139  69.483  1.00  0.00    -0.312 C  
HETATM    3  H   UNL     1     -10.194  15.314  69.469  1.00  0.00     0.000 HD 
HETATM    4  O   UNL     1     -11.818  11.904  70.476  1.00  0.00    -0.320 OA 
HETATM    5  C   UNL     1     -11.963  12.625  69.338  1.00  0.00    -0.260 C  
HETATM    6  O   UNL     1     -12.155  12.085  68.254  1.00  0.00    -0.447 OA 
ENDROOT
BRANCH   2   7
HETATM    7  C   UNL     1     -12.297  14.736  70.765  1.00  0.00    -0.397 A  
HETATM    8  C   UNL     1     -11.458  15.293  71.747  1.00  0.00    -0.494 A  
HETATM    9  C   UNL     1     -11.991  15.854  72.910  1.00  0.00    -0.609 A  
HETATM   10  C   UNL     1     -13.368  15.871  73.109  1.00  0.00    -0.681 A  
HETATM   11  C   UNL     1     -14.216  15.333  72.144  1.00  0.00    -0.667 A  
HETATM   12  C   UNL     1     -13.686  14.777  70.977  1.00  0.00    -0.322 A  
ENDBRANCH   2   7
TORSDOF 1
ENDMDL
MODEL       12
REMARK 921   NORMALIZED FREE ENERGY PREDICTED BY IDOCK:   -4.66 KCAL/MOL
REMARK 922        TOTAL FREE ENERGY PREDICTED BY IDOCK:   -4.97 KCAL/MOL
REMARK 923 INTER-LIGAND FREE ENERGY PREDICTED BY IDOCK:   -5.01 KCAL/MOL
REMARK 924 INTRA-LIGAND FREE ENERGY PREDICTED BY IDOCK:    0.04 KCAL/MOL
REMARK 927      BINDING AFFINITY PREDICTED BY RF-SCORE:    0.00 PKD
ROOT
HETATM    1  O   UNL     1      -9.555  14.588  65.311  1.00  0.00    -0.512 OA 
HETATM    2  C   UNL     1     -10.598  15.430  65.810  1.00  0.00    -0.348 C  
HETATM    3  H   UNL     1      -8.907  14.496  66.000  1.00  0.00     0.000 HD 
HETATM    4  O   UNL     1     -12.564  14.585  64.623  1.00  0.00    -0.607 OA 
HETATM    5  C   UNL     1     -11.646  15.580  64.695  1.00  0.00    -0.281 C  
HETATM    6  O   UNL     1     -11.599  16.475  63.859  1.00  0.00    -1.175 OA 
ENDROOT
BRANCH   2   7
HETATM    7  C   UNL     1     -11.149  14.889  67.120  1.00  0.00    -0.332 A  
HETATM    8  C   UNL     1     -11.295  13.510  67.347  1.00  0.00    -0.338 A  
HETATM    9  C   UNL     1     -11.785  13.032  68.565  1.00  0.00    -0.377 A  
HETATM   10  C   UNL     1     -12.132  13.924  69.576  1.00  0.00    -0.393 A  
HETATM   11  C   UNL     1     -11.986  15.293  69.373  1.00  0.00    -0.342 A  
HETATM   12  C   UNL     1     -11.491  15.773  68.159  1.00  0.00    -0.302 A  
ENDBRANCH   2   7
TORSDOF 1
ENDMDL
MODEL       13
REMARK 921   NORMALIZED FREE ENERGY PREDICTED BY IDOCK:   -4.64 KCAL/MOL
REMARK 922        TOTAL FREE ENERGY PREDICTED BY IDOCK:   -4.94 KCAL/MOL
REMARK 923 INTER-LIGAND FREE ENERGY PREDICTED BY IDOCK:   -4.83 KCAL/MOL
REMARK 924 INTRA-LIGAND FREE ENERGY PREDICTED BY IDOCK:   -0.11 KCAL/MOL
REMARK 927      BINDING AFFINITY PREDICTED BY RF-SCORE:    0.00 PKD
ROOT
HETATM    1  O   UNL     1     -14.083  13.486  72.685  1.00  0.00    -0.762 OA 
HETATM    2  C   UNL     1     -13.681  14.670  71.992  1.00  0.00    -0.430 C  
HETATM    3  H   UNL     1     -14.506  12.915  72.054  1.00  0.00     0.000 HD 
HETATM    4  O   UNL     1     -11.682  15.349  73.230  1.00  0.00    -0.436 OA 
HETATM    5  C   UNL     1     -12.998  15.595  73.012  1.00  0.00    -0.510 C  
HETATM    6  O   UNL     1     -13.614  16.430  73.666  1.00  0.00    -0.592 OA 
ENDROOT
BRANCH   2   7
HETATM    7  C   UNL     1     -12.824  14.325  70.784  1.00  0.00    -0.404 A  
HETATM    8  C   UNL     1     -12.392  15.311  69.879  1.00  0.00    -0.323 A  
HETATM    9  C   UNL     1     -11.590  14.977  68.786  1.00  0.00    -0.357 A  
HETATM   10  C   UNL     1     -11.202  13.656  68.581  1.00  0.00    -0.308 A  
HETATM   11  C   UNL     1     -11.612  12.667  69.471  1.00  0.00    -0.348 A  
HETATM   12  C   UNL     1     -12.410  12.999  70.569  1.00  0.00    -0.365 A  
ENDBRANCH   2   7
TORSDOF 1
ENDMDL
MODEL       14
REMARK 921   NORMALIZED FREE ENERGY PREDICTED BY IDOCK:   -4.58 KCAL/MOL
REMARK 922        TOTAL FREE ENERGY PREDICTED BY IDOCK:   -4.88 KCAL/MOL
REMARK 923 INTER-LIGAND FREE ENERGY PREDICTED BY IDOCK:   -4.76 KCAL/MOL
REMARK 924 INTRA-LIGAND FREE ENERGY PREDICTED BY IDOCK:   -0.12 KCAL/MOL
REMARK 927      BINDING AFFINITY PREDICTED BY RF-SCORE:    0.00 PKD
ROOT
HETATM    1  O   UNL     1     -11.465  15.833  67.399  1.00  0.00    -0.186 OA 
HETATM    2  C   UNL     1     -10.307  16.153  66.624  1.00  0.00    -0.296 C  
HETATM    3  H   UNL     1     -11.275  16.056  68.302  1.00  0.00     0.000 HD 
HETATM    4  O   UNL     1     -11.274  16.741  64.454  1.00  0.00    -1.112 OA 
HETATM    5  C   UNL     1     -10.612  15.792  65.161  1.00  0.00    -0.411 C  
HETATM    6  O   UNL     1     -10.375  14.686  64.689  1.00  0.00    -0.340 OA 
ENDROOT
BRANCH   2   7
HETATM    7  C   UNL     1      -9.894  17.602  66.839  1.00  0.00    -0.306 A  
HETATM    8  C   UNL     1      -8.677  18.104  66.347  1.00  0.00    -0.252 A  
HETATM    9  C   UNL     1      -8.325  19.442  66.539  1.00  0.00    -0.342 A  
HETATM   10  C   UNL     1      -9.184  20.299  67.222  1.00  0.00    -0.523 A  
HETATM   11  C   UNL     1     -10.398  19.822  67.709  1.00  0.00    -0.573 A  
HETATM   12  C   UNL     1     -10.755  18.486  67.512  1.00  0.00    -0.419 A  
ENDBRANCH   2   7
TORSDOF 1
ENDMDL
MODEL       15
REMARK 921   NORMALIZED FREE ENERGY PREDICTED BY IDOCK:   -4.57 KCAL/MOL
REMARK 922        TOTAL FREE ENERGY PREDICTED BY IDOCK:   -4.87 KCAL/MOL
REMARK 923 INTER-LIGAND FREE ENERGY PREDICTED BY IDOCK:   -5.42 KCAL/MOL
REMARK 924 INTRA-LIGAND FREE ENERGY PREDICTED BY IDOCK:    0.55 KCAL/MOL
REMARK 927      BINDING AFFINITY PREDICTED BY RF-SCORE:    0.00 PKD
ROOT
HETATM    1  O   UNL     1     -13.918  15.640  70.661  1.00  0.00    -0.827 OA 
HETATM    2  C   UNL     1     -12.676  15.140  71.163  1.00  0.00    -0.385 C  
HETATM    3  H   UNL     1     -14.057  15.256  69.804  1.00  0.00     0.000 HD 
HETATM    4  O   UNL     1     -13.056  15.123  73.580  1.00  0.00    -0.495 OA 
HETATM    5  C   UNL     1     -12.451  15.764  72.550  1.00  0.00    -0.450 C  
HETATM    6  O   UNL     1     -11.858  16.824  72.711  1.00  0.00    -0.459 OA 
ENDROOT
BRANCH   2   7
HETATM    7  C   UNL     1     -12.659  13.619  71.147  1.00  0.00    -0.452 A  
HETATM    8  C   UNL     1     -13.386  12.864  72.084  1.00  0.00    -0.615 A  
HETATM    9  C   UNL     1     -13.373  11.468  72.042  1.00  0.00    -0.397 A  
HETATM   10  C   UNL     1     -12.638  10.805  71.063  1.00  0.00    -0.520 A  
HETATM   11  C   UNL     1     -11.920  11.536  70.121  1.00  0.00    -0.452 A  
HETATM   12  C   UNL     1     -11.936  12.933  70.157  1.00  0.00    -0.373 A  
ENDBRANCH   2   7
TORSDOF 1
ENDMDL
MODEL       16
REMARK 921   NORMALIZED FREE ENERGY PREDICTED BY IDOCK:   -4.45 KCAL/MOL
REMARK 922        TOTAL FREE ENERGY PREDICTED BY IDOCK:   -4.74 KCAL/MOL
REMARK 923 INTER-LIGAND FREE ENERGY PREDICTED BY IDOCK:   -4.62 KCAL/MOL
REMARK 924 INTRA-LIGAND FREE ENERGY PREDICTED BY IDOCK:   -0.12 KCAL/MOL
REMARK 927      BINDING AFFINITY PREDICTED BY RF-SCORE:    0.00 PKD
ROOT
HETATM    1  O   UNL     1     -11.943  11.965  66.953  1.00  0.00    -0.614 OA 
HETATM    2  C   UNL     1     -11.508  12.793  65.872  1.00  0.00    -0.356 C  
HETATM    3  H   UNL     1     -11.189  11.792  67.504  1.00  0.00     0.000 HD 
HETATM    4  O   UNL     1     -13.514  14.102  65.374  1.00  0.00    -0.648 OA 
HETATM    5  C   UNL     1     -12.728  13.071  64.979  1.00  0.00    -0.410 C  
HETATM    6  O   UNL     1     -13.037  12.350  64.037  1.00  0.00    -0.763 OA 
ENDROOT
BRANCH   2   7
HETATM    7  C   UNL     1     -10.814  14.042  66.393  1.00  0.00    -0.299 A  
HETATM    8  C   UNL     1     -10.047  14.866  65.551  1.00  0.00    -0.400 A  
HETATM    9  C   UNL     1      -9.433  16.019  66.044  1.00  0.00    -0.384 A  
HETATM   10  C   UNL     1      -9.577  16.369  67.383  1.00  0.00    -0.231 A  
HETATM   11  C   UNL     1     -10.340  15.571  68.230  1.00  0.00    -0.235 A  
HETATM   12  C   UNL     1     -10.960  14.420  67.739  1.00  0.00    -0.283 A  
ENDBRANCH   2   7
TORSDOF 1
ENDMDL
MODEL       17
REMARK 921   NORMALIZED FREE ENERGY PREDICTED BY IDOCK:   -4.44 KCAL/MOL
REMARK 922        TOTAL FREE ENERGY PREDICTED BY IDOCK:   -4.74 KCAL/MOL
REMARK 923 INTER-LIGAND FREE ENERGY PREDICTED BY IDOCK:   -4.65 KCAL/MOL
REMARK 924 INTRA-LIGAND FREE ENERGY PREDICTED BY IDOCK:   -0.09 KCAL/MOL
REMARK 927      BINDING AFFINITY PREDICTED BY RF-SCORE:    0.00 PKD
ROOT
HETATM    1  O   UNL     1     -12.335  12.384  66.134  1.00  0.00    -0.606 OA 
HETATM    2  C   UNL     1     -11.316  13.132  65.467  1.00  0.00    -0.299 C  
HETATM    3  H   UNL     1     -12.034  12.215  67.019  1.00  0.00     0.000 HD 
HETATM    4  O   UNL     1     -12.607  14.486  63.890  1.00  0.00    -0.827 OA 
HETATM    5  C   UNL     1     -11.803  13.404  64.034  1.00  0.00    -0.445 C  
HETATM    6  O   UNL     1     -11.573  12.643  63.101  1.00  0.00    -0.442 OA 
ENDROOT
BRANCH   2   7
HETATM    7  C   UNL     1     -10.957  14.382  66.256  1.00  0.00    -0.318 A  
HETATM    8  C   UNL     1     -11.595  14.697  67.469  1.00  0.00    -0.396 A  
HETATM    9  C   UNL     1     -11.238  15.840  68.189  1.00  0.00    -0.344 A  
HETATM   10  C   UNL     1     -10.238  16.682  67.712  1.00  0.00    -0.292 A  
HETATM   11  C   UNL     1      -9.589  16.381  66.518  1.00  0.00    -0.291 A  
HETATM   12  C   UNL     1      -9.939  15.236  65.799  1.00  0.00    -0.391 A  
ENDBRANCH   2   7
TORSDOF 1
ENDMDL
MODEL       18
REMARK 921   NORMALIZED FREE ENERGY PREDICTED BY IDOCK:   -4.43 KCAL/MOL
REMARK 922        TOTAL FREE ENERGY PREDICTED BY IDOCK:   -4.73 KCAL/MOL
REMARK 923 INTER-LIGAND FREE ENERGY PREDICTED BY IDOCK:   -4.62 KCAL/MOL
REMARK 924 INTRA-LIGAND FREE ENERGY PREDICTED BY IDOCK:   -0.11 KCAL/MOL
REMARK 927      BINDING AFFINITY PREDICTED BY RF-SCORE:    0.00 PKD
ROOT
HETATM    1  O   UNL     1     -12.031  11.648  67.075  1.00  0.00    -0.593 OA 
HETATM    2  C   UNL     1     -11.500  12.837  66.484  1.00  0.00    -0.355 C  
HETATM    3  H   UNL     1     -11.511  11.453  67.845  1.00  0.00     0.000 HD 
HETATM    4  O   UNL     1     -13.483  13.847  65.467  1.00  0.00    -0.657 OA 
HETATM    5  C   UNL     1     -12.342  13.152  65.237  1.00  0.00    -0.481 C  
HETATM    6  O   UNL     1     -12.065  12.717  64.125  1.00  0.00    -0.381 OA 
ENDROOT
BRANCH   2   7
HETATM    7  C   UNL     1     -11.439  13.966  67.502  1.00  0.00    -0.368 A  
HETATM    8  C   UNL     1     -10.858  15.208  67.193  1.00  0.00    -0.320 A  
HETATM    9  C   UNL     1     -10.829  16.239  68.135  1.00  0.00    -0.342 A  
HETATM   10  C   UNL     1     -11.381  16.047  69.398  1.00  0.00    -0.355 A  
HETATM   11  C   UNL     1     -11.970  14.827  69.720  1.00  0.00    -0.368 A  
HETATM   12  C   UNL     1     -12.006  13.796  68.777  1.00  0.00    -0.400 A  
ENDBRANCH   2   7
TORSDOF 1
ENDMDL
MODEL       19
REMARK 921   NORMALIZED FREE ENERGY PREDICTED BY IDOCK:   -4.43 KCAL/MOL
REMARK 922        TOTAL FREE ENERGY PREDICTED BY IDOCK:   -4.73 KCAL/MOL
REMARK 923 INTER-LIGAND FREE ENERGY PREDICTED BY IDOCK:   -4.71 KCAL/MOL
REMARK 924 INTRA-LIGAND FREE ENERGY PREDICTED BY IDOCK:   -0.02 KCAL/MOL
REMARK 927      BINDING AFFINITY PREDICTED BY RF-SCORE:    0.00 PKD
ROOT
HETATM    1  O   UNL     1     -12.494  14.229  68.409  1.00  0.00    -0.564 OA 
HETATM    2  C   UNL     1     -11.558  14.730  69.367  1.00  0.00    -0.310 C  
HETATM    3  H   UNL     1     -12.992  13.538  68.830  1.00  0.00     0.000 HD 
HETATM    4  O   UNL     1     -11.330  17.073  68.698  1.00  0.00    -0.134 OA 
HETATM    5  C   UNL     1     -10.751  15.847  68.685  1.00  0.00    -0.274 C  
HETATM    6  O   UNL     1      -9.708  15.634  68.078  1.00  0.00    -0.204 OA 
ENDROOT
BRANCH   2   7
HETATM    7  C   UNL     1     -12.267  15.157  70.643  1.00  0.00    -0.401 A  
HETATM    8  C   UNL     1     -13.632  14.896  70.853  1.00  0.00    -0.313 A  
HETATM    9  C   UNL     1     -14.260  15.278  72.040  1.00  0.00    -0.679 A  
HETATM   10  C   UNL     1     -13.535  15.924  73.037  1.00  0.00    -0.653 A  
HETATM   11  C   UNL     1     -12.180  16.184  72.852  1.00  0.00    -0.640 A  
HETATM   12  C   UNL     1     -11.547  15.796  71.668  1.00  0.00    -0.537 A  
ENDBRANCH   2   7
TORSDOF 1
ENDMDL
MODEL       20
REMARK 921   NORMALIZED FREE ENERGY PREDICTED BY IDOCK:   -4.43 KCAL/MOL
REMARK 922        TOTAL FREE ENERGY PREDICTED BY IDOCK:   -4.72 KCAL/MOL
REMARK 923 INTER-LIGAND FREE ENERGY PREDICTED BY IDOCK:   -5.08 KCAL/MOL
REMARK 924 INTRA-LIGAND FREE ENERGY PREDICTED BY IDOCK:    0.35 KCAL/MOL
REMARK 927      BINDING AFFINITY PREDICTED BY RF-SCORE:    0.00 PKD
ROOT
HETATM    1  O   UNL     1     -13.340  15.833  70.761  1.00  0.00    -0.719 OA 
HETATM    2  C   UNL     1     -12.569  14.804  71.387  1.00  0.00    -0.326 C  
HETATM    3  H   UNL     1     -12.874  16.105  69.980  1.00  0.00     0.000 HD 
HETATM    4  O   UNL     1     -14.292  13.436  72.459  1.00  0.00    -0.692 OA 
HETATM    5  C   UNL     1     -13.323  14.364  72.653  1.00  0.00    -0.507 C  
HETATM    6  O   UNL     1     -13.141  14.887  73.747  1.00  0.00    -0.483 OA 
ENDROOT
BRANCH   2   7
HETATM    7  C   UNL     1     -12.274  13.678  70.409  1.00  0.00    -0.434 A  
HETATM    8  C   UNL     1     -12.227  12.335  70.821  1.00  0.00    -0.354 A  
HETATM    9  C   UNL     1     -11.973  11.313  69.903  1.00  0.00    -0.440 A  
HETATM   10  C   UNL     1     -11.765  11.615  68.561  1.00  0.00    -0.378 A  
HETATM   11  C   UNL     1     -11.817  12.939  68.132  1.00  0.00    -0.380 A  
HETATM   12  C   UNL     1     -12.077  13.962  69.046  1.00  0.00    -0.365 A  
ENDBRANCH   2   7
TORSDOF 1
ENDMDL
MODEL       21
REMARK 921   NORMALIZED FREE ENERGY PREDICTED BY IDOCK:   -4.42 KCAL/MOL
REMARK 922        TOTAL FREE ENERGY PREDICTED BY IDOCK:   -4.71 KCAL/MOL
REMARK 923 INTER-LIGAND FREE ENERGY PREDICTED BY IDOCK:   -4.59 KCAL/MOL
REMARK 924 INTRA-LIGAND FREE ENERGY PREDICTED BY IDOCK:   -0.12 KCAL/MOL
REMARK 927      BINDING AFFINITY PREDICTED BY RF-SCORE:    0.00 PKD
ROOT
HETATM    1  O   UNL     1     -11.440  16.490  64.204  1.00  0.00    -1.346 OA 
HETATM    2  C   UNL     1     -10.606  15.590  64.939  1.00  0.00    -0.342 C  
HETATM    3  H   UNL     1     -11.321  16.302  63.281  1.00  0.00     0.000 HD 
HETATM    4  O   UNL     1     -11.863  15.291  67.017  1.00  0.00    -0.133 OA 
HETATM    5  C   UNL     1     -10.798  15.895  66.433  1.00  0.00    -0.193 C  
HETATM    6  O   UNL     1     -10.108  16.708  67.037  1.00  0.00    -0.267 OA 
ENDROOT
BRANCH   2   7
HETATM    7  C   UNL     1     -10.893  14.148  64.550  1.00  0.00    -0.336 A  
HETATM    8  C   UNL     1     -11.965  13.810  63.706  1.00  0.00    -0.365 A  
HETATM    9  C   UNL     1     -12.200  12.481  63.346  1.00  0.00    -0.613 A  
HETATM   10  C   UNL     1     -11.368  11.471  63.818  1.00  0.00    -0.420 A  
HETATM   11  C   UNL     1     -10.295  11.787  64.647  1.00  0.00    -0.336 A  
HETATM   12  C   UNL     1     -10.053  13.116  65.004  1.00  0.00    -0.240 A  
ENDBRANCH   2   7
TORSDOF 1
ENDMDL
MODEL       22
REMARK 921   NORMALIZED FREE ENERGY PREDICTED BY IDOCK:   -4.38 KCAL/MOL
REMARK 922        TOTAL FREE ENERGY PREDICTED BY IDOCK:   -4.67 KCAL/MOL
REMARK 923 INTER-LIGAND FREE ENERGY PREDICTED BY IDOCK:   -4.59 KCAL/MOL
REMARK 924 INTRA-LIGAND FREE ENERGY PREDICTED BY IDOCK:   -0.08 KCAL/MOL
REMARK 927      BINDING AFFINITY PREDICTED BY RF-SCORE:    0.00 PKD
ROOT
HETATM    1  O   UNL     1      -8.499  16.477  65.770  1.00  0.00    -0.394 OA 
HETATM    2  C   UNL     1      -9.825  16.560  66.297  1.00  0.00    -0.316 C  
HETATM    3  H   UNL     1      -8.000  15.900  66.338  1.00  0.00     0.000 HD 
HETATM    4  O   UNL     1     -11.169  16.907  64.282  1.00  0.00    -1.204 OA 
HETATM    5  C   UNL     1     -10.631  17.493  65.380  1.00  0.00     0.003 C  
HETATM    6  O   UNL     1     -10.700  18.704  65.562  1.00  0.00    -0.577 OA 
ENDROOT
BRANCH   2   7
HETATM    7  C   UNL     1     -10.427  15.173  66.468  1.00  0.00    -0.292 A  
HETATM    8  C   UNL     1     -11.482  14.932  67.365  1.00  0.00    -0.354 A  
HETATM    9  C   UNL     1     -12.034  13.655  67.494  1.00  0.00    -0.393 A  
HETATM   10  C   UNL     1     -11.545  12.602  66.727  1.00  0.00    -0.438 A  
HETATM   11  C   UNL     1     -10.507  12.824  65.826  1.00  0.00    -0.294 A  
HETATM   12  C   UNL     1      -9.957  14.101  65.691  1.00  0.00    -0.331 A  
ENDBRANCH   2   7
TORSDOF 1
ENDMDL
MODEL       23
REMARK 921   NORMALIZED FREE ENERGY PREDICTED BY IDOCK:   -4.36 KCAL/MOL
REMARK 922        TOTAL FREE ENERGY PREDICTED BY IDOCK:   -4.65 KCAL/MOL
REMARK 923 INTER-LIGAND FREE ENERGY PREDICTED BY IDOCK:   -4.65 KCAL/MOL
REMARK 924 INTRA-LIGAND FREE ENERGY PREDICTED BY IDOCK:    0.01 KCAL/MOL
REMARK 927      BINDING AFFINITY PREDICTED BY RF-SCORE:    0.00 PKD
ROOT
HETATM    1  O   UNL     1      -8.586  16.244  65.798  1.00  0.00    -0.348 OA 
HETATM    2  C   UNL     1      -9.918  16.271  66.319  1.00  0.00    -0.317 C  
HETATM    3  H   UNL     1      -8.138  15.508  66.196  1.00  0.00     0.000 HD 
HETATM    4  O   UNL     1     -11.189  17.224  64.458  1.00  0.00    -1.083 OA 
HETATM    5  C   UNL     1     -10.644  17.464  65.676  1.00  0.00    -0.153 C  
HETATM    6  O   UNL     1     -10.643  18.585  66.172  1.00  0.00    -0.424 OA 
ENDROOT
BRANCH   2   7
HETATM    7  C   UNL     1     -10.607  14.931  66.112  1.00  0.00    -0.322 A  
HETATM    8  C   UNL     1     -10.359  14.141  64.976  1.00  0.00    -0.443 A  
HETATM    9  C   UNL     1     -10.988  12.904  64.814  1.00  0.00    -0.344 A  
HETATM   10  C   UNL     1     -11.869  12.436  65.784  1.00  0.00    -0.467 A  
HETATM   11  C   UNL     1     -12.120  13.200  66.920  1.00  0.00    -0.377 A  
HETATM   12  C   UNL     1     -11.488  14.434  67.088  1.00  0.00    -0.379 A  
ENDBRANCH   2   7
TORSDOF 1
ENDMDL
MODEL       24
REMARK 921   NORMALIZED FREE ENERGY PREDICTED BY IDOCK:   -4.31 KCAL/MOL
REMARK 922        TOTAL FREE ENERGY PREDICTED BY IDOCK:   -4.59 KCAL/MOL
REMARK 923 INTER-LIGAND FREE ENERGY PREDICTED BY IDOCK:   -4.48 KCAL/MOL
REMARK 924 INTRA-LIGAND FREE ENERGY PREDICTED BY IDOCK:   -0.12 KCAL/MOL
REMARK 927      BINDING AFFINITY PREDICTED BY RF-SCORE:    0.00 PKD
ROOT
HETATM    1  O   UNL     1     -12.535  14.231  67.544  1.00  0.00    -0.578 OA 
HETATM    2  C   UNL     1     -11.417  13.363  67.341  1.00  0.00    -0.333 C  
HETATM    3  H   UNL     1     -12.491  14.914  66.884  1.00  0.00     0.000 HD 
HETATM    4  O   UNL     1     -12.284  11.206  68.105  1.00  0.00    -0.612 OA 
HETATM    5  C   UNL     1     -11.487  12.260  68.409  1.00  0.00    -0.307 C  
HETATM    6  O   UNL     1     -10.949  12.364  69.505  1.00  0.00    -0.089 OA 
ENDROOT
BRANCH   2   7
HETATM    7  C   UNL     1     -11.383  12.850  65.909  1.00  0.00    -0.348 A  
HETATM    8  C   UNL     1     -10.234  12.250  65.367  1.00  0.00    -0.297 A  
HETATM    9  C   UNL     1     -10.229  11.768  64.056  1.00  0.00    -0.387 A  
HETATM   10  C   UNL     1     -11.371  11.875  63.268  1.00  0.00    -0.373 A  
HETATM   11  C   UNL     1     -12.522  12.458  63.790  1.00  0.00    -0.593 A  
HETATM   12  C   UNL     1     -12.532  12.935  65.103  1.00  0.00    -0.561 A  
ENDBRANCH   2   7
TORSDOF 1
ENDMDL
MODEL       25
REMARK 921   NORMALIZED FREE ENERGY PREDICTED BY IDOCK:   -4.27 KCAL/MOL
REMARK 922        TOTAL FREE ENERGY PREDICTED BY IDOCK:   -4.55 KCAL/MOL
REMARK 923 INTER-LIGAND FREE ENERGY PREDICTED BY IDOCK:   -4.43 KCAL/MOL
REMARK 924 INTRA-LIGAND FREE ENERGY PREDICTED BY IDOCK:   -0.13 KCAL/MOL
REMARK 927      BINDING AFFINITY PREDICTED BY RF-SCORE:    0.00 PKD
ROOT
HETATM    1  O   UNL     1      -9.980  13.659  64.744  1.00  0.00    -0.613 OA 
HETATM    2  C   UNL     1     -10.790  14.803  65.028  1.00  0.00    -0.425 C  
HETATM    3  H   UNL     1      -9.201  13.963  64.293  1.00  0.00     0.000 HD 
HETATM    4  O   UNL     1     -11.920  14.145  67.096  1.00  0.00    -0.401 OA 
HETATM    5  C   UNL     1     -12.050  14.311  65.756  1.00  0.00    -0.405 C  
HETATM    6  O   UNL     1     -13.073  13.986  65.163  1.00  0.00    -0.776 OA 
ENDROOT
BRANCH   2   7
HETATM    7  C   UNL     1      -9.994  15.853  65.789  1.00  0.00    -0.391 A  
HETATM    8  C   UNL     1      -8.764  15.550  66.397  1.00  0.00    -0.333 A  
HETATM    9  C   UNL     1      -8.039  16.532  67.075  1.00  0.00    -0.235 A  
HETATM   10  C   UNL     1      -8.529  17.832  67.154  1.00  0.00    -0.239 A  
HETATM   11  C   UNL     1      -9.742  18.154  66.550  1.00  0.00    -0.344 A  
HETATM   12  C   UNL     1     -10.466  17.175  65.866  1.00  0.00    -0.265 A  
ENDBRANCH   2   7
TORSDOF 1
ENDMDL
MODEL       26
REMARK 921   NORMALIZED FREE ENERGY PREDICTED BY IDOCK:   -4.20 KCAL/MOL
REMARK 922        TOTAL FREE ENERGY PREDICTED BY IDOCK:   -4.48 KCAL/MOL
REMARK 923 INTER-LIGAND FREE ENERGY PREDICTED BY IDOCK:   -4.38 KCAL/MOL
REMARK 924 INTRA-LIGAND FREE ENERGY PREDICTED BY IDOCK:   -0.10 KCAL/MOL
REMARK 927      BINDING AFFINITY PREDICTED BY RF-SCORE:    0.00 PKD
ROOT
HETATM    1  O   UNL     1     -13.212   8.623  73.112  1.00  0.00    -0.826 OA 
HETATM    2  C   UNL     1     -11.975   8.365  72.444  1.00  0.00    -0.384 C  
HETATM    3  H   UNL     1     -13.182   9.516  73.436  1.00  0.00     0.000 HD 
HETATM    4  O   UNL     1     -12.636   6.757  70.722  1.00  0.00    -0.311 OA 
HETATM    5  C   UNL     1     -12.023   6.921  71.920  1.00  0.00    -0.327 C  
HETATM    6  O   UNL     1     -11.634   5.963  72.580  1.00  0.00    -0.302 OA 
ENDROOT
BRANCH   2   7
HETATM    7  C   UNL     1     -11.709   9.413  71.373  1.00  0.00    -0.448 A  
HETATM    8  C   UNL     1     -12.635  10.433  71.093  1.00  0.00    -0.512 A  
HETATM    9  C   UNL     1     -12.365  11.397  70.119  1.00  0.00    -0.344 A  
HETATM   10  C   UNL     1     -11.166  11.360  69.413  1.00  0.00    -0.333 A  
HETATM   11  C   UNL     1     -10.233  10.362  69.683  1.00  0.00    -0.245 A  
HETATM   12  C   UNL     1     -10.498   9.401  70.661  1.00  0.00    -0.354 A  
ENDBRANCH   2   7
TORSDOF 1
ENDMDL
MODEL       27
REMARK 921   NORMALIZED FREE ENERGY PREDICTED BY IDOCK:   -4.20 KCAL/MOL
REMARK 922        TOTAL FREE ENERGY PREDICTED BY IDOCK:   -4.48 KCAL/MOL
REMARK 923 INTER-LIGAND FREE ENERGY PREDICTED BY IDOCK:   -4.35 KCAL/MOL
REMARK 924 INTRA-LIGAND FREE ENERGY PREDICTED BY IDOCK:   -0.12 KCAL/MOL
REMARK 927      BINDING AFFINITY PREDICTED BY RF-SCORE:    0.00 PKD
ROOT
HETATM    1  O   UNL     1     -10.002  12.795  64.502  1.00  0.00    -0.532 OA 
HETATM    2  C   UNL     1     -10.623  14.079  64.389  1.00  0.00    -0.172 C  
HETATM    3  H   UNL     1      -9.071  12.937  64.623  1.00  0.00     0.000 HD 
HETATM    4  O   UNL     1     -12.845  13.670  65.330  1.00  0.00    -0.672 OA 
HETATM    5  C   UNL     1     -12.130  13.849  64.191  1.00  0.00    -0.425 C  
HETATM    6  O   UNL     1     -12.642  13.729  63.084  1.00  0.00    -0.793 OA 
ENDROOT
BRANCH   2   7
HETATM    7  C   UNL     1     -10.272  14.956  65.581  1.00  0.00    -0.382 A  
HETATM    8  C   UNL     1     -10.604  16.321  65.616  1.00  0.00    -0.360 A  
HETATM    9  C   UNL     1     -10.290  17.106  66.728  1.00  0.00    -0.302 A  
HETATM   10  C   UNL     1      -9.643  16.539  67.823  1.00  0.00    -0.232 A  
HETATM   11  C   UNL     1      -9.314  15.186  67.810  1.00  0.00    -0.189 A  
HETATM   12  C   UNL     1      -9.632  14.398  66.702  1.00  0.00    -0.295 A  
ENDBRANCH   2   7
TORSDOF 1
ENDMDL
MODEL       28
REMARK 921   NORMALIZED FREE ENERGY PREDICTED BY IDOCK:   -4.19 KCAL/MOL
REMARK 922        TOTAL FREE ENERGY PREDICTED BY IDOCK:   -4.47 KCAL/MOL
REMARK 923 INTER-LIGAND FREE ENERGY PREDICTED BY IDOCK:   -4.42 KCAL/MOL
REMARK 924 INTRA-LIGAND FREE ENERGY PREDICTED BY IDOCK:   -0.05 KCAL/MOL
REMARK 927      BINDING AFFINITY PREDICTED BY RF-SCORE:    0.00 PKD
ROOT
HETATM    1  O   UNL     1      -9.754  12.681  68.829  1.00  0.00    -0.405 OA 
HETATM    2  C   UNL     1     -11.158  12.688  69.103  1.00  0.00    -0.195 C  
HETATM    3  H   UNL     1      -9.300  12.625  69.662  1.00  0.00     0.000 HD 
HETATM    4  O   UNL     1     -12.084  11.601  67.116  1.00  0.00    -0.575 OA 
HETATM    5  C   UNL     1     -11.893  12.781  67.755  1.00  0.00    -0.332 C  
HETATM    6  O   UNL     1     -12.193  13.850  67.237  1.00  0.00    -0.394 OA 
ENDROOT
BRANCH   2   7
HETATM    7  C   UNL     1     -11.550  11.488  69.951  1.00  0.00    -0.387 A  
HETATM    8  C   UNL     1     -10.833  10.280  69.895  1.00  0.00    -0.355 A  
HETATM    9  C   UNL     1     -11.197   9.195  70.696  1.00  0.00    -0.322 A  
HETATM   10  C   UNL     1     -12.278   9.300  71.566  1.00  0.00    -0.439 A  
HETATM   11  C   UNL     1     -12.994  10.491  71.641  1.00  0.00    -0.581 A  
HETATM   12  C   UNL     1     -12.629  11.580  70.847  1.00  0.00    -0.438 A  
ENDBRANCH   2   7
TORSDOF 1
ENDMDL
MODEL       29
REMARK 921   NORMALIZED FREE ENERGY PREDICTED BY IDOCK:   -4.18 KCAL/MOL
REMARK 922        TOTAL FREE ENERGY PREDICTED BY IDOCK:   -4.46 KCAL/MOL
REMARK 923 INTER-LIGAND FREE ENERGY PREDICTED BY IDOCK:   -4.34 KCAL/MOL
REMARK 924 INTRA-LIGAND FREE ENERGY PREDICTED BY IDOCK:   -0.12 KCAL/MOL
REMARK 927      BINDING AFFINITY PREDICTED BY RF-SCORE:    0.00 PKD
ROOT
HETATM    1  O   UNL     1     -12.332  14.135  68.600  1.00  0.00    -0.553 OA 
HETATM    2  C   UNL     1     -11.393  14.021  67.528  1.00  0.00    -0.321 C  
HETATM    3  H   UNL     1     -11.871  14.499  69.347  1.00  0.00     0.000 HD 
HETATM    4  O   UNL     1     -12.811  14.329  65.557  1.00  0.00    -0.539 OA 
HETATM    5  C   UNL     1     -12.139  13.432  66.319  1.00  0.00    -0.422 C  
HETATM    6  O   UNL     1     -12.216  12.226  66.113  1.00  0.00    -0.647 OA 
ENDROOT
BRANCH   2   7
HETATM    7  C   UNL     1     -10.716  15.356  67.257  1.00  0.00    -0.307 A  
HETATM    8  C   UNL     1     -11.145  16.541  67.880  1.00  0.00    -0.229 A  
HETATM    9  C   UNL     1     -10.498  17.754  67.633  1.00  0.00    -0.393 A  
HETATM   10  C   UNL     1      -9.411  17.802  66.765  1.00  0.00    -0.289 A  
HETATM   11  C   UNL     1      -8.966  16.638  66.146  1.00  0.00    -0.321 A  
HETATM   12  C   UNL     1      -9.607  15.422  66.395  1.00  0.00    -0.319 A  
ENDBRANCH   2   7
TORSDOF 1
ENDMDL
MODEL       30
REMARK 921   NORMALIZED FREE ENERGY PREDICTED BY IDOCK:   -4.18 KCAL/MOL
REMARK 922        TOTAL FREE ENERGY PREDICTED BY IDOCK:   -4.46 KCAL/MOL
REMARK 923 INTER-LIGAND FREE ENERGY PREDICTED BY IDOCK:   -4.33 KCAL/MOL
REMARK 924 INTRA-LIGAND FREE ENERGY PREDICTED BY IDOCK:   -0.13 KCAL/MOL
REMARK 927      BINDING AFFINITY PREDICTED BY RF-SCORE:    0.00 PKD
ROOT
HETATM    1  O   UNL     1     -12.885  13.731  64.628  1.00  0.00    -0.662 OA 
HETATM    2  C   UNL     1     -12.280  12.661  65.357  1.00  0.00    -0.459 C  
HETATM    3  H   UNL     1     -13.649  14.016  65.117  1.00  0.00     0.000 HD 
HETATM    4  O   UNL     1      -9.913  12.911  64.788  1.00  0.00    -0.229 OA 
HETATM    5  C   UNL     1     -11.046  12.200  64.565  1.00  0.00    -0.325 C  
HETATM    6  O   UNL     1     -11.097  11.321  63.712  1.00  0.00    -0.380 OA 
ENDROOT
BRANCH   2   7
HETATM    7  C   UNL     1     -11.987  13.079  66.790  1.00  0.00    -0.434 A  
HETATM    8  C   UNL     1     -12.030  14.427  67.189  1.00  0.00    -0.419 A  
HETATM    9  C   UNL     1     -11.776  14.790  68.513  1.00  0.00    -0.347 A  
HETATM   10  C   UNL     1     -11.479  13.814  69.460  1.00  0.00    -0.327 A  
HETATM   11  C   UNL     1     -11.440  12.473  69.086  1.00  0.00    -0.361 A  
HETATM   12  C   UNL     1     -11.700  12.107  67.763  1.00  0.00    -0.390 A  
ENDBRANCH   2   7
TORSDOF 1
ENDMDL
MODEL       31
REMARK 921   NORMALIZED FREE ENERGY PREDICTED BY IDOCK:   -4.16 KCAL/MOL
REMARK 922        TOTAL FREE ENERGY PREDICTED BY IDOCK:   -4.44 KCAL/MOL
REMARK 923 INTER-LIGAND FREE ENERGY PREDICTED BY IDOCK:   -4.82 KCAL/MOL
REMARK 924 INTRA-LIGAND FREE ENERGY PREDICTED BY IDOCK:    0.38 KCAL/MOL
REMARK 927      BINDING AFFINITY PREDICTED BY RF-SCORE:    0.00 PKD
ROOT
HETATM    1  O   UNL     1     -13.737   9.370  70.709  1.00  0.00    -0.586 OA 
HETATM    2  C   UNL     1     -12.945  10.045  71.690  1.00  0.00    -0.449 C  
HETATM    3  H   UNL     1     -14.557   9.842  70.629  1.00  0.00     0.000 HD 
HETATM    4  O   UNL     1     -10.666   9.610  70.914  1.00  0.00    -0.302 OA 
HETATM    5  C   UNL     1     -11.618   9.280  71.822  1.00  0.00    -0.388 C  
HETATM    6  O   UNL     1     -11.459   8.362  72.618  1.00  0.00    -0.380 OA 
ENDROOT
BRANCH   2   7
HETATM    7  C   UNL     1     -12.790  11.517  71.341  1.00  0.00    -0.489 A  
HETATM    8  C   UNL     1     -12.151  11.933  70.160  1.00  0.00    -0.382 A  
HETATM    9  C   UNL     1     -12.035  13.289  69.848  1.00  0.00    -0.400 A  
HETATM   10  C   UNL     1     -12.558  14.251  70.708  1.00  0.00    -0.427 A  
HETATM   11  C   UNL     1     -13.203  13.859  71.878  1.00  0.00    -0.480 A  
HETATM   12  C   UNL     1     -13.326  12.502  72.189  1.00  0.00    -0.540 A  
ENDBRANCH   2   7
TORSDOF 1
ENDMDL
MODEL       32
REMARK 921   NORMALIZED FREE ENERGY PREDICTED BY IDOCK:   -4.15 KCAL/MOL
REMARK 922        TOTAL FREE ENERGY PREDICTED BY IDOCK:   -4.43 KCAL/MOL
REMARK 923 INTER-LIGAND FREE ENERGY PREDICTED BY IDOCK:   -4.33 KCAL/MOL
REMARK 924 INTRA-LIGAND FREE ENERGY PREDICTED BY IDOCK:   -0.10 KCAL/MOL
REMARK 927      BINDING AFFINITY PREDICTED BY RF-SCORE:    0.00 PKD
ROOT
HETATM    1  O   UNL     1     -11.866  12.855  68.306  1.00  0.00    -0.329 OA 
HETATM    2  C   UNL     1     -11.987  13.754  67.201  1.00  0.00    -0.405 C  
HETATM    3  H   UNL     1     -12.419  12.104  68.127  1.00  0.00     0.000 HD 
HETATM    4  O   UNL     1      -9.788  14.827  67.154  1.00  0.00    -0.228 OA 
HETATM    5  C   UNL     1     -11.094  14.971  67.492  1.00  0.00    -0.317 C  
HETATM    6  O   UNL     1     -11.500  15.964  68.084  1.00  0.00    -0.350 OA 
ENDROOT
BRANCH   2   7
HETATM    7  C   UNL     1     -11.677  13.046  65.891  1.00  0.00    -0.442 A  
HETATM    8  C   UNL     1     -10.907  11.870  65.852  1.00  0.00    -0.342 A  
HETATM    9  C   UNL     1     -10.649  11.224  64.641  1.00  0.00    -0.392 A  
HETATM   10  C   UNL     1     -11.157  11.738  63.452  1.00  0.00    -0.448 A  
HETATM   11  C   UNL     1     -11.929  12.896  63.472  1.00  0.00    -0.629 A  
HETATM   12  C   UNL     1     -12.195  13.542  64.682  1.00  0.00    -0.450 A  
ENDBRANCH   2   7
TORSDOF 1
ENDMDL
MODEL       33
REMARK 921   NORMALIZED FREE ENERGY PREDICTED BY IDOCK:   -4.11 KCAL/MOL
REMARK 922        TOTAL FREE ENERGY PREDICTED BY IDOCK:   -4.39 KCAL/MOL
REMARK 923 INTER-LIGAND FREE ENERGY PREDICTED BY IDOCK:   -4.27 KCAL/MOL
REMARK 924 INTRA-LIGAND FREE ENERGY PREDICTED BY IDOCK:   -0.11 KCAL/MOL
REMARK 927      BINDING AFFINITY PREDICTED BY RF-SCORE:    0.00 PKD
ROOT
HETATM    1  O   UNL     1      -8.469  15.318  66.445  1.00  0.00    -0.399 OA 
HETATM    2  C   UNL     1      -9.563  16.051  65.888  1.00  0.00    -0.335 C  
HETATM    3  H   UNL     1      -7.710  15.888  66.441  1.00  0.00     0.000 HD 
HETATM    4  O   UNL     1     -11.486  15.091  67.058  1.00  0.00    -0.344 OA 
HETATM    5  C   UNL     1     -10.792  15.127  65.894  1.00  0.00    -0.339 C  
HETATM    6  O   UNL     1     -11.070  14.389  64.955  1.00  0.00    -0.340 OA 
ENDROOT
BRANCH   2   7
HETATM    7  C   UNL     1      -9.763  17.366  66.625  1.00  0.00    -0.296 A  
HETATM    8  C   UNL     1      -9.237  17.581  67.910  1.00  0.00    -0.265 A  
HETATM    9  C   UNL     1      -9.415  18.803  68.562  1.00  0.00    -0.400 A  
HETATM   10  C   UNL     1     -10.118  19.830  67.941  1.00  0.00    -0.558 A  
HETATM   11  C   UNL     1     -10.640  19.640  66.664  1.00  0.00    -0.599 A  
HETATM   12  C   UNL     1     -10.457  18.421  66.007  1.00  0.00    -0.400 A  
ENDBRANCH   2   7
TORSDOF 1
ENDMDL
MODEL       34
REMARK 921   NORMALIZED FREE ENERGY PREDICTED BY IDOCK:   -4.11 KCAL/MOL
REMARK 922        TOTAL FREE ENERGY PREDICTED BY IDOCK:   -4.38 KCAL/MOL
REMARK 923 INTER-LIGAND FREE ENERGY PREDICTED BY IDOCK:   -4.26 KCAL/MOL
REMARK 924 INTRA-LIGAND FREE ENERGY PREDICTED BY IDOCK:   -0.12 KCAL/MOL
REMARK 927      BINDING AFFINITY PREDICTED BY RF-SCORE:    0.00 PKD
ROOT
HETATM    1  O   UNL     1      -8.799  14.610  66.840  1.00  0.00    -0.227 OA 
HETATM    2  C   UNL     1     -10.213  14.808  66.769  1.00  0.00    -0.266 C  
HETATM    3  H   UNL     1      -8.645  13.682  66.975  1.00  0.00     0.000 HD 
HETATM    4  O   UNL     1     -10.399  16.729  65.265  1.00  0.00    -0.622 OA 
HETATM    5  C   UNL     1     -10.462  16.309  66.553  1.00  0.00    -0.290 C  
HETATM    6  O   UNL     1     -10.601  17.098  67.481  1.00  0.00    -0.347 OA 
ENDROOT
BRANCH   2   7
HETATM    7  C   UNL     1     -10.832  13.909  65.709  1.00  0.00    -0.289 A  
HETATM    8  C   UNL     1     -10.053  13.303  64.709  1.00  0.00    -0.250 A  
HETATM    9  C   UNL     1     -10.637  12.466  63.756  1.00  0.00    -0.486 A  
HETATM   10  C   UNL     1     -12.007  12.219  63.788  1.00  0.00    -0.609 A  
HETATM   11  C   UNL     1     -12.793  12.803  64.777  1.00  0.00    -0.374 A  
HETATM   12  C   UNL     1     -12.211  13.636  65.736  1.00  0.00    -0.503 A  
ENDBRANCH   2   7
TORSDOF 1
ENDMDL
MODEL       35
REMARK 921   NORMALIZED FREE ENERGY PREDICTED BY IDOCK:   -4.09 KCAL/MOL
REMARK 922        TOTAL FREE ENERGY PREDICTED BY IDOCK:   -4.37 KCAL/MOL
REMARK 923 INTER-LIGAND FREE ENERGY PREDICTED BY IDOCK:   -4.25 KCAL/MOL
REMARK 924 INTRA-LIGAND FREE ENERGY PREDICTED BY IDOCK:   -0.11 KCAL/MOL
REMARK 927      BINDING AFFINITY PREDICTED BY RF-SCORE:    0.00 PKD
ROOT
HETATM    1  O   UNL     1     -12.068  15.890  68.186  1.00  0.00    -0.283 OA 
HETATM    2  C   UNL     1     -11.608  14.673  68.781  1.00  0.00    -0.317 C  
HETATM    3  H   UNL     1     -13.010  15.821  68.084  1.00  0.00     0.000 HD 
HETATM    4  O   UNL     1      -9.665  15.421  70.067  1.00  0.00    -0.241 OA 
HETATM    5  C   UNL     1     -10.084  14.784  68.945  1.00  0.00    -0.237 C  
HETATM    6  O   UNL     1      -9.296  14.421  68.079  1.00  0.00    -0.189 OA 
ENDROOT
BRANCH   2   7
HETATM    7  C   UNL     1     -12.360  14.385  70.072  1.00  0.00    -0.391 A  
HETATM    8  C   UNL     1     -13.067  15.390  70.755  1.00  0.00    -0.479 A  
HETATM    9  C   UNL     1     -13.767  15.101  71.928  1.00  0.00    -0.577 A  
HETATM   10  C   UNL     1     -13.774  13.805  72.436  1.00  0.00    -0.692 A  
HETATM   11  C   UNL     1     -13.087  12.795  71.769  1.00  0.00    -0.455 A  
HETATM   12  C   UNL     1     -12.392  13.079  70.592  1.00  0.00    -0.391 A  
ENDBRANCH   2   7
TORSDOF 1
ENDMDL
MODEL       36
REMARK 921   NORMALIZED FREE ENERGY PREDICTED BY IDOCK:   -4.08 KCAL/MOL
REMARK 922        TOTAL FREE ENERGY PREDICTED BY IDOCK:   -4.36 KCAL/MOL
REMARK 923 INTER-LIGAND FREE ENERGY PREDICTED BY IDOCK:   -4.35 KCAL/MOL
REMARK 924 INTRA-LIGAND FREE ENERGY PREDICTED BY IDOCK:   -0.01 KCAL/MOL
REMARK 927      BINDING AFFINITY PREDICTED BY RF-SCORE:    0.00 PKD
ROOT
HETATM    1  O   UNL     1     -12.289   6.071  72.562  1.00  0.00    -0.545 OA 
HETATM    2  C   UNL     1     -11.281   6.837  71.896  1.00  0.00    -0.260 C  
HETATM    3  H   UNL     1     -12.550   6.553  73.338  1.00  0.00     0.000 HD 
HETATM    4  O   UNL     1     -11.639   6.244  69.549  1.00  0.00    -0.423 OA 
HETATM    5  C   UNL     1     -10.858   6.055  70.641  1.00  0.00    -0.297 C  
HETATM    6  O   UNL     1      -9.946   5.236  70.647  1.00  0.00    -0.189 OA 
ENDROOT
BRANCH   2   7
HETATM    7  C   UNL     1     -11.770   8.250  71.621  1.00  0.00    -0.341 A  
HETATM    8  C   UNL     1     -12.981   8.729  72.149  1.00  0.00    -0.457 A  
HETATM    9  C   UNL     1     -13.404  10.037  71.900  1.00  0.00    -0.516 A  
HETATM   10  C   UNL     1     -12.623  10.888  71.124  1.00  0.00    -0.532 A  
HETATM   11  C   UNL     1     -11.415  10.435  70.599  1.00  0.00    -0.438 A  
HETATM   12  C   UNL     1     -10.987   9.129  70.852  1.00  0.00    -0.349 A  
ENDBRANCH   2   7
TORSDOF 1
ENDMDL
MODEL       37
REMARK 921   NORMALIZED FREE ENERGY PREDICTED BY IDOCK:   -4.07 KCAL/MOL
REMARK 922        TOTAL FREE ENERGY PREDICTED BY IDOCK:   -4.35 KCAL/MOL
REMARK 923 INTER-LIGAND FREE ENERGY PREDICTED BY IDOCK:   -4.29 KCAL/MOL
REMARK 924 INTRA-LIGAND FREE ENERGY PREDICTED BY IDOCK:   -0.06 KCAL/MOL
REMARK 927      BINDING AFFINITY PREDICTED BY RF-SCORE:    0.00 PKD
ROOT
HETATM    1  O   UNL     1     -10.753  17.250  69.502  1.00  0.00    -0.386 OA 
HETATM    2  C   UNL     1     -10.865  15.908  69.983  1.00  0.00    -0.353 C  
HETATM    3  H   UNL     1     -10.114  17.251  68.799  1.00  0.00     0.000 HD 
HETATM    4  O   UNL     1     -13.193  15.812  70.731  1.00  0.00    -0.542 OA 
HETATM    5  C   UNL     1     -11.898  15.907  71.121  1.00  0.00    -0.438 C  
HETATM    6  O   UNL     1     -11.590  16.087  72.294  1.00  0.00    -0.440 OA 
ENDROOT
BRANCH   2   7
HETATM    7  C   UNL     1     -11.184  14.951  68.845  1.00  0.00    -0.282 A  
HETATM    8  C   UNL     1     -11.276  15.391  67.513  1.00  0.00    -0.302 A  
HETATM    9  C   UNL     1     -11.551  14.494  66.479  1.00  0.00    -0.379 A  
HETATM   10  C   UNL     1     -11.735  13.143  66.758  1.00  0.00    -0.439 A  
HETATM   11  C   UNL     1     -11.638  12.685  68.069  1.00  0.00    -0.394 A  
HETATM   12  C   UNL     1     -11.357  13.580  69.105  1.00  0.00    -0.333 A  
ENDBRANCH   2   7
TORSDOF 1
ENDMDL
MODEL       38
REMARK 921   NORMALIZED FREE ENERGY PREDICTED BY IDOCK:   -4.06 KCAL/MOL
REMARK 922        TOTAL FREE ENERGY PREDICTED BY IDOCK:   -4.34 KCAL/MOL
REMARK 923 INTER-LIGAND FREE ENERGY PREDICTED BY IDOCK:   -4.21 KCAL/MOL
REMARK 924 INTRA-LIGAND FREE ENERGY PREDICTED BY IDOCK:   -0.12 KCAL/MOL
REMARK 927      BINDING AFFINITY PREDICTED BY RF-SCORE:    0.00 PKD
ROOT
HETATM    1  O   UNL     1     -10.644  17.157  67.527  1.00  0.00    -0.347 OA 
HETATM    2  C   UNL     1     -10.248  16.622  66.261  1.00  0.00    -0.334 C  
HETATM    3  H   UNL     1     -11.594  17.177  67.545  1.00  0.00     0.000 HD 
HETATM    4  O   UNL     1      -8.142  15.500  66.802  1.00  0.00    -0.232 OA 
HETATM    5  C   UNL     1      -8.712  16.590  66.231  1.00  0.00    -0.333 C  
HETATM    6  O   UNL     1      -8.038  17.527  65.818  1.00  0.00    -0.551 OA 
ENDROOT
BRANCH   2   7
HETATM    7  C   UNL     1     -10.910  15.275  66.013  1.00  0.00    -0.331 A  
HETATM    8  C   UNL     1     -10.913  14.677  64.740  1.00  0.00    -0.399 A  
HETATM    9  C   UNL     1     -11.509  13.431  64.536  1.00  0.00    -0.402 A  
HETATM   10  C   UNL     1     -12.108  12.761  65.599  1.00  0.00    -0.514 A  
HETATM   11  C   UNL     1     -12.107  13.332  66.868  1.00  0.00    -0.389 A  
HETATM   12  C   UNL     1     -11.506  14.576  67.077  1.00  0.00    -0.383 A  
ENDBRANCH   2   7
TORSDOF 1
ENDMDL
MODEL       39
REMARK 921   NORMALIZED FREE ENERGY PREDICTED BY IDOCK:   -4.05 KCAL/MOL
REMARK 922        TOTAL FREE ENERGY PREDICTED BY IDOCK:   -4.33 KCAL/MOL
REMARK 923 INTER-LIGAND FREE ENERGY PREDICTED BY IDOCK:   -4.50 KCAL/MOL
REMARK 924 INTRA-LIGAND FREE ENERGY PREDICTED BY IDOCK:    0.17 KCAL/MOL
REMARK 927      BINDING AFFINITY PREDICTED BY RF-SCORE:    0.00 PKD
ROOT
HETATM    1  O   UNL     1      -9.822  13.171  68.879  1.00  0.00    -0.415 OA 
HETATM    2  C   UNL     1     -11.145  13.699  69.010  1.00  0.00    -0.255 C  
HETATM    3  H   UNL     1      -9.416  13.200  69.737  1.00  0.00     0.000 HD 
HETATM    4  O   UNL     1     -12.373  12.470  67.287  1.00  0.00    -0.359 OA 
HETATM    5  C   UNL     1     -11.803  13.654  67.622  1.00  0.00    -0.369 C  
HETATM    6  O   UNL     1     -11.729  14.582  66.824  1.00  0.00    -0.373 OA 
ENDROOT
BRANCH   2   7
HETATM    7  C   UNL     1     -11.916  12.961  70.095  1.00  0.00    -0.373 A  
HETATM    8  C   UNL     1     -12.692  13.647  71.045  1.00  0.00    -0.408 A  
HETATM    9  C   UNL     1     -13.407  12.951  72.022  1.00  0.00    -0.579 A  
HETATM   10  C   UNL     1     -13.363  11.560  72.062  1.00  0.00    -0.397 A  
HETATM   11  C   UNL     1     -12.607  10.863  71.124  1.00  0.00    -0.532 A  
HETATM   12  C   UNL     1     -11.895  11.556  70.142  1.00  0.00    -0.440 A  
ENDBRANCH   2   7
TORSDOF 1
ENDMDL
MODEL       40
REMARK 921   NORMALIZED FREE ENERGY PREDICTED BY IDOCK:   -4.04 KCAL/MOL
REMARK 922        TOTAL FREE ENERGY PREDICTED BY IDOCK:   -4.31 KCAL/MOL
REMARK 923 INTER-LIGAND FREE ENERGY PREDICTED BY IDOCK:   -4.21 KCAL/MOL
REMARK 924 INTRA-LIGAND FREE ENERGY PREDICTED BY IDOCK:   -0.10 KCAL/MOL
REMARK 927      BINDING AFFINITY PREDICTED BY RF-SCORE:    0.00 PKD
ROOT
HETATM    1  O   UNL     1     -11.994   9.697  69.676  1.00  0.00    -0.439 OA 
HETATM    2  C   UNL     1     -11.760   9.635  71.085  1.00  0.00    -0.372 C  
HETATM    3  H   UNL     1     -11.207   9.390  69.241  1.00  0.00     0.000 HD 
HETATM    4  O   UNL     1     -14.000   9.198  71.969  1.00  0.00    -0.402 OA 
HETATM    5  C   UNL     1     -13.033  10.132  71.789  1.00  0.00    -0.462 C  
HETATM    6  O   UNL     1     -13.215  11.310  72.074  1.00  0.00    -0.506 OA 
ENDROOT
BRANCH   2   7
HETATM    7  C   UNL     1     -11.317   8.240  71.499  1.00  0.00    -0.320 A  
HETATM    8  C   UNL     1     -10.957   7.944  72.825  1.00  0.00    -0.456 A  
HETATM    9  C   UNL     1     -10.571   6.652  73.190  1.00  0.00    -0.299 A  
HETATM   10  C   UNL     1     -10.542   5.636  72.239  1.00  0.00    -0.270 A  
HETATM   11  C   UNL     1     -10.904   5.909  70.922  1.00  0.00    -0.347 A  
HETATM   12  C   UNL     1     -11.297   7.198  70.556  1.00  0.00    -0.333 A  
ENDBRANCH   2   7
TORSDOF 1
ENDMDL
MODEL       41
REMARK 921   NORMALIZED FREE ENERGY PREDICTED BY IDOCK:   -4.02 KCAL/MOL
REMARK 922        TOTAL FREE ENERGY PREDICTED BY IDOCK:   -4.29 KCAL/MOL
REMARK 923 INTER-LIGAND FREE ENERGY PREDICTED BY IDOCK:   -4.19 KCAL/MOL
REMARK 924 INTRA-LIGAND FREE ENERGY PREDICTED BY IDOCK:   -0.09 KCAL/MOL
REMARK 927      BINDING AFFINITY PREDICTED BY RF-SCORE:    0.00 PKD
ROOT
HETATM    1  O   UNL     1     -12.190   9.854  69.726  1.00  0.00    -0.469 OA 
HETATM    2  C   UNL     1     -11.907   9.759  71.125  1.00  0.00    -0.382 C  
HETATM    3  H   UNL     1     -11.428   9.536  69.257  1.00  0.00     0.000 HD 
HETATM    4  O   UNL     1     -14.124   9.364  72.083  1.00  0.00    -0.337 OA 
HETATM    5  C   UNL     1     -13.140  10.275  71.884  1.00  0.00    -0.463 C  
HETATM    6  O   UNL     1     -13.280  11.452  72.198  1.00  0.00    -0.490 OA 
ENDROOT
BRANCH   2   7
HETATM    7  C   UNL     1     -11.486   8.346  71.497  1.00  0.00    -0.335 A  
HETATM    8  C   UNL     1     -11.446   7.313  70.544  1.00  0.00    -0.310 A  
HETATM    9  C   UNL     1     -11.039   6.025  70.901  1.00  0.00    -0.352 A  
HETATM   10  C   UNL     1     -10.662   5.750  72.213  1.00  0.00    -0.282 A  
HETATM   11  C   UNL     1     -10.687   6.763  73.168  1.00  0.00    -0.326 A  
HETATM   12  C   UNL     1     -11.088   8.053  72.812  1.00  0.00    -0.448 A  
ENDBRANCH   2   7
TORSDOF 1
ENDMDL
MODEL       42
REMARK 921   NORMALIZED FREE ENERGY PREDICTED BY IDOCK:   -3.99 KCAL/MOL
REMARK 922        TOTAL FREE ENERGY PREDICTED BY IDOCK:   -4.26 KCAL/MOL
REMARK 923 INTER-LIGAND FREE ENERGY PREDICTED BY IDOCK:   -4.13 KCAL/MOL
REMARK 924 INTRA-LIGAND FREE ENERGY PREDICTED BY IDOCK:   -0.13 KCAL/MOL
REMARK 927      BINDING AFFINITY PREDICTED BY RF-SCORE:    0.00 PKD
ROOT
HETATM    1  O   UNL     1     -10.753  13.540  69.209  1.00  0.00    -0.421 OA 
HETATM    2  C   UNL     1     -10.562  12.408  68.357  1.00  0.00    -0.236 C  
HETATM    3  H   UNL     1     -10.412  14.302  68.754  1.00  0.00     0.000 HD 
HETATM    4  O   UNL     1     -12.447  10.971  68.968  1.00  0.00    -0.449 OA 
HETATM    5  C   UNL     1     -11.112  11.176  69.094  1.00  0.00    -0.248 C  
HETATM    6  O   UNL     1     -10.421  10.483  69.832  1.00  0.00    -0.241 OA 
ENDROOT
BRANCH   2   7
HETATM    7  C   UNL     1     -11.181  12.650  66.989  1.00  0.00    -0.348 A  
HETATM    8  C   UNL     1     -12.068  13.715  66.758  1.00  0.00    -0.445 A  
HETATM    9  C   UNL     1     -12.612  13.932  65.489  1.00  0.00    -0.560 A  
HETATM   10  C   UNL     1     -12.275  13.091  64.432  1.00  0.00    -0.471 A  
HETATM   11  C   UNL     1     -11.391  12.036  64.639  1.00  0.00    -0.377 A  
HETATM   12  C   UNL     1     -10.841  11.821  65.905  1.00  0.00    -0.339 A  
ENDBRANCH   2   7
TORSDOF 1
ENDMDL
MODEL       43
REMARK 921   NORMALIZED FREE ENERGY PREDICTED BY IDOCK:   -3.99 KCAL/MOL
REMARK 922        TOTAL FREE ENERGY PREDICTED BY IDOCK:   -4.25 KCAL/MOL
REMARK 923 INTER-LIGAND FREE ENERGY PREDICTED BY IDOCK:   -4.14 KCAL/MOL
REMARK 924 INTRA-LIGAND FREE ENERGY PREDICTED BY IDOCK:   -0.12 KCAL/MOL
REMARK 927      BINDING AFFINITY PREDICTED BY RF-SCORE:    0.00 PKD
ROOT
HETATM    1  O   UNL     1     -11.628  13.494  70.545  1.00  0.00    -0.521 OA 
HETATM    2  C   UNL     1     -11.868  14.387  69.455  1.00  0.00    -0.325 C  
HETATM    3  H   UNL     1     -12.247  12.778  70.471  1.00  0.00     0.000 HD 
HETATM    4  O   UNL     1      -9.643  15.317  69.040  1.00  0.00    -0.212 OA 
HETATM    5  C   UNL     1     -10.867  15.548  69.576  1.00  0.00    -0.267 C  
HETATM    6  O   UNL     1     -11.113  16.571  70.204  1.00  0.00    -0.348 OA 
ENDROOT
BRANCH   2   7
HETATM    7  C   UNL     1     -11.814  13.647  68.127  1.00  0.00    -0.407 A  
HETATM    8  C   UNL     1     -12.156  14.274  66.917  1.00  0.00    -0.440 A  
HETATM    9  C   UNL     1     -12.081  13.583  65.706  1.00  0.00    -0.473 A  
HETATM   10  C   UNL     1     -11.660  12.256  65.683  1.00  0.00    -0.433 A  
HETATM   11  C   UNL     1     -11.309  11.620  66.871  1.00  0.00    -0.364 A  
HETATM   12  C   UNL     1     -11.376  12.311  68.083  1.00  0.00    -0.349 A  
ENDBRANCH   2   7
TORSDOF 1
ENDMDL
MODEL       44
REMARK 921   NORMALIZED FREE ENERGY PREDICTED BY IDOCK:   -3.98 KCAL/MOL
REMARK 922        TOTAL FREE ENERGY PREDICTED BY IDOCK:   -4.25 KCAL/MOL
REMARK 923 INTER-LIGAND FREE ENERGY PREDICTED BY IDOCK:   -4.12 KCAL/MOL
REMARK 924 INTRA-LIGAND FREE ENERGY PREDICTED BY IDOCK:   -0.13 KCAL/MOL
REMARK 927      BINDING AFFINITY PREDICTED BY RF-SCORE:    0.00 PKD
ROOT
HETATM    1  O   UNL     1     -12.434  12.610  65.485  1.00  0.00    -0.622 OA 
HETATM    2  C   UNL     1     -12.160  13.083  66.806  1.00  0.00    -0.300 C  
HETATM    3  H   UNL     1     -12.897  13.299  65.023  1.00  0.00     0.000 HD 
HETATM    4  O   UNL     1     -10.072  11.929  67.352  1.00  0.00    -0.194 OA 
HETATM    5  C   UNL     1     -11.413  11.966  67.553  1.00  0.00    -0.326 C  
HETATM    6  O   UNL     1     -11.991  11.101  68.200  1.00  0.00    -0.615 OA 
ENDROOT
BRANCH   2   7
HETATM    7  C   UNL     1     -11.422  14.412  66.762  1.00  0.00    -0.381 A  
HETATM    8  C   UNL     1     -10.882  14.918  65.567  1.00  0.00    -0.365 A  
HETATM    9  C   UNL     1     -10.224  16.149  65.543  1.00  0.00    -0.360 A  
HETATM   10  C   UNL     1     -10.099  16.897  66.710  1.00  0.00    -0.294 A  
HETATM   11  C   UNL     1     -10.635  16.417  67.902  1.00  0.00    -0.320 A  
HETATM   12  C   UNL     1     -11.299  15.189  67.927  1.00  0.00    -0.346 A  
ENDBRANCH   2   7
TORSDOF 1
ENDMDL
MODEL       45
REMARK 921   NORMALIZED FREE ENERGY PREDICTED BY IDOCK:   -3.98 KCAL/MOL
REMARK 922        TOTAL FREE ENERGY PREDICTED BY IDOCK:   -4.24 KCAL/MOL
REMARK 923 INTER-LIGAND FREE ENERGY PREDICTED BY IDOCK:   -4.15 KCAL/MOL
REMARK 924 INTRA-LIGAND FREE ENERGY PREDICTED BY IDOCK:   -0.09 KCAL/MOL
REMARK 927      BINDING AFFINITY PREDICTED BY RF-SCORE:    0.00 PKD
ROOT
HETATM    1  O   UNL     1     -13.191   8.484  73.052  1.00  0.00    -0.732 OA 
HETATM    2  C   UNL     1     -12.922   8.282  71.663  1.00  0.00    -0.337 C  
HETATM    3  H   UNL     1     -13.488   7.656  73.411  1.00  0.00     0.000 HD 
HETATM    4  O   UNL     1     -11.121   9.884  71.239  1.00  0.00    -0.351 OA 
HETATM    5  C   UNL     1     -12.443   9.622  71.083  1.00  0.00    -0.332 C  
HETATM    6  O   UNL     1     -13.211  10.451  70.607  1.00  0.00    -0.350 OA 
ENDROOT
BRANCH   2   7
HETATM    7  C   UNL     1     -11.952   7.128  71.462  1.00  0.00    -0.361 A  
HETATM    8  C   UNL     1     -11.402   6.428  72.549  1.00  0.00    -0.299 A  
HETATM    9  C   UNL     1     -10.527   5.358  72.344  1.00  0.00    -0.267 A  
HETATM   10  C   UNL     1     -10.192   4.969  71.051  1.00  0.00    -0.283 A  
HETATM   11  C   UNL     1     -10.734   5.644  69.961  1.00  0.00    -0.390 A  
HETATM   12  C   UNL     1     -11.613   6.710  70.163  1.00  0.00    -0.446 A  
ENDBRANCH   2   7
TORSDOF 1
ENDMDL
MODEL       46
REMARK 921   NORMALIZED FREE ENERGY PREDICTED BY IDOCK:   -3.97 KCAL/MOL
REMARK 922        TOTAL FREE ENERGY PREDICTED BY IDOCK:   -4.24 KCAL/MOL
REMARK 923 INTER-LIGAND FREE ENERGY PREDICTED BY IDOCK:   -4.30 KCAL/MOL
REMARK 924 INTRA-LIGAND FREE ENERGY PREDICTED BY IDOCK:    0.07 KCAL/MOL
REMARK 927      BINDING AFFINITY PREDICTED BY RF-SCORE:    0.00 PKD
ROOT
HETATM    1  O   UNL     1      -9.631  11.867  69.148  1.00  0.00    -0.397 OA 
HETATM    2  C   UNL     1     -11.000  11.462  69.059  1.00  0.00    -0.236 C  
HETATM    3  H   UNL     1      -9.490  12.210  70.023  1.00  0.00     0.000 HD 
HETATM    4  O   UNL     1     -10.894   9.606  67.467  1.00  0.00    -0.286 OA 
HETATM    5  C   UNL     1     -11.229  10.908  67.643  1.00  0.00    -0.309 C  
HETATM    6  O   UNL     1     -11.588  11.613  66.707  1.00  0.00    -0.503 OA 
ENDROOT
BRANCH   2   7
HETATM    7  C   UNL     1     -11.349  10.491  70.177  1.00  0.00    -0.400 A  
HETATM    8  C   UNL     1     -12.607  10.510  70.804  1.00  0.00    -0.474 A  
HETATM    9  C   UNL     1     -12.916   9.598  71.816  1.00  0.00    -0.514 A  
HETATM   10  C   UNL     1     -11.976   8.652  72.215  1.00  0.00    -0.438 A  
HETATM   11  C   UNL     1     -10.728   8.612  71.599  1.00  0.00    -0.374 A  
HETATM   12  C   UNL     1     -10.419   9.518  70.583  1.00  0.00    -0.374 A  
ENDBRANCH   2   7
TORSDOF 1
ENDMDL
MODEL       47
REMARK 921   NORMALIZED FREE ENERGY PREDICTED BY IDOCK:   -3.97 KCAL/MOL
REMARK 922        TOTAL FREE ENERGY PREDICTED BY IDOCK:   -4.23 KCAL/MOL
REMARK 923 INTER-LIGAND FREE ENERGY PREDICTED BY IDOCK:   -4.11 KCAL/MOL
REMARK 924 INTRA-LIGAND FREE ENERGY PREDICTED BY IDOCK:   -0.12 KCAL/MOL
REMARK 927      BINDING AFFINITY PREDICTED BY RF-SCORE:    0.00 PKD
ROOT
HETATM    1  O   UNL     1     -11.228  15.265  67.598  1.00  0.00    -0.313 OA 
HETATM    2  C   UNL     1     -10.162  15.670  66.736  1.00  0.00    -0.276 C  
HETATM    3  H   UNL     1     -10.993  15.519  68.483  1.00  0.00     0.000 HD 
HETATM    4  O   UNL     1     -11.334  16.133  64.638  1.00  0.00    -0.429 OA 
HETATM    5  C   UNL     1     -10.542  15.258  65.304  1.00  0.00    -0.417 C  
HETATM    6  O   UNL     1     -10.243  14.168  64.828  1.00  0.00    -0.419 OA 
ENDROOT
BRANCH   2   7
HETATM    7  C   UNL     1      -9.864  17.152  66.904  1.00  0.00    -0.285 A  
HETATM    8  C   UNL     1     -10.777  18.023  67.523  1.00  0.00    -0.352 A  
HETATM    9  C   UNL     1     -10.477  19.378  67.685  1.00  0.00    -0.573 A  
HETATM   10  C   UNL     1      -9.260  19.882  67.236  1.00  0.00    -0.453 A  
HETATM   11  C   UNL     1      -8.339  19.033  66.629  1.00  0.00    -0.310 A  
HETATM   12  C   UNL     1      -8.634  17.677  66.471  1.00  0.00    -0.287 A  
ENDBRANCH   2   7
TORSDOF 1
ENDMDL
MODEL       48
REMARK 921   NORMALIZED FREE ENERGY PREDICTED BY IDOCK:   -3.94 KCAL/MOL
REMARK 922        TOTAL FREE ENERGY PREDICTED BY IDOCK:   -4.21 KCAL/MOL
REMARK 923 INTER-LIGAND FREE ENERGY PREDICTED BY IDOCK:   -4.10 KCAL/MOL
REMARK 924 INTRA-LIGAND FREE ENERGY PREDICTED BY IDOCK:   -0.10 KCAL/MOL
REMARK 927      BINDING AFFINITY PREDICTED BY RF-SCORE:    0.00 PKD
ROOT
HETATM    1  O   UNL     1     -10.848  19.403  66.753  1.00  0.00    -0.454 OA 
HETATM    2  C   UNL     1      -9.992  18.582  67.552  1.00  0.00    -0.332 C  
HETATM    3  H   UNL     1     -10.935  20.240  67.194  1.00  0.00     0.000 HD 
HETATM    4  O   UNL     1      -8.902  17.173  65.873  1.00  0.00    -0.520 OA 
HETATM    5  C   UNL     1      -9.852  17.227  66.840  1.00  0.00    -0.287 C  
HETATM    6  O   UNL     1     -10.612  16.287  67.049  1.00  0.00    -0.314 OA 
ENDROOT
BRANCH   2   7
HETATM    7  C   UNL     1      -8.672  19.285  67.828  1.00  0.00    -0.345 A  
HETATM    8  C   UNL     1      -8.213  20.338  67.019  1.00  0.00    -0.369 A  
HETATM    9  C   UNL     1      -7.007  20.985  67.300  1.00  0.00    -0.428 A  
HETATM   10  C   UNL     1      -6.243  20.592  68.395  1.00  0.00    -0.365 A  
HETATM   11  C   UNL     1      -6.686  19.557  69.214  1.00  0.00    -0.376 A  
HETATM   12  C   UNL     1      -7.894  18.913  68.939  1.00  0.00    -0.314 A  
ENDBRANCH   2   7
TORSDOF 1
ENDMDL
MODEL       49
REMARK 921   NORMALIZED FREE ENERGY PREDICTED BY IDOCK:   -3.93 KCAL/MOL
REMARK 922        TOTAL FREE ENERGY PREDICTED BY IDOCK:   -4.20 KCAL/MOL
REMARK 923 INTER-LIGAND FREE ENERGY PREDICTED BY IDOCK:   -4.16 KCAL/MOL
REMARK 924 INTRA-LIGAND FREE ENERGY PREDICTED BY IDOCK:   -0.04 KCAL/MOL
REMARK 927      BINDING AFFINITY PREDICTED BY RF-SCORE:    0.00 PKD
ROOT
HETATM    1  O   UNL     1     -12.012   6.736  69.950  1.00  0.00    -0.651 OA 
HETATM    2  C   UNL     1     -12.334   7.302  71.223  1.00  0.00    -0.366 C  
HETATM    3  H   UNL     1     -12.623   7.091  69.315  1.00  0.00     0.000 HD 
HETATM    4  O   UNL     1     -10.154   7.369  72.332  1.00  0.00    -0.175 OA 
HETATM    5  C   UNL     1     -11.345   6.727  72.250  1.00  0.00    -0.273 C  
HETATM    6  O   UNL     1     -11.567   5.697  72.878  1.00  0.00    -0.277 OA 
ENDROOT
BRANCH   2   7
HETATM    7  C   UNL     1     -12.351   8.821  71.150  1.00  0.00    -0.258 A  
HETATM    8  C   UNL     1     -11.529   9.527  70.253  1.00  0.00    -0.256 A  
HETATM    9  C   UNL     1     -11.573  10.921  70.188  1.00  0.00    -0.425 A  
HETATM   10  C   UNL     1     -12.439  11.632  71.014  1.00  0.00    -0.436 A  
HETATM   11  C   UNL     1     -13.267  10.951  71.902  1.00  0.00    -0.508 A  
HETATM   12  C   UNL     1     -13.230   9.556  71.965  1.00  0.00    -0.539 A  
ENDBRANCH   2   7
TORSDOF 1
ENDMDL
MODEL       50
REMARK 921   NORMALIZED FREE ENERGY PREDICTED BY IDOCK:   -3.92 KCAL/MOL
REMARK 922        TOTAL FREE ENERGY PREDICTED BY IDOCK:   -4.18 KCAL/MOL
REMARK 923 INTER-LIGAND FREE ENERGY PREDICTED BY IDOCK:   -4.05 KCAL/MOL
REMARK 924 INTRA-LIGAND FREE ENERGY PREDICTED BY IDOCK:   -0.13 KCAL/MOL
REMARK 927      BINDING AFFINITY PREDICTED BY RF-SCORE:    0.00 PKD
ROOT
HETATM    1  O   UNL     1     -14.143  15.471  70.584  1.00  0.00    -0.849 OA 
HETATM    2  C   UNL     1     -12.854  15.350  71.190  1.00  0.00    -0.455 C  
HETATM    3  H   UNL     1     -14.113  16.214  69.993  1.00  0.00     0.000 HD 
HETATM    4  O   UNL     1     -12.680  12.940  71.575  1.00  0.00    -0.325 OA 
HETATM    5  C   UNL     1     -12.902  14.149  72.148  1.00  0.00    -0.332 C  
HETATM    6  O   UNL     1     -13.223  14.254  73.326  1.00  0.00    -0.614 OA 
ENDROOT
BRANCH   2   7
HETATM    7  C   UNL     1     -11.764  15.267  70.132  1.00  0.00    -0.342 A  
HETATM    8  C   UNL     1     -12.068  15.060  68.775  1.00  0.00    -0.215 A  
HETATM    9  C   UNL     1     -11.055  15.005  67.815  1.00  0.00    -0.312 A  
HETATM   10  C   UNL     1      -9.724  15.159  68.194  1.00  0.00    -0.217 A  
HETATM   11  C   UNL     1      -9.405  15.373  69.532  1.00  0.00    -0.252 A  
HETATM   12  C   UNL     1     -10.416  15.435  70.493  1.00  0.00    -0.140 A  
ENDBRANCH   2   7
TORSDOF 1
ENDMDL
MODEL       51
REMARK 921   NORMALIZED FREE ENERGY PREDICTED BY IDOCK:   -3.92 KCAL/MOL
REMARK 922        TOTAL FREE ENERGY PREDICTED BY IDOCK:   -4.18 KCAL/MOL
REMARK 923 INTER-LIGAND FREE ENERGY PREDICTED BY IDOCK:   -4.09 KCAL/MOL
REMARK 924 INTRA-LIGAND FREE ENERGY PREDICTED BY IDOCK:   -0.09 KCAL/MOL
REMARK 927      BINDING AFFINITY PREDICTED BY RF-SCORE:    0.00 PKD
ROOT
HETATM    1  O   UNL     1      -9.236  16.913  65.615  1.00  0.00    -0.512 OA 
HETATM    2  C   UNL     1      -9.465  15.832  66.522  1.00  0.00    -0.272 C  
HETATM    3  H   UNL     1      -9.084  16.538  64.755  1.00  0.00     0.000 HD 
HETATM    4  O   UNL     1     -10.984  16.835  68.159  1.00  0.00    -0.356 OA 
HETATM    5  C   UNL     1      -9.711  16.438  67.914  1.00  0.00    -0.235 C  
HETATM    6  O   UNL     1      -8.805  16.651  68.712  1.00  0.00    -0.249 OA 
ENDROOT
BRANCH   2   7
HETATM    7  C   UNL     1     -10.587  14.935  66.022  1.00  0.00    -0.321 A  
HETATM    8  C   UNL     1     -11.285  15.217  64.835  1.00  0.00    -0.424 A  
HETATM    9  C   UNL     1     -12.299  14.370  64.382  1.00  0.00    -0.428 A  
HETATM   10  C   UNL     1     -12.629  13.228  65.104  1.00  0.00    -0.512 A  
HETATM   11  C   UNL     1     -11.944  12.926  66.278  1.00  0.00    -0.472 A  
HETATM   12  C   UNL     1     -10.925  13.768  66.730  1.00  0.00    -0.307 A  
ENDBRANCH   2   7
TORSDOF 1
ENDMDL
MODEL       52
REMARK 921   NORMALIZED FREE ENERGY PREDICTED BY IDOCK:   -3.90 KCAL/MOL
REMARK 922        TOTAL FREE ENERGY PREDICTED BY IDOCK:   -4.17 KCAL/MOL
REMARK 923 INTER-LIGAND FREE ENERGY PREDICTED BY IDOCK:   -4.08 KCAL/MOL
REMARK 924 INTRA-LIGAND FREE ENERGY PREDICTED BY IDOCK:   -0.08 KCAL/MOL
REMARK 927      BINDING AFFINITY PREDICTED BY RF-SCORE:    0.00 PKD
ROOT
HETATM    1  O   UNL     1     -12.434  12.610  65.485  1.00  0.00    -0.622 OA 
HETATM    2  C   UNL     1     -12.160  13.083  66.806  1.00  0.00    -0.300 C  
HETATM    3  H   UNL     1     -12.897  13.299  65.023  1.00  0.00     0.000 HD 
HETATM    4  O   UNL     1     -10.072  11.929  67.352  1.00  0.00    -0.194 OA 
HETATM    5  C   UNL     1     -11.413  11.966  67.553  1.00  0.00    -0.326 C  
HETATM    6  O   UNL     1     -11.991  11.101  68.200  1.00  0.00    -0.615 OA 
ENDROOT
BRANCH   2   7
HETATM    7  C   UNL     1     -11.422  14.412  66.762  1.00  0.00    -0.381 A  
HETATM    8  C   UNL     1     -11.051  15.090  67.936  1.00  0.00    -0.310 A  
HETATM    9  C   UNL     1     -10.357  16.300  67.875  1.00  0.00    -0.285 A  
HETATM   10  C   UNL     1     -10.020  16.851  66.642  1.00  0.00    -0.302 A  
HETATM   11  C   UNL     1     -10.371  16.190  65.468  1.00  0.00    -0.391 A  
HETATM   12  C   UNL     1     -11.060  14.976  65.526  1.00  0.00    -0.358 A  
ENDBRANCH   2   7
TORSDOF 1
ENDMDL
MODEL       53
REMARK 921   NORMALIZED FREE ENERGY PREDICTED BY IDOCK:   -3.90 KCAL/MOL
REMARK 922        TOTAL FREE ENERGY PREDICTED BY IDOCK:   -4.16 KCAL/MOL
REMARK 923 INTER-LIGAND FREE ENERGY PREDICTED BY IDOCK:   -4.04 KCAL/MOL
REMARK 924 INTRA-LIGAND FREE ENERGY PREDICTED BY IDOCK:   -0.13 KCAL/MOL
REMARK 927      BINDING AFFINITY PREDICTED BY RF-SCORE:    0.00 PKD
ROOT
HETATM    1  O   UNL     1     -11.295   8.033  69.752  1.00  0.00    -0.455 OA 
HETATM    2  C   UNL     1     -11.999   8.466  70.919  1.00  0.00    -0.177 C  
HETATM    3  H   UNL     1     -11.758   8.374  68.995  1.00  0.00     0.000 HD 
HETATM    4  O   UNL     1     -10.203   8.662  72.570  1.00  0.00    -0.290 OA 
HETATM    5  C   UNL     1     -11.250   7.914  72.143  1.00  0.00    -0.307 C  
HETATM    6  O   UNL     1     -11.507   6.823  72.639  1.00  0.00    -0.247 OA 
ENDROOT
BRANCH   2   7
HETATM    7  C   UNL     1     -12.171   9.977  70.917  1.00  0.00    -0.441 A  
HETATM    8  C   UNL     1     -11.511  10.795  69.983  1.00  0.00    -0.412 A  
HETATM    9  C   UNL     1     -11.697  12.179  69.986  1.00  0.00    -0.330 A  
HETATM   10  C   UNL     1     -12.547  12.768  70.917  1.00  0.00    -0.342 A  
HETATM   11  C   UNL     1     -13.217  11.974  71.844  1.00  0.00    -0.469 A  
HETATM   12  C   UNL     1     -13.038  10.589  71.840  1.00  0.00    -0.567 A  
ENDBRANCH   2   7
TORSDOF 1
ENDMDL
MODEL       54
REMARK 921   NORMALIZED FREE ENERGY PREDICTED BY IDOCK:   -3.88 KCAL/MOL
REMARK 922        TOTAL FREE ENERGY PREDICTED BY IDOCK:   -4.14 KCAL/MOL
REMARK 923 INTER-LIGAND FREE ENERGY PREDICTED BY IDOCK:   -4.06 KCAL/MOL
REMARK 924 INTRA-LIGAND FREE ENERGY PREDICTED BY IDOCK:   -0.08 KCAL/MOL
REMARK 927      BINDING AFFINITY PREDICTED BY RF-SCORE:    0.00 PKD
ROOT
HETATM    1  O   UNL     1      -8.934  15.873  69.344  1.00  0.00    -0.248 OA 
HETATM    2  C   UNL     1      -9.741  16.018  68.173  1.00  0.00    -0.217 C  
HETATM    3  H   UNL     1      -8.142  16.381  69.212  1.00  0.00     0.000 HD 
HETATM    4  O   UNL     1     -12.008  15.822  69.072  1.00  0.00    -0.385 OA 
HETATM    5  C   UNL     1     -11.021  15.194  68.387  1.00  0.00    -0.271 C  
HETATM    6  O   UNL     1     -11.113  14.017  68.058  1.00  0.00    -0.250 OA 
ENDROOT
BRANCH   2   7
HETATM    7  C   UNL     1      -9.984  17.487  67.862  1.00  0.00    -0.312 A  
HETATM    8  C   UNL     1      -9.921  18.473  68.862  1.00  0.00    -0.383 A  
HETATM    9  C   UNL     1     -10.129  19.820  68.553  1.00  0.00    -0.555 A  
HETATM   10  C   UNL     1     -10.398  20.202  67.243  1.00  0.00    -0.494 A  
HETATM   11  C   UNL     1     -10.455  19.241  66.237  1.00  0.00    -0.567 A  
HETATM   12  C   UNL     1     -10.242  17.895  66.542  1.00  0.00    -0.379 A  
ENDBRANCH   2   7
TORSDOF 1
ENDMDL
MODEL       55
REMARK 921   NORMALIZED FREE ENERGY PREDICTED BY IDOCK:   -3.88 KCAL/MOL
REMARK 922        TOTAL FREE ENERGY PREDICTED BY IDOCK:   -4.14 KCAL/MOL
REMARK 923 INTER-LIGAND FREE ENERGY PREDICTED BY IDOCK:   -4.02 KCAL/MOL
REMARK 924 INTRA-LIGAND FREE ENERGY PREDICTED BY IDOCK:   -0.12 KCAL/MOL
REMARK 927      BINDING AFFINITY PREDICTED BY RF-SCORE:    0.00 PKD
ROOT
HETATM    1  O   UNL     1      -8.483  12.777  66.534  1.00  0.00    -0.415 OA 
HETATM    2  C   UNL     1      -9.809  13.284  66.702  1.00  0.00    -0.276 C  
HETATM    3  H   UNL     1      -8.547  11.834  66.437  1.00  0.00     0.000 HD 
HETATM    4  O   UNL     1      -9.649  15.512  65.702  1.00  0.00    -0.336 OA 
HETATM    5  C   UNL     1      -9.707  14.810  66.860  1.00  0.00    -0.240 C  
HETATM    6  O   UNL     1      -9.577  15.355  67.951  1.00  0.00    -0.205 OA 
ENDROOT
BRANCH   2   7
HETATM    7  C   UNL     1     -10.710  12.831  65.563  1.00  0.00    -0.303 A  
HETATM    8  C   UNL     1     -12.093  13.079  65.571  1.00  0.00    -0.501 A  
HETATM    9  C   UNL     1     -12.900  12.671  64.507  1.00  0.00    -0.356 A  
HETATM   10  C   UNL     1     -12.339  12.013  63.417  1.00  0.00    -0.635 A  
HETATM   11  C   UNL     1     -10.969  11.765  63.386  1.00  0.00    -0.458 A  
HETATM   12  C   UNL     1     -10.159  12.178  64.446  1.00  0.00    -0.300 A  
ENDBRANCH   2   7
TORSDOF 1
ENDMDL
MODEL       56
REMARK 921   NORMALIZED FREE ENERGY PREDICTED BY IDOCK:   -3.88 KCAL/MOL
REMARK 922        TOTAL FREE ENERGY PREDICTED BY IDOCK:   -4.14 KCAL/MOL
REMARK 923 INTER-LIGAND FREE ENERGY PREDICTED BY IDOCK:   -4.02 KCAL/MOL
REMARK 924 INTRA-LIGAND FREE ENERGY PREDICTED BY IDOCK:   -0.12 KCAL/MOL
REMARK 927      BINDING AFFINITY PREDICTED BY RF-SCORE:    0.00 PKD
ROOT
HETATM    1  O   UNL     1     -11.904   7.810  70.019  1.00  0.00    -0.461 OA 
HETATM    2  C   UNL     1     -11.359   8.394  71.205  1.00  0.00    -0.268 C  
HETATM    3  H   UNL     1     -11.303   7.133  69.731  1.00  0.00     0.000 HD 
HETATM    4  O   UNL     1     -13.368   9.063  72.430  1.00  0.00    -0.423 OA 
HETATM    5  C   UNL     1     -12.330   9.491  71.670  1.00  0.00    -0.398 C  
HETATM    6  O   UNL     1     -12.241  10.655  71.298  1.00  0.00    -0.352 OA 
ENDROOT
BRANCH   2   7
HETATM    7  C   UNL     1     -11.069   7.327  72.249  1.00  0.00    -0.298 A  
HETATM    8  C   UNL     1     -10.264   7.590  73.371  1.00  0.00    -0.399 A  
HETATM    9  C   UNL     1     -10.025   6.603  74.329  1.00  0.00    -0.372 A  
HETATM   10  C   UNL     1     -10.588   5.338  74.184  1.00  0.00    -0.301 A  
HETATM   11  C   UNL     1     -11.396   5.061  73.085  1.00  0.00    -0.397 A  
HETATM   12  C   UNL     1     -11.642   6.049  72.128  1.00  0.00    -0.348 A  
ENDBRANCH   2   7
TORSDOF 1
ENDMDL
MODEL       57
REMARK 921   NORMALIZED FREE ENERGY PREDICTED BY IDOCK:   -3.86 KCAL/MOL
REMARK 922        TOTAL FREE ENERGY PREDICTED BY IDOCK:   -4.12 KCAL/MOL
REMARK 923 INTER-LIGAND FREE ENERGY PREDICTED BY IDOCK:   -4.00 KCAL/MOL
REMARK 924 INTRA-LIGAND FREE ENERGY PREDICTED BY IDOCK:   -0.13 KCAL/MOL
REMARK 927      BINDING AFFINITY PREDICTED BY RF-SCORE:    0.00 PKD
ROOT
HETATM    1  O   UNL     1     -10.734  17.411  67.627  1.00  0.00    -0.363 OA 
HETATM    2  C   UNL     1     -10.296  16.890  66.369  1.00  0.00    -0.300 C  
HETATM    3  H   UNL     1     -11.678  17.307  67.667  1.00  0.00     0.000 HD 
HETATM    4  O   UNL     1      -8.050  16.075  66.895  1.00  0.00    -0.197 OA 
HETATM    5  C   UNL     1      -8.770  17.060  66.303  1.00  0.00    -0.250 C  
HETATM    6  O   UNL     1      -8.234  18.063  65.845  1.00  0.00    -0.517 OA 
ENDROOT
BRANCH   2   7
HETATM    7  C   UNL     1     -10.778  15.460  66.179  1.00  0.00    -0.316 A  
HETATM    8  C   UNL     1     -11.332  14.720  67.239  1.00  0.00    -0.366 A  
HETATM    9  C   UNL     1     -11.786  13.415  67.040  1.00  0.00    -0.443 A  
HETATM   10  C   UNL     1     -11.698  12.829  65.780  1.00  0.00    -0.449 A  
HETATM   11  C   UNL     1     -11.161  13.549  64.717  1.00  0.00    -0.368 A  
HETATM   12  C   UNL     1     -10.712  14.857  64.911  1.00  0.00    -0.426 A  
ENDBRANCH   2   7
TORSDOF 1
ENDMDL
MODEL       58
REMARK 921   NORMALIZED FREE ENERGY PREDICTED BY IDOCK:   -3.86 KCAL/MOL
REMARK 922        TOTAL FREE ENERGY PREDICTED BY IDOCK:   -4.12 KCAL/MOL
REMARK 923 INTER-LIGAND FREE ENERGY PREDICTED BY IDOCK:   -4.07 KCAL/MOL
REMARK 924 INTRA-LIGAND FREE ENERGY PREDICTED BY IDOCK:   -0.06 KCAL/MOL
REMARK 927      BINDING AFFINITY PREDICTED BY RF-SCORE:    0.00 PKD
ROOT
HETATM    1  O   UNL     1     -10.722   6.380  71.186  1.00  0.00    -0.228 OA 
HETATM    2  C   UNL     1     -11.403   7.045  72.253  1.00  0.00    -0.268 C  
HETATM    3  H   UNL     1     -11.285   6.413  70.422  1.00  0.00     0.000 HD 
HETATM    4  O   UNL     1      -9.551   7.964  73.563  1.00  0.00    -0.284 OA 
HETATM    5  C   UNL     1     -10.491   6.990  73.490  1.00  0.00    -0.375 C  
HETATM    6  O   UNL     1     -10.534   6.073  74.303  1.00  0.00    -0.280 OA 
ENDROOT
BRANCH   2   7
HETATM    7  C   UNL     1     -11.816   8.449  71.840  1.00  0.00    -0.398 A  
HETATM    8  C   UNL     1     -12.899   9.109  72.447  1.00  0.00    -0.438 A  
HETATM    9  C   UNL     1     -13.252  10.405  72.066  1.00  0.00    -0.497 A  
HETATM   10  C   UNL     1     -12.528  11.064  71.077  1.00  0.00    -0.512 A  
HETATM   11  C   UNL     1     -11.447  10.431  70.470  1.00  0.00    -0.431 A  
HETATM   12  C   UNL     1     -11.088   9.136  70.853  1.00  0.00    -0.356 A  
ENDBRANCH   2   7
TORSDOF 1
ENDMDL
MODEL       59
REMARK 921   NORMALIZED FREE ENERGY PREDICTED BY IDOCK:   -3.86 KCAL/MOL
REMARK 922        TOTAL FREE ENERGY PREDICTED BY IDOCK:   -4.12 KCAL/MOL
REMARK 923 INTER-LIGAND FREE ENERGY PREDICTED BY IDOCK:   -4.00 KCAL/MOL
REMARK 924 INTRA-LIGAND FREE ENERGY PREDICTED BY IDOCK:   -0.12 KCAL/MOL
REMARK 927      BINDING AFFINITY PREDICTED BY RF-SCORE:    0.00 PKD
ROOT
HETATM    1  O   UNL     1     -12.495  14.524  66.548  1.00  0.00    -0.456 OA 
HETATM    2  C   UNL     1     -11.847  13.282  66.259  1.00  0.00    -0.395 C  
HETATM    3  H   UNL     1     -13.307  14.325  67.000  1.00  0.00     0.000 HD 
HETATM    4  O   UNL     1      -9.480  13.899  66.327  1.00  0.00    -0.273 OA 
HETATM    5  C   UNL     1     -10.534  13.604  65.527  1.00  0.00    -0.306 C  
HETATM    6  O   UNL     1     -10.462  13.695  64.306  1.00  0.00    -0.392 OA 
ENDROOT
BRANCH   2   7
HETATM    7  C   UNL     1     -11.675  12.455  67.523  1.00  0.00    -0.425 A  
HETATM    8  C   UNL     1     -11.980  12.974  68.793  1.00  0.00    -0.302 A  
HETATM    9  C   UNL     1     -11.833  12.192  69.941  1.00  0.00    -0.392 A  
HETATM   10  C   UNL     1     -11.382  10.879  69.839  1.00  0.00    -0.381 A  
HETATM   11  C   UNL     1     -11.084  10.344  68.589  1.00  0.00    -0.313 A  
HETATM   12  C   UNL     1     -11.236  11.122  67.439  1.00  0.00    -0.363 A  
ENDBRANCH   2   7
TORSDOF 1
ENDMDL
MODEL       60
REMARK 921   NORMALIZED FREE ENERGY PREDICTED BY IDOCK:   -3.85 KCAL/MOL
REMARK 922        TOTAL FREE ENERGY PREDICTED BY IDOCK:   -4.11 KCAL/MOL
REMARK 923 INTER-LIGAND FREE ENERGY PREDICTED BY IDOCK:   -4.20 KCAL/MOL
REMARK 924 INTRA-LIGAND FREE ENERGY PREDICTED BY IDOCK:    0.09 KCAL/MOL
REMARK 927      BINDING AFFINITY PREDICTED BY RF-SCORE:    0.00 PKD
ROOT
HETATM    1  O   UNL     1     -12.109  11.538  69.214  1.00  0.00    -0.321 OA 
HETATM    2  C   UNL     1     -11.434  12.759  69.528  1.00  0.00    -0.225 C  
HETATM    3  H   UNL     1     -12.265  11.078  70.031  1.00  0.00     0.000 HD 
HETATM    4  O   UNL     1     -12.213  14.257  67.757  1.00  0.00    -0.325 OA 
HETATM    5  C   UNL     1     -11.180  13.501  68.206  1.00  0.00    -0.274 C  
HETATM    6  O   UNL     1     -10.161  13.344  67.543  1.00  0.00    -0.223 OA 
ENDROOT
BRANCH   2   7
HETATM    7  C   UNL     1     -12.216  13.559  70.558  1.00  0.00    -0.433 A  
HETATM    8  C   UNL     1     -13.226  12.971  71.339  1.00  0.00    -0.276 A  
HETATM    9  C   UNL     1     -13.920  13.718  72.293  1.00  0.00    -0.672 A  
HETATM   10  C   UNL     1     -13.615  15.062  72.485  1.00  0.00    -0.569 A  
HETATM   11  C   UNL     1     -12.611  15.661  71.728  1.00  0.00    -0.510 A  
HETATM   12  C   UNL     1     -11.911  14.914  70.777  1.00  0.00    -0.372 A  
ENDBRANCH   2   7
TORSDOF 1
ENDMDL
MODEL       61
REMARK 921   NORMALIZED FREE ENERGY PREDICTED BY IDOCK:   -3.81 KCAL/MOL
REMARK 922        TOTAL FREE ENERGY PREDICTED BY IDOCK:   -4.07 KCAL/MOL
REMARK 923 INTER-LIGAND FREE ENERGY PREDICTED BY IDOCK:   -3.95 KCAL/MOL
REMARK 924 INTRA-LIGAND FREE ENERGY PREDICTED BY IDOCK:   -0.12 KCAL/MOL
REMARK 927      BINDING AFFINITY PREDICTED BY RF-SCORE:    0.00 PKD
ROOT
HETATM    1  O   UNL     1     -12.043   9.227  70.187  1.00  0.00    -0.459 OA 
HETATM    2  C   UNL     1     -12.083   8.529  71.434  1.00  0.00    -0.303 C  
HETATM    3  H   UNL     1     -11.135   9.265  69.908  1.00  0.00     0.000 HD 
HETATM    4  O   UNL     1     -14.279   7.452  71.361  1.00  0.00    -0.433 OA 
HETATM    5  C   UNL     1     -13.551   8.469  71.885  1.00  0.00    -0.396 C  
HETATM    6  O   UNL     1     -14.065   9.335  72.584  1.00  0.00    -0.477 OA 
ENDROOT
BRANCH   2   7
HETATM    7  C   UNL     1     -11.406   7.172  71.316  1.00  0.00    -0.298 A  
HETATM    8  C   UNL     1     -11.164   6.573  70.068  1.00  0.00    -0.453 A  
HETATM    9  C   UNL     1     -10.524   5.335  69.980  1.00  0.00    -0.351 A  
HETATM   10  C   UNL     1     -10.112   4.677  71.135  1.00  0.00    -0.243 A  
HETATM   11  C   UNL     1     -10.335   5.258  72.380  1.00  0.00    -0.259 A  
HETATM   12  C   UNL     1     -10.969   6.500  72.471  1.00  0.00    -0.281 A  
ENDBRANCH   2   7
TORSDOF 1
ENDMDL
MODEL       62
REMARK 921   NORMALIZED FREE ENERGY PREDICTED BY IDOCK:   -3.81 KCAL/MOL
REMARK 922        TOTAL FREE ENERGY PREDICTED BY IDOCK:   -4.07 KCAL/MOL
REMARK 923 INTER-LIGAND FREE ENERGY PREDICTED BY IDOCK:   -3.94 KCAL/MOL
REMARK 924 INTRA-LIGAND FREE ENERGY PREDICTED BY IDOCK:   -0.12 KCAL/MOL
REMARK 927      BINDING AFFINITY PREDICTED BY RF-SCORE:    0.00 PKD
ROOT
HETATM    1  O   UNL     1     -11.898  10.770  67.692  1.00  0.00    -0.647 OA 
HETATM    2  C   UNL     1     -10.664  11.383  67.309  1.00  0.00    -0.241 C  
HETATM    3  H   UNL     1     -12.428  11.434  68.117  1.00  0.00     0.000 HD 
HETATM    4  O   UNL     1     -10.054  10.123  65.302  1.00  0.00    -0.319 OA 
HETATM    5  C   UNL     1      -9.805  10.309  66.622  1.00  0.00    -0.204 C  
HETATM    6  O   UNL     1      -9.025   9.591  67.238  1.00  0.00    -0.130 OA 
ENDROOT
BRANCH   2   7
HETATM    7  C   UNL     1     -10.915  12.622  66.463  1.00  0.00    -0.302 A  
HETATM    8  C   UNL     1     -12.161  12.863  65.859  1.00  0.00    -0.503 A  
HETATM    9  C   UNL     1     -12.378  14.016  65.101  1.00  0.00    -0.468 A  
HETATM   10  C   UNL     1     -11.357  14.947  64.938  1.00  0.00    -0.415 A  
HETATM   11  C   UNL     1     -10.118  14.731  65.537  1.00  0.00    -0.409 A  
HETATM   12  C   UNL     1      -9.901  13.581  66.300  1.00  0.00    -0.306 A  
ENDBRANCH   2   7
TORSDOF 1
ENDMDL
MODEL       63
REMARK 921   NORMALIZED FREE ENERGY PREDICTED BY IDOCK:   -3.79 KCAL/MOL
REMARK 922        TOTAL FREE ENERGY PREDICTED BY IDOCK:   -4.05 KCAL/MOL
REMARK 923 INTER-LIGAND FREE ENERGY PREDICTED BY IDOCK:   -4.05 KCAL/MOL
REMARK 924 INTRA-LIGAND FREE ENERGY PREDICTED BY IDOCK:    0.00 KCAL/MOL
REMARK 927      BINDING AFFINITY PREDICTED BY RF-SCORE:    0.00 PKD
ROOT
HETATM    1  O   UNL     1     -11.018  12.835  69.791  1.00  0.00    -0.450 OA 
HETATM    2  C   UNL     1     -11.919  13.591  68.978  1.00  0.00    -0.335 C  
HETATM    3  H   UNL     1     -11.183  11.914  69.622  1.00  0.00     0.000 HD 
HETATM    4  O   UNL     1     -10.640  15.631  68.539  1.00  0.00    -0.241 OA 
HETATM    5  C   UNL     1     -11.653  15.080  69.253  1.00  0.00    -0.315 C  
HETATM    6  O   UNL     1     -12.238  15.706  70.129  1.00  0.00    -0.379 OA 
ENDROOT
BRANCH   2   7
HETATM    7  C   UNL     1     -11.794  13.190  67.516  1.00  0.00    -0.409 A  
HETATM    8  C   UNL     1     -11.042  12.070  67.119  1.00  0.00    -0.344 A  
HETATM    9  C   UNL     1     -10.955  11.707  65.773  1.00  0.00    -0.329 A  
HETATM   10  C   UNL     1     -11.619  12.453  64.804  1.00  0.00    -0.395 A  
HETATM   11  C   UNL     1     -12.375  13.560  65.178  1.00  0.00    -0.488 A  
HETATM   12  C   UNL     1     -12.470  13.922  66.524  1.00  0.00    -0.364 A  
ENDBRANCH   2   7
TORSDOF 1
ENDMDL
MODEL       64
REMARK 921   NORMALIZED FREE ENERGY PREDICTED BY IDOCK:   -3.76 KCAL/MOL
REMARK 922        TOTAL FREE ENERGY PREDICTED BY IDOCK:   -4.02 KCAL/MOL
REMARK 923 INTER-LIGAND FREE ENERGY PREDICTED BY IDOCK:   -3.92 KCAL/MOL
REMARK 924 INTRA-LIGAND FREE ENERGY PREDICTED BY IDOCK:   -0.10 KCAL/MOL
REMARK 927      BINDING AFFINITY PREDICTED BY RF-SCORE:    0.00 PKD
ROOT
HETATM    1  O   UNL     1      -9.553  13.201  68.752  1.00  0.00    -0.399 OA 
HETATM    2  C   UNL     1     -10.838  12.744  68.322  1.00  0.00    -0.248 C  
HETATM    3  H   UNL     1      -8.930  12.992  68.065  1.00  0.00     0.000 HD 
HETATM    4  O   UNL     1     -12.349  14.338  69.400  1.00  0.00    -0.310 OA 
HETATM    5  C   UNL     1     -11.846  13.080  69.433  1.00  0.00    -0.322 C  
HETATM    6  O   UNL     1     -12.102  12.308  70.351  1.00  0.00    -0.355 OA 
ENDROOT
BRANCH   2   7
HETATM    7  C   UNL     1     -11.190  13.321  66.959  1.00  0.00    -0.319 A  
HETATM    8  C   UNL     1     -12.181  12.745  66.147  1.00  0.00    -0.340 A  
HETATM    9  C   UNL     1     -12.504  13.301  64.907  1.00  0.00    -0.465 A  
HETATM   10  C   UNL     1     -11.844  14.442  64.461  1.00  0.00    -0.463 A  
HETATM   11  C   UNL     1     -10.865  15.033  65.255  1.00  0.00    -0.399 A  
HETATM   12  C   UNL     1     -10.546  14.483  66.499  1.00  0.00    -0.297 A  
ENDBRANCH   2   7
TORSDOF 1
ENDMDL
MODEL       65
REMARK 921   NORMALIZED FREE ENERGY PREDICTED BY IDOCK:   -3.76 KCAL/MOL
REMARK 922        TOTAL FREE ENERGY PREDICTED BY IDOCK:   -4.01 KCAL/MOL
REMARK 923 INTER-LIGAND FREE ENERGY PREDICTED BY IDOCK:   -3.92 KCAL/MOL
REMARK 924 INTRA-LIGAND FREE ENERGY PREDICTED BY IDOCK:   -0.10 KCAL/MOL
REMARK 927      BINDING AFFINITY PREDICTED BY RF-SCORE:    0.00 PKD
ROOT
HETATM    1  O   UNL     1      -8.218  11.471  65.880  1.00  0.00    -0.368 OA 
HETATM    2  C   UNL     1      -9.383  10.925  65.254  1.00  0.00    -0.213 C  
HETATM    3  H   UNL     1      -7.841  12.104  65.281  1.00  0.00     0.000 HD 
HETATM    4  O   UNL     1     -10.816  10.412  67.170  1.00  0.00    -0.273 OA 
HETATM    5  C   UNL     1      -9.993   9.899  66.222  1.00  0.00    -0.256 C  
HETATM    6  O   UNL     1      -9.681   8.714  66.214  1.00  0.00    -0.244 OA 
ENDROOT
BRANCH   2   7
HETATM    7  C   UNL     1     -10.336  12.032  64.829  1.00  0.00    -0.318 A  
HETATM    8  C   UNL     1     -11.331  11.817  63.859  1.00  0.00    -0.494 A  
HETATM    9  C   UNL     1     -12.209  12.840  63.495  1.00  0.00    -0.613 A  
HETATM   10  C   UNL     1     -12.110  14.091  64.096  1.00  0.00    -0.456 A  
HETATM   11  C   UNL     1     -11.137  14.321  65.065  1.00  0.00    -0.377 A  
HETATM   12  C   UNL     1     -10.262  13.298  65.435  1.00  0.00    -0.304 A  
ENDBRANCH   2   7
TORSDOF 1
ENDMDL
MODEL       66
REMARK 921   NORMALIZED FREE ENERGY PREDICTED BY IDOCK:   -3.75 KCAL/MOL
REMARK 922        TOTAL FREE ENERGY PREDICTED BY IDOCK:   -4.01 KCAL/MOL
REMARK 923 INTER-LIGAND FREE ENERGY PREDICTED BY IDOCK:   -3.88 KCAL/MOL
REMARK 924 INTRA-LIGAND FREE ENERGY PREDICTED BY IDOCK:   -0.13 KCAL/MOL
REMARK 927      BINDING AFFINITY PREDICTED BY RF-SCORE:    0.00 PKD
ROOT
HETATM    1  O   UNL     1     -12.095  12.266  67.590  1.00  0.00    -0.502 OA 
HETATM    2  C   UNL     1     -11.679  12.907  66.382  1.00  0.00    -0.395 C  
HETATM    3  H   UNL     1     -12.552  11.469  67.349  1.00  0.00     0.000 HD 
HETATM    4  O   UNL     1      -9.626  14.046  67.073  1.00  0.00    -0.236 OA 
HETATM    5  C   UNL     1     -10.939  14.197  66.772  1.00  0.00    -0.300 C  
HETATM    6  O   UNL     1     -11.511  15.273  66.908  1.00  0.00    -0.271 OA 
ENDROOT
BRANCH   2   7
HETATM    7  C   UNL     1     -10.868  11.956  65.516  1.00  0.00    -0.343 A  
HETATM    8  C   UNL     1     -10.385  10.734  66.014  1.00  0.00    -0.300 A  
HETATM    9  C   UNL     1      -9.658   9.864  65.198  1.00  0.00    -0.367 A  
HETATM   10  C   UNL     1      -9.405  10.200  63.871  1.00  0.00    -0.336 A  
HETATM   11  C   UNL     1      -9.883  11.402  63.356  1.00  0.00    -0.422 A  
HETATM   12  C   UNL     1     -10.616  12.270  64.169  1.00  0.00    -0.408 A  
ENDBRANCH   2   7
TORSDOF 1
ENDMDL
MODEL       67
REMARK 921   NORMALIZED FREE ENERGY PREDICTED BY IDOCK:   -3.75 KCAL/MOL
REMARK 922        TOTAL FREE ENERGY PREDICTED BY IDOCK:   -4.01 KCAL/MOL
REMARK 923 INTER-LIGAND FREE ENERGY PREDICTED BY IDOCK:   -3.90 KCAL/MOL
REMARK 924 INTRA-LIGAND FREE ENERGY PREDICTED BY IDOCK:   -0.11 KCAL/MOL
REMARK 927      BINDING AFFINITY PREDICTED BY RF-SCORE:    0.00 PKD
ROOT
HETATM    1  O   UNL     1     -10.975  19.084  67.092  1.00  0.00    -0.433 OA 
HETATM    2  C   UNL     1      -9.932  18.305  67.683  1.00  0.00    -0.338 C  
HETATM    3  H   UNL     1     -11.062  19.881  67.601  1.00  0.00     0.000 HD 
HETATM    4  O   UNL     1      -9.013  17.111  65.755  1.00  0.00    -0.523 OA 
HETATM    5  C   UNL     1      -9.793  17.014  66.860  1.00  0.00    -0.271 C  
HETATM    6  O   UNL     1     -10.424  15.994  67.115  1.00  0.00    -0.299 OA 
ENDROOT
BRANCH   2   7
HETATM    7  C   UNL     1      -8.651  19.116  67.800  1.00  0.00    -0.335 A  
HETATM    8  C   UNL     1      -7.608  18.728  68.659  1.00  0.00    -0.357 A  
HETATM    9  C   UNL     1      -6.431  19.476  68.739  1.00  0.00    -0.307 A  
HETATM   10  C   UNL     1      -6.276  20.620  67.961  1.00  0.00    -0.342 A  
HETATM   11  C   UNL     1      -7.295  21.015  67.098  1.00  0.00    -0.304 A  
HETATM   12  C   UNL     1      -8.470  20.265  67.011  1.00  0.00    -0.388 A  
ENDBRANCH   2   7
TORSDOF 1
ENDMDL
MODEL       68
REMARK 921   NORMALIZED FREE ENERGY PREDICTED BY IDOCK:   -3.73 KCAL/MOL
REMARK 922        TOTAL FREE ENERGY PREDICTED BY IDOCK:   -3.98 KCAL/MOL
REMARK 923 INTER-LIGAND FREE ENERGY PREDICTED BY IDOCK:   -3.87 KCAL/MOL
REMARK 924 INTRA-LIGAND FREE ENERGY PREDICTED BY IDOCK:   -0.11 KCAL/MOL
REMARK 927      BINDING AFFINITY PREDICTED BY RF-SCORE:    0.00 PKD
ROOT
HETATM    1  O   UNL     1     -10.185  10.262  65.538  1.00  0.00    -0.284 OA 
HETATM    2  C   UNL     1      -9.907  11.573  65.040  1.00  0.00    -0.257 C  
HETATM    3  H   UNL     1      -9.909  10.236  66.447  1.00  0.00     0.000 HD 
HETATM    4  O   UNL     1     -11.666  11.879  63.366  1.00  0.00    -0.447 OA 
HETATM    5  C   UNL     1     -10.352  11.613  63.569  1.00  0.00    -0.441 C  
HETATM    6  O   UNL     1      -9.603  11.322  62.642  1.00  0.00    -0.316 OA 
ENDROOT
BRANCH   2   7
HETATM    7  C   UNL     1     -10.550  12.634  65.920  1.00  0.00    -0.297 A  
HETATM    8  C   UNL     1     -11.396  12.292  66.989  1.00  0.00    -0.395 A  
HETATM    9  C   UNL     1     -11.962  13.281  67.798  1.00  0.00    -0.356 A  
HETATM   10  C   UNL     1     -11.690  14.623  67.554  1.00  0.00    -0.403 A  
HETATM   11  C   UNL     1     -10.847  14.981  66.504  1.00  0.00    -0.320 A  
HETATM   12  C   UNL     1     -10.275  13.994  65.698  1.00  0.00    -0.351 A  
ENDBRANCH   2   7
TORSDOF 1
ENDMDL
MODEL       69
REMARK 921   NORMALIZED FREE ENERGY PREDICTED BY IDOCK:   -3.73 KCAL/MOL
REMARK 922        TOTAL FREE ENERGY PREDICTED BY IDOCK:   -3.98 KCAL/MOL
REMARK 923 INTER-LIGAND FREE ENERGY PREDICTED BY IDOCK:   -3.86 KCAL/MOL
REMARK 924 INTRA-LIGAND FREE ENERGY PREDICTED BY IDOCK:   -0.12 KCAL/MOL
REMARK 927      BINDING AFFINITY PREDICTED BY RF-SCORE:    0.00 PKD
ROOT
HETATM    1  O   UNL     1     -13.370  15.601  70.663  1.00  0.00    -0.772 OA 
HETATM    2  C   UNL     1     -12.484  15.047  69.687  1.00  0.00    -0.133 C  
HETATM    3  H   UNL     1     -14.198  15.141  70.593  1.00  0.00     0.000 HD 
HETATM    4  O   UNL     1     -10.296  15.324  70.748  1.00  0.00    -0.098 OA 
HETATM    5  C   UNL     1     -11.144  15.792  69.800  1.00  0.00    -0.322 C  
HETATM    6  O   UNL     1     -10.894  16.805  69.156  1.00  0.00    -0.324 OA 
ENDROOT
BRANCH   2   7
HETATM    7  C   UNL     1     -12.379  13.538  69.849  1.00  0.00    -0.287 A  
HETATM    8  C   UNL     1     -11.840  12.723  68.838  1.00  0.00    -0.351 A  
HETATM    9  C   UNL     1     -11.734  11.342  69.012  1.00  0.00    -0.410 A  
HETATM   10  C   UNL     1     -12.160  10.752  70.198  1.00  0.00    -0.427 A  
HETATM   11  C   UNL     1     -12.689  11.544  71.215  1.00  0.00    -0.469 A  
HETATM   12  C   UNL     1     -12.790  12.926  71.046  1.00  0.00    -0.268 A  
ENDBRANCH   2   7
TORSDOF 1
ENDMDL
MODEL       70
REMARK 921   NORMALIZED FREE ENERGY PREDICTED BY IDOCK:   -3.72 KCAL/MOL
REMARK 922        TOTAL FREE ENERGY PREDICTED BY IDOCK:   -3.97 KCAL/MOL
REMARK 923 INTER-LIGAND FREE ENERGY PREDICTED BY IDOCK:   -3.88 KCAL/MOL
REMARK 924 INTRA-LIGAND FREE ENERGY PREDICTED BY IDOCK:   -0.09 KCAL/MOL
REMARK 927      BINDING AFFINITY PREDICTED BY RF-SCORE:    0.00 PKD
ROOT
HETATM    1  O   UNL     1     -11.105  15.443  66.452  1.00  0.00    -0.313 OA 
HETATM    2  C   UNL     1     -11.712  14.176  66.188  1.00  0.00    -0.393 C  
HETATM    3  H   UNL     1     -11.155  15.595  67.389  1.00  0.00     0.000 HD 
HETATM    4  O   UNL     1     -10.468  13.397  64.230  1.00  0.00    -0.429 OA 
HETATM    5  C   UNL     1     -11.633  13.931  64.672  1.00  0.00    -0.385 C  
HETATM    6  O   UNL     1     -12.514  14.287  63.897  1.00  0.00    -0.773 OA 
ENDROOT
BRANCH   2   7
HETATM    7  C   UNL     1     -11.076  13.084  67.035  1.00  0.00    -0.311 A  
HETATM    8  C   UNL     1     -11.736  11.870  67.291  1.00  0.00    -0.319 A  
HETATM    9  C   UNL     1     -11.127  10.872  68.055  1.00  0.00    -0.351 A  
HETATM   10  C   UNL     1      -9.850  11.069  68.572  1.00  0.00    -0.194 A  
HETATM   11  C   UNL     1      -9.177  12.262  68.322  1.00  0.00    -0.189 A  
HETATM   12  C   UNL     1      -9.781  13.259  67.552  1.00  0.00    -0.224 A  
ENDBRANCH   2   7
TORSDOF 1
ENDMDL
MODEL       71
REMARK 921   NORMALIZED FREE ENERGY PREDICTED BY IDOCK:   -3.71 KCAL/MOL
REMARK 922        TOTAL FREE ENERGY PREDICTED BY IDOCK:   -3.96 KCAL/MOL
REMARK 923 INTER-LIGAND FREE ENERGY PREDICTED BY IDOCK:   -3.84 KCAL/MOL
REMARK 924 INTRA-LIGAND FREE ENERGY PREDICTED BY IDOCK:   -0.12 KCAL/MOL
REMARK 927      BINDING AFFINITY PREDICTED BY RF-SCORE:    0.00 PKD
ROOT
HETATM    1  O   UNL     1      -9.159  14.341  66.108  1.00  0.00    -0.489 OA 
HETATM    2  C   UNL     1      -9.066  15.416  67.047  1.00  0.00    -0.227 C  
HETATM    3  H   UNL     1      -9.131  13.529  66.600  1.00  0.00     0.000 HD 
HETATM    4  O   UNL     1     -10.352  17.184  65.948  1.00  0.00    -0.433 OA 
HETATM    5  C   UNL     1      -9.111  16.731  66.252  1.00  0.00    -0.285 C  
HETATM    6  O   UNL     1      -8.102  17.282  65.826  1.00  0.00    -0.527 OA 
ENDROOT
BRANCH   2   7
HETATM    7  C   UNL     1     -10.138  15.293  68.119  1.00  0.00    -0.229 A  
HETATM    8  C   UNL     1     -11.142  14.312  68.050  1.00  0.00    -0.286 A  
HETATM    9  C   UNL     1     -12.106  14.203  69.054  1.00  0.00    -0.348 A  
HETATM   10  C   UNL     1     -12.081  15.069  70.143  1.00  0.00    -0.378 A  
HETATM   11  C   UNL     1     -11.089  16.042  70.234  1.00  0.00    -0.380 A  
HETATM   12  C   UNL     1     -10.120  16.149  69.234  1.00  0.00    -0.260 A  
ENDBRANCH   2   7
TORSDOF 1
ENDMDL
MODEL       72
REMARK 921   NORMALIZED FREE ENERGY PREDICTED BY IDOCK:   -3.69 KCAL/MOL
REMARK 922        TOTAL FREE ENERGY PREDICTED BY IDOCK:   -3.94 KCAL/MOL
REMARK 923 INTER-LIGAND FREE ENERGY PREDICTED BY IDOCK:   -3.83 KCAL/MOL
REMARK 924 INTRA-LIGAND FREE ENERGY PREDICTED BY IDOCK:   -0.11 KCAL/MOL
REMARK 927      BINDING AFFINITY PREDICTED BY RF-SCORE:    0.00 PKD
ROOT
HETATM    1  O   UNL     1      -9.629  10.594  69.798  1.00  0.00    -0.427 OA 
HETATM    2  C   UNL     1      -9.958   9.237  70.104  1.00  0.00    -0.215 C  
HETATM    3  H   UNL     1     -10.352  10.959  69.299  1.00  0.00     0.000 HD 
HETATM    4  O   UNL     1      -8.820   8.892  72.243  1.00  0.00    -0.397 OA 
HETATM    5  C   UNL     1      -8.789   8.647  70.909  1.00  0.00    -0.183 C  
HETATM    6  O   UNL     1      -7.837   8.085  70.380  1.00  0.00    -0.087 OA 
ENDROOT
BRANCH   2   7
HETATM    7  C   UNL     1     -11.307   9.151  70.801  1.00  0.00    -0.337 A  
HETATM    8  C   UNL     1     -12.025  10.304  71.164  1.00  0.00    -0.472 A  
HETATM    9  C   UNL     1     -13.272  10.204  71.786  1.00  0.00    -0.542 A  
HETATM   10  C   UNL     1     -13.822   8.954  72.052  1.00  0.00    -0.511 A  
HETATM   11  C   UNL     1     -13.130   7.801  71.691  1.00  0.00    -0.378 A  
HETATM   12  C   UNL     1     -11.886   7.897  71.063  1.00  0.00    -0.285 A  
ENDBRANCH   2   7
TORSDOF 1
ENDMDL
MODEL       73
REMARK 921   NORMALIZED FREE ENERGY PREDICTED BY IDOCK:   -3.69 KCAL/MOL
REMARK 922        TOTAL FREE ENERGY PREDICTED BY IDOCK:   -3.94 KCAL/MOL
REMARK 923 INTER-LIGAND FREE ENERGY PREDICTED BY IDOCK:   -3.88 KCAL/MOL
REMARK 924 INTRA-LIGAND FREE ENERGY PREDICTED BY IDOCK:   -0.06 KCAL/MOL
REMARK 927      BINDING AFFINITY PREDICTED BY RF-SCORE:    0.00 PKD
ROOT
HETATM    1  O   UNL     1     -12.413  13.870  65.708  1.00  0.00    -0.457 OA 
HETATM    2  C   UNL     1     -12.155  12.484  65.468  1.00  0.00    -0.419 C  
HETATM    3  H   UNL     1     -12.390  14.007  66.648  1.00  0.00     0.000 HD 
HETATM    4  O   UNL     1     -11.036  12.530  63.292  1.00  0.00    -0.438 OA 
HETATM    5  C   UNL     1     -12.193  12.262  63.947  1.00  0.00    -0.515 C  
HETATM    6  O   UNL     1     -13.220  11.967  63.346  1.00  0.00    -0.687 OA 
ENDROOT
BRANCH   2   7
HETATM    7  C   UNL     1     -10.857  12.053  66.133  1.00  0.00    -0.325 A  
HETATM    8  C   UNL     1     -10.359  10.745  66.002  1.00  0.00    -0.300 A  
HETATM    9  C   UNL     1      -9.156  10.373  66.605  1.00  0.00    -0.169 A  
HETATM   10  C   UNL     1      -8.429  11.301  67.345  1.00  0.00    -0.137 A  
HETATM   11  C   UNL     1      -8.901  12.604  67.479  1.00  0.00    -0.186 A  
HETATM   12  C   UNL     1     -10.101  12.980  66.871  1.00  0.00    -0.243 A  
ENDBRANCH   2   7
TORSDOF 1
ENDMDL
MODEL       74
REMARK 921   NORMALIZED FREE ENERGY PREDICTED BY IDOCK:   -3.68 KCAL/MOL
REMARK 922        TOTAL FREE ENERGY PREDICTED BY IDOCK:   -3.93 KCAL/MOL
REMARK 923 INTER-LIGAND FREE ENERGY PREDICTED BY IDOCK:   -3.82 KCAL/MOL
REMARK 924 INTRA-LIGAND FREE ENERGY PREDICTED BY IDOCK:   -0.11 KCAL/MOL
REMARK 927      BINDING AFFINITY PREDICTED BY RF-SCORE:    0.00 PKD
ROOT
HETATM    1  O   UNL     1      -9.576  12.232  63.112  1.00  0.00    -0.596 OA 
HETATM    2  C   UNL     1     -10.261  11.602  64.197  1.00  0.00    -0.326 C  
HETATM    3  H   UNL     1     -10.155  12.896  62.754  1.00  0.00     0.000 HD 
HETATM    4  O   UNL     1      -8.421  10.972  65.682  1.00  0.00    -0.170 OA 
HETATM    5  C   UNL     1      -9.325  10.527  64.775  1.00  0.00    -0.238 C  
HETATM    6  O   UNL     1      -9.318   9.370  64.372  1.00  0.00    -0.162 OA 
ENDROOT
BRANCH   2   7
HETATM    7  C   UNL     1     -10.735  12.633  65.210  1.00  0.00    -0.318 A  
HETATM    8  C   UNL     1     -10.394  13.992  65.094  1.00  0.00    -0.422 A  
HETATM    9  C   UNL     1     -10.855  14.926  66.024  1.00  0.00    -0.328 A  
HETATM   10  C   UNL     1     -11.664  14.520  67.081  1.00  0.00    -0.420 A  
HETATM   11  C   UNL     1     -12.020  13.180  67.207  1.00  0.00    -0.389 A  
HETATM   12  C   UNL     1     -11.566  12.244  66.275  1.00  0.00    -0.446 A  
ENDBRANCH   2   7
TORSDOF 1
ENDMDL
MODEL       75
REMARK 921   NORMALIZED FREE ENERGY PREDICTED BY IDOCK:   -3.67 KCAL/MOL
REMARK 922        TOTAL FREE ENERGY PREDICTED BY IDOCK:   -3.92 KCAL/MOL
REMARK 923 INTER-LIGAND FREE ENERGY PREDICTED BY IDOCK:   -3.87 KCAL/MOL
REMARK 924 INTRA-LIGAND FREE ENERGY PREDICTED BY IDOCK:   -0.04 KCAL/MOL
REMARK 927      BINDING AFFINITY PREDICTED BY RF-SCORE:    0.00 PKD
ROOT
HETATM    1  O   UNL     1      -9.363   9.337  64.361  1.00  0.00    -0.433 OA 
HETATM    2  C   UNL     1      -9.937   9.946  65.520  1.00  0.00    -0.292 C  
HETATM    3  H   UNL     1     -10.066   9.180  63.742  1.00  0.00     0.000 HD 
HETATM    4  O   UNL     1      -8.106  11.350  66.336  1.00  0.00    -0.162 OA 
HETATM    5  C   UNL     1      -8.800  10.200  66.523  1.00  0.00    -0.140 C  
HETATM    6  O   UNL     1      -8.467   9.377  67.368  1.00  0.00    -0.124 OA 
ENDROOT
BRANCH   2   7
HETATM    7  C   UNL     1     -10.730  11.189  65.142  1.00  0.00    -0.279 A  
HETATM    8  C   UNL     1     -10.929  11.557  63.800  1.00  0.00    -0.485 A  
HETATM    9  C   UNL     1     -11.676  12.691  63.473  1.00  0.00    -0.604 A  
HETATM   10  C   UNL     1     -12.238  13.472  64.479  1.00  0.00    -0.445 A  
HETATM   11  C   UNL     1     -12.059  13.118  65.813  1.00  0.00    -0.502 A  
HETATM   12  C   UNL     1     -11.318  11.981  66.143  1.00  0.00    -0.407 A  
ENDBRANCH   2   7
TORSDOF 1
ENDMDL
MODEL       76
REMARK 921   NORMALIZED FREE ENERGY PREDICTED BY IDOCK:   -3.65 KCAL/MOL
REMARK 922        TOTAL FREE ENERGY PREDICTED BY IDOCK:   -3.90 KCAL/MOL
REMARK 923 INTER-LIGAND FREE ENERGY PREDICTED BY IDOCK:   -3.79 KCAL/MOL
REMARK 924 INTRA-LIGAND FREE ENERGY PREDICTED BY IDOCK:   -0.11 KCAL/MOL
REMARK 927      BINDING AFFINITY PREDICTED BY RF-SCORE:    0.00 PKD
ROOT
HETATM    1  O   UNL     1     -11.073  16.819  69.852  1.00  0.00    -0.423 OA 
HETATM    2  C   UNL     1      -9.987  16.538  68.966  1.00  0.00    -0.275 C  
HETATM    3  H   UNL     1     -10.873  17.631  70.303  1.00  0.00     0.000 HD 
HETATM    4  O   UNL     1     -11.097  15.346  67.140  1.00  0.00    -0.327 OA 
HETATM    5  C   UNL     1     -10.311  15.223  68.237  1.00  0.00    -0.234 C  
HETATM    6  O   UNL     1      -9.977  14.126  68.671  1.00  0.00    -0.232 OA 
ENDROOT
BRANCH   2   7
HETATM    7  C   UNL     1      -9.722  17.718  68.044  1.00  0.00    -0.304 A  
HETATM    8  C   UNL     1     -10.691  18.711  67.819  1.00  0.00    -0.394 A  
HETATM    9  C   UNL     1     -10.422  19.798  66.983  1.00  0.00    -0.595 A  
HETATM   10  C   UNL     1      -9.181  19.911  66.363  1.00  0.00    -0.470 A  
HETATM   11  C   UNL     1      -8.206  18.942  66.580  1.00  0.00    -0.295 A  
HETATM   12  C   UNL     1      -8.470  17.858  67.421  1.00  0.00    -0.236 A  
ENDBRANCH   2   7
TORSDOF 1
ENDMDL
MODEL       77
REMARK 921   NORMALIZED FREE ENERGY PREDICTED BY IDOCK:   -3.64 KCAL/MOL
REMARK 922        TOTAL FREE ENERGY PREDICTED BY IDOCK:   -3.89 KCAL/MOL
REMARK 923 INTER-LIGAND FREE ENERGY PREDICTED BY IDOCK:   -4.55 KCAL/MOL
REMARK 924 INTRA-LIGAND FREE ENERGY PREDICTED BY IDOCK:    0.66 KCAL/MOL
REMARK 927      BINDING AFFINITY PREDICTED BY RF-SCORE:    0.00 PKD
ROOT
HETATM    1  O   UNL     1     -11.193   8.726  72.264  1.00  0.00    -0.354 OA 
HETATM    2  C   UNL     1     -12.239   9.026  71.337  1.00  0.00    -0.323 C  
HETATM    3  H   UNL     1     -10.402   9.147  71.950  1.00  0.00     0.000 HD 
HETATM    4  O   UNL     1     -14.222   9.041  72.772  1.00  0.00    -0.572 OA 
HETATM    5  C   UNL     1     -13.520   8.343  71.845  1.00  0.00    -0.363 C  
HETATM    6  O   UNL     1     -13.835   7.203  71.523  1.00  0.00    -0.376 OA 
ENDROOT
BRANCH   2   7
HETATM    7  C   UNL     1     -12.367  10.528  71.133  1.00  0.00    -0.510 A  
HETATM    8  C   UNL     1     -13.116  11.331  72.009  1.00  0.00    -0.431 A  
HETATM    9  C   UNL     1     -13.206  12.711  71.816  1.00  0.00    -0.457 A  
HETATM   10  C   UNL     1     -12.547  13.311  70.747  1.00  0.00    -0.357 A  
HETATM   11  C   UNL     1     -11.792  12.533  69.873  1.00  0.00    -0.373 A  
HETATM   12  C   UNL     1     -11.696  11.153  70.068  1.00  0.00    -0.438 A  
ENDBRANCH   2   7
TORSDOF 1
ENDMDL
MODEL       78
REMARK 921   NORMALIZED FREE ENERGY PREDICTED BY IDOCK:   -3.64 KCAL/MOL
REMARK 922        TOTAL FREE ENERGY PREDICTED BY IDOCK:   -3.89 KCAL/MOL
REMARK 923 INTER-LIGAND FREE ENERGY PREDICTED BY IDOCK:   -3.76 KCAL/MOL
REMARK 924 INTRA-LIGAND FREE ENERGY PREDICTED BY IDOCK:   -0.12 KCAL/MOL
REMARK 927      BINDING AFFINITY PREDICTED BY RF-SCORE:    0.00 PKD
ROOT
HETATM    1  O   UNL     1     -10.099  10.370  65.670  1.00  0.00    -0.259 OA 
HETATM    2  C   UNL     1     -10.361  11.757  65.898  1.00  0.00    -0.241 C  
HETATM    3  H   UNL     1      -9.536  10.066  66.372  1.00  0.00     0.000 HD 
HETATM    4  O   UNL     1     -12.597  12.031  64.942  1.00  0.00    -0.418 OA 
HETATM    5  C   UNL     1     -11.271  12.250  64.761  1.00  0.00    -0.318 C  
HETATM    6  O   UNL     1     -10.832  12.712  63.714  1.00  0.00    -0.406 OA 
ENDROOT
BRANCH   2   7
HETATM    7  C   UNL     1     -10.923  11.980  67.294  1.00  0.00    -0.313 A  
HETATM    8  C   UNL     1     -11.075  13.269  67.831  1.00  0.00    -0.287 A  
HETATM    9  C   UNL     1     -11.611  13.454  69.108  1.00  0.00    -0.365 A  
HETATM   10  C   UNL     1     -12.006  12.355  69.865  1.00  0.00    -0.369 A  
HETATM   11  C   UNL     1     -11.872  11.071  69.346  1.00  0.00    -0.407 A  
HETATM   12  C   UNL     1     -11.342  10.883  68.067  1.00  0.00    -0.382 A  
ENDBRANCH   2   7
TORSDOF 1
ENDMDL
MODEL       79
REMARK 921   NORMALIZED FREE ENERGY PREDICTED BY IDOCK:   -3.62 KCAL/MOL
REMARK 922        TOTAL FREE ENERGY PREDICTED BY IDOCK:   -3.87 KCAL/MOL
REMARK 923 INTER-LIGAND FREE ENERGY PREDICTED BY IDOCK:   -3.76 KCAL/MOL
REMARK 924 INTRA-LIGAND FREE ENERGY PREDICTED BY IDOCK:   -0.11 KCAL/MOL
REMARK 927      BINDING AFFINITY PREDICTED BY RF-SCORE:    0.00 PKD
ROOT
HETATM    1  O   UNL     1     -10.562  15.449  66.112  1.00  0.00    -0.298 OA 
HETATM    2  C   UNL     1      -9.922  15.967  67.281  1.00  0.00    -0.242 C  
HETATM    3  H   UNL     1     -11.436  15.820  66.075  1.00  0.00     0.000 HD 
HETATM    4  O   UNL     1      -7.569  16.016  66.612  1.00  0.00    -0.231 OA 
HETATM    5  C   UNL     1      -8.509  15.366  67.341  1.00  0.00    -0.181 C  
HETATM    6  O   UNL     1      -8.261  14.313  67.919  1.00  0.00    -0.134 OA 
ENDROOT
BRANCH   2   7
HETATM    7  C   UNL     1      -9.959  17.488  67.289  1.00  0.00    -0.312 A  
HETATM    8  C   UNL     1      -9.488  18.232  68.384  1.00  0.00    -0.336 A  
HETATM    9  C   UNL     1      -9.512  19.629  68.364  1.00  0.00    -0.452 A  
HETATM   10  C   UNL     1     -10.003  20.303  67.250  1.00  0.00    -0.580 A  
HETATM   11  C   UNL     1     -10.465  19.583  66.152  1.00  0.00    -0.613 A  
HETATM   12  C   UNL     1     -10.436  18.187  66.166  1.00  0.00    -0.377 A  
ENDBRANCH   2   7
TORSDOF 1
ENDMDL
MODEL       80
REMARK 921   NORMALIZED FREE ENERGY PREDICTED BY IDOCK:   -3.61 KCAL/MOL
REMARK 922        TOTAL FREE ENERGY PREDICTED BY IDOCK:   -3.86 KCAL/MOL
REMARK 923 INTER-LIGAND FREE ENERGY PREDICTED BY IDOCK:   -3.73 KCAL/MOL
REMARK 924 INTRA-LIGAND FREE ENERGY PREDICTED BY IDOCK:   -0.13 KCAL/MOL
REMARK 927      BINDING AFFINITY PREDICTED BY RF-SCORE:    0.00 PKD
ROOT
HETATM    1  O   UNL     1     -10.031  17.057  68.850  1.00  0.00    -0.264 OA 
HETATM    2  C   UNL     1     -10.658  16.634  67.636  1.00  0.00    -0.321 C  
HETATM    3  H   UNL     1     -10.563  16.741  69.572  1.00  0.00     0.000 HD 
HETATM    4  O   UNL     1      -8.748  16.358  66.131  1.00  0.00    -0.312 OA 
HETATM    5  C   UNL     1      -9.799  17.145  66.468  1.00  0.00    -0.296 C  
HETATM    6  O   UNL     1      -9.979  18.238  65.943  1.00  0.00    -0.538 OA 
ENDROOT
BRANCH   2   7
HETATM    7  C   UNL     1     -10.881  15.129  67.639  1.00  0.00    -0.295 A  
HETATM    8  C   UNL     1     -10.238  14.289  68.564  1.00  0.00    -0.245 A  
HETATM    9  C   UNL     1     -10.471  12.912  68.563  1.00  0.00    -0.260 A  
HETATM   10  C   UNL     1     -11.352  12.353  67.642  1.00  0.00    -0.371 A  
HETATM   11  C   UNL     1     -12.006  13.170  66.724  1.00  0.00    -0.434 A  
HETATM   12  C   UNL     1     -11.780  14.549  66.727  1.00  0.00    -0.393 A  
ENDBRANCH   2   7
TORSDOF 1
ENDMDL
MODEL       81
REMARK 921   NORMALIZED FREE ENERGY PREDICTED BY IDOCK:   -3.58 KCAL/MOL
REMARK 922        TOTAL FREE ENERGY PREDICTED BY IDOCK:   -3.83 KCAL/MOL
REMARK 923 INTER-LIGAND FREE ENERGY PREDICTED BY IDOCK:   -3.82 KCAL/MOL
REMARK 924 INTRA-LIGAND FREE ENERGY PREDICTED BY IDOCK:   -0.01 KCAL/MOL
REMARK 927      BINDING AFFINITY PREDICTED BY RF-SCORE:    0.00 PKD
ROOT
HETATM    1  O   UNL     1     -13.136   6.693  72.328  1.00  0.00    -0.546 OA 
HETATM    2  C   UNL     1     -12.539   7.300  71.179  1.00  0.00    -0.323 C  
HETATM    3  H   UNL     1     -13.476   5.847  72.061  1.00  0.00     0.000 HD 
HETATM    4  O   UNL     1     -10.755   8.652  72.169  1.00  0.00    -0.327 OA 
HETATM    5  C   UNL     1     -11.991   8.670  71.611  1.00  0.00    -0.326 C  
HETATM    6  O   UNL     1     -12.658   9.697  71.556  1.00  0.00    -0.337 OA 
ENDROOT
BRANCH   2   7
HETATM    7  C   UNL     1     -11.503   6.377  70.556  1.00  0.00    -0.444 A  
HETATM    8  C   UNL     1     -11.232   6.396  69.177  1.00  0.00    -0.421 A  
HETATM    9  C   UNL     1     -10.263   5.553  68.627  1.00  0.00    -0.261 A  
HETATM   10  C   UNL     1      -9.549   4.682  69.444  1.00  0.00    -0.257 A  
HETATM   11  C   UNL     1      -9.798   4.655  70.813  1.00  0.00    -0.284 A  
HETATM   12  C   UNL     1     -10.761   5.501  71.368  1.00  0.00    -0.290 A  
ENDBRANCH   2   7
TORSDOF 1
ENDMDL
MODEL       82
REMARK 921   NORMALIZED FREE ENERGY PREDICTED BY IDOCK:   -3.57 KCAL/MOL
REMARK 922        TOTAL FREE ENERGY PREDICTED BY IDOCK:   -3.81 KCAL/MOL
REMARK 923 INTER-LIGAND FREE ENERGY PREDICTED BY IDOCK:   -3.70 KCAL/MOL
REMARK 924 INTRA-LIGAND FREE ENERGY PREDICTED BY IDOCK:   -0.11 KCAL/MOL
REMARK 927      BINDING AFFINITY PREDICTED BY RF-SCORE:    0.00 PKD
ROOT
HETATM    1  O   UNL     1     -12.610  14.567  67.646  1.00  0.00    -0.513 OA 
HETATM    2  C   UNL     1     -11.611  14.249  66.673  1.00  0.00    -0.383 C  
HETATM    3  H   UNL     1     -13.336  13.968  67.517  1.00  0.00     0.000 HD 
HETATM    4  O   UNL     1      -9.541  14.853  67.832  1.00  0.00    -0.202 OA 
HETATM    5  C   UNL     1     -10.436  15.219  66.881  1.00  0.00    -0.289 C  
HETATM    6  O   UNL     1     -10.361  16.301  66.309  1.00  0.00    -0.304 OA 
ENDROOT
BRANCH   2   7
HETATM    7  C   UNL     1     -11.231  12.778  66.748  1.00  0.00    -0.338 A  
HETATM    8  C   UNL     1     -10.553  12.136  65.697  1.00  0.00    -0.297 A  
HETATM    9  C   UNL     1     -10.197  10.789  65.793  1.00  0.00    -0.319 A  
HETATM   10  C   UNL     1     -10.508  10.063  66.939  1.00  0.00    -0.284 A  
HETATM   11  C   UNL     1     -11.171  10.684  67.994  1.00  0.00    -0.373 A  
HETATM   12  C   UNL     1     -11.524  12.033  67.904  1.00  0.00    -0.396 A  
ENDBRANCH   2   7
TORSDOF 1
ENDMDL
MODEL       83
REMARK 921   NORMALIZED FREE ENERGY PREDICTED BY IDOCK:   -3.55 KCAL/MOL
REMARK 922        TOTAL FREE ENERGY PREDICTED BY IDOCK:   -3.80 KCAL/MOL
REMARK 923 INTER-LIGAND FREE ENERGY PREDICTED BY IDOCK:   -3.79 KCAL/MOL
REMARK 924 INTRA-LIGAND FREE ENERGY PREDICTED BY IDOCK:   -0.00 KCAL/MOL
REMARK 927      BINDING AFFINITY PREDICTED BY RF-SCORE:    0.00 PKD
ROOT
HETATM    1  O   UNL     1      -8.777  16.006  69.248  1.00  0.00    -0.248 OA 
HETATM    2  C   UNL     1      -7.953  16.768  68.362  1.00  0.00    -0.224 C  
HETATM    3  H   UNL     1      -9.018  16.571  69.972  1.00  0.00     0.000 HD 
HETATM    4  O   UNL     1      -8.468  15.776  66.185  1.00  0.00    -0.291 OA 
HETATM    5  C   UNL     1      -7.561  15.853  67.190  1.00  0.00    -0.220 C  
HETATM    6  O   UNL     1      -6.553  15.155  67.203  1.00  0.00    -0.285 OA 
ENDROOT
BRANCH   2   7
HETATM    7  C   UNL     1      -8.649  18.055  67.948  1.00  0.00    -0.258 A  
HETATM    8  C   UNL     1     -10.044  18.122  67.790  1.00  0.00    -0.371 A  
HETATM    9  C   UNL     1     -10.667  19.318  67.428  1.00  0.00    -0.594 A  
HETATM   10  C   UNL     1      -9.908  20.466  67.221  1.00  0.00    -0.597 A  
HETATM   11  C   UNL     1      -8.526  20.422  67.382  1.00  0.00    -0.394 A  
HETATM   12  C   UNL     1      -7.901  19.229  67.750  1.00  0.00    -0.310 A  
ENDBRANCH   2   7
TORSDOF 1
ENDMDL
MODEL       84
REMARK 921   NORMALIZED FREE ENERGY PREDICTED BY IDOCK:   -3.55 KCAL/MOL
REMARK 922        TOTAL FREE ENERGY PREDICTED BY IDOCK:   -3.79 KCAL/MOL
REMARK 923 INTER-LIGAND FREE ENERGY PREDICTED BY IDOCK:   -3.68 KCAL/MOL
REMARK 924 INTRA-LIGAND FREE ENERGY PREDICTED BY IDOCK:   -0.11 KCAL/MOL
REMARK 927      BINDING AFFINITY PREDICTED BY RF-SCORE:    0.00 PKD
ROOT
HETATM    1  O   UNL     1     -10.706  18.415  67.330  1.00  0.00    -0.411 OA 
HETATM    2  C   UNL     1     -10.191  17.254  66.673  1.00  0.00    -0.319 C  
HETATM    3  H   UNL     1     -11.653  18.336  67.351  1.00  0.00     0.000 HD 
HETATM    4  O   UNL     1      -8.014  16.965  67.754  1.00  0.00    -0.175 OA 
HETATM    5  C   UNL     1      -8.659  17.383  66.637  1.00  0.00    -0.255 C  
HETATM    6  O   UNL     1      -8.062  17.923  65.712  1.00  0.00    -0.537 OA 
ENDROOT
BRANCH   2   7
HETATM    7  C   UNL     1     -10.698  15.985  67.341  1.00  0.00    -0.306 A  
HETATM    8  C   UNL     1     -10.623  14.735  66.704  1.00  0.00    -0.299 A  
HETATM    9  C   UNL     1     -11.077  13.578  67.341  1.00  0.00    -0.300 A  
HETATM   10  C   UNL     1     -11.609  13.651  68.625  1.00  0.00    -0.364 A  
HETATM   11  C   UNL     1     -11.684  14.879  69.276  1.00  0.00    -0.344 A  
HETATM   12  C   UNL     1     -11.225  16.037  68.644  1.00  0.00    -0.366 A  
ENDBRANCH   2   7
TORSDOF 1
ENDMDL
MODEL       85
REMARK 921   NORMALIZED FREE ENERGY PREDICTED BY IDOCK:   -3.54 KCAL/MOL
REMARK 922        TOTAL FREE ENERGY PREDICTED BY IDOCK:   -3.78 KCAL/MOL
REMARK 923 INTER-LIGAND FREE ENERGY PREDICTED BY IDOCK:   -3.68 KCAL/MOL
REMARK 924 INTRA-LIGAND FREE ENERGY PREDICTED BY IDOCK:   -0.11 KCAL/MOL
REMARK 927      BINDING AFFINITY PREDICTED BY RF-SCORE:    0.00 PKD
ROOT
HETATM    1  O   UNL     1     -11.712  13.867  69.640  1.00  0.00    -0.275 OA 
HETATM    2  C   UNL     1     -11.951  15.274  69.559  1.00  0.00    -0.330 C  
HETATM    3  H   UNL     1     -11.286  13.601  68.833  1.00  0.00     0.000 HD 
HETATM    4  O   UNL     1     -11.808  15.965  71.902  1.00  0.00    -0.419 OA 
HETATM    5  C   UNL     1     -12.641  15.703  70.864  1.00  0.00    -0.449 C  
HETATM    6  O   UNL     1     -13.859  15.707  70.999  1.00  0.00    -0.567 OA 
ENDROOT
BRANCH   2   7
HETATM    7  C   UNL     1     -10.665  16.025  69.252  1.00  0.00    -0.275 A  
HETATM    8  C   UNL     1      -9.402  15.456  69.491  1.00  0.00    -0.252 A  
HETATM    9  C   UNL     1      -8.232  16.154  69.185  1.00  0.00    -0.230 A  
HETATM   10  C   UNL     1      -8.305  17.429  68.631  1.00  0.00    -0.264 A  
HETATM   11  C   UNL     1      -9.546  18.006  68.378  1.00  0.00    -0.338 A  
HETATM   12  C   UNL     1     -10.718  17.307  68.678  1.00  0.00    -0.280 A  
ENDBRANCH   2   7
TORSDOF 1
ENDMDL
MODEL       86
REMARK 921   NORMALIZED FREE ENERGY PREDICTED BY IDOCK:   -3.50 KCAL/MOL
REMARK 922        TOTAL FREE ENERGY PREDICTED BY IDOCK:   -3.74 KCAL/MOL
REMARK 923 INTER-LIGAND FREE ENERGY PREDICTED BY IDOCK:   -3.61 KCAL/MOL
REMARK 924 INTRA-LIGAND FREE ENERGY PREDICTED BY IDOCK:   -0.12 KCAL/MOL
REMARK 927      BINDING AFFINITY PREDICTED BY RF-SCORE:    0.00 PKD
ROOT
HETATM    1  O   UNL     1     -10.746  13.254  69.092  1.00  0.00    -0.407 OA 
HETATM    2  C   UNL     1     -10.225  14.239  68.196  1.00  0.00    -0.231 C  
HETATM    3  H   UNL     1     -11.685  13.387  69.148  1.00  0.00     0.000 HD 
HETATM    4  O   UNL     1      -8.302  13.088  67.213  1.00  0.00    -0.183 OA 
HETATM    5  C   UNL     1      -8.705  14.026  68.105  1.00  0.00    -0.180 C  
HETATM    6  O   UNL     1      -7.912  14.583  68.857  1.00  0.00    -0.140 OA 
ENDROOT
BRANCH   2   7
HETATM    7  C   UNL     1     -10.946  14.189  66.858  1.00  0.00    -0.302 A  
HETATM    8  C   UNL     1     -10.762  15.184  65.882  1.00  0.00    -0.341 A  
HETATM    9  C   UNL     1     -11.419  15.111  64.652  1.00  0.00    -0.363 A  
HETATM   10  C   UNL     1     -12.268  14.042  64.376  1.00  0.00    -0.457 A  
HETATM   11  C   UNL     1     -12.456  13.043  65.326  1.00  0.00    -0.555 A  
HETATM   12  C   UNL     1     -11.795  13.110  66.555  1.00  0.00    -0.456 A  
ENDBRANCH   2   7
TORSDOF 1
ENDMDL
MODEL       87
REMARK 921   NORMALIZED FREE ENERGY PREDICTED BY IDOCK:   -3.48 KCAL/MOL
REMARK 922        TOTAL FREE ENERGY PREDICTED BY IDOCK:   -3.72 KCAL/MOL
REMARK 923 INTER-LIGAND FREE ENERGY PREDICTED BY IDOCK:   -4.25 KCAL/MOL
REMARK 924 INTRA-LIGAND FREE ENERGY PREDICTED BY IDOCK:    0.52 KCAL/MOL
REMARK 927      BINDING AFFINITY PREDICTED BY RF-SCORE:    0.00 PKD
ROOT
HETATM    1  O   UNL     1     -10.669   9.969  71.172  1.00  0.00    -0.288 OA 
HETATM    2  C   UNL     1     -11.900  10.126  70.461  1.00  0.00    -0.321 C  
HETATM    3  H   UNL     1      -9.964  10.008  70.537  1.00  0.00     0.000 HD 
HETATM    4  O   UNL     1     -13.324  11.231  72.116  1.00  0.00    -0.457 OA 
HETATM    5  C   UNL     1     -13.041  10.063  71.489  1.00  0.00    -0.433 C  
HETATM    6  O   UNL     1     -13.591   9.013  71.804  1.00  0.00    -0.372 OA 
ENDROOT
BRANCH   2   7
HETATM    7  C   UNL     1     -11.881  11.394  69.621  1.00  0.00    -0.431 A  
HETATM    8  C   UNL     1     -11.965  12.669  70.207  1.00  0.00    -0.363 A  
HETATM    9  C   UNL     1     -11.927  13.822  69.420  1.00  0.00    -0.397 A  
HETATM   10  C   UNL     1     -11.801  13.721  68.037  1.00  0.00    -0.408 A  
HETATM   11  C   UNL     1     -11.707  12.467  67.440  1.00  0.00    -0.432 A  
HETATM   12  C   UNL     1     -11.739  11.312  68.225  1.00  0.00    -0.344 A  
ENDBRANCH   2   7
TORSDOF 1
ENDMDL
MODEL       88
REMARK 921   NORMALIZED FREE ENERGY PREDICTED BY IDOCK:   -3.48 KCAL/MOL
REMARK 922        TOTAL FREE ENERGY PREDICTED BY IDOCK:   -3.72 KCAL/MOL
REMARK 923 INTER-LIGAND FREE ENERGY PREDICTED BY IDOCK:   -3.63 KCAL/MOL
REMARK 924 INTRA-LIGAND FREE ENERGY PREDICTED BY IDOCK:   -0.09 KCAL/MOL
REMARK 927      BINDING AFFINITY PREDICTED BY RF-SCORE:    0.00 PKD
ROOT
HETATM    1  O   UNL     1     -11.648   7.634  73.405  1.00  0.00    -0.641 OA 
HETATM    2  C   UNL     1     -12.015   7.786  72.032  1.00  0.00    -0.308 C  
HETATM    3  H   UNL     1     -10.935   7.008  73.444  1.00  0.00     0.000 HD 
HETATM    4  O   UNL     1     -12.798  10.103  71.951  1.00  0.00    -0.413 OA 
HETATM    5  C   UNL     1     -13.169   8.799  71.969  1.00  0.00    -0.395 C  
HETATM    6  O   UNL     1     -14.347   8.466  72.037  1.00  0.00    -0.433 OA 
ENDROOT
BRANCH   2   7
HETATM    7  C   UNL     1     -10.806   8.158  71.187  1.00  0.00    -0.268 A  
HETATM    8  C   UNL     1      -9.674   8.773  71.749  1.00  0.00    -0.380 A  
HETATM    9  C   UNL     1      -8.565   9.090  70.961  1.00  0.00    -0.264 A  
HETATM   10  C   UNL     1      -8.569   8.795  69.600  1.00  0.00    -0.130 A  
HETATM   11  C   UNL     1      -9.677   8.178  69.027  1.00  0.00    -0.163 A  
HETATM   12  C   UNL     1     -10.784   7.854  69.815  1.00  0.00    -0.233 A  
ENDBRANCH   2   7
TORSDOF 1
ENDMDL
MODEL       89
REMARK 921   NORMALIZED FREE ENERGY PREDICTED BY IDOCK:   -3.48 KCAL/MOL
REMARK 922        TOTAL FREE ENERGY PREDICTED BY IDOCK:   -3.72 KCAL/MOL
REMARK 923 INTER-LIGAND FREE ENERGY PREDICTED BY IDOCK:   -3.59 KCAL/MOL
REMARK 924 INTRA-LIGAND FREE ENERGY PREDICTED BY IDOCK:   -0.12 KCAL/MOL
REMARK 927      BINDING AFFINITY PREDICTED BY RF-SCORE:    0.00 PKD
ROOT
HETATM    1  O   UNL     1      -9.825  19.008  67.391  1.00  0.00    -0.306 OA 
HETATM    2  C   UNL     1      -9.072  17.812  67.604  1.00  0.00    -0.246 C  
HETATM    3  H   UNL     1     -10.038  19.369  68.243  1.00  0.00     0.000 HD 
HETATM    4  O   UNL     1      -7.625  17.744  65.632  1.00  0.00    -0.541 OA 
HETATM    5  C   UNL     1      -8.729  17.227  66.225  1.00  0.00    -0.224 C  
HETATM    6  O   UNL     1      -9.455  16.426  65.646  1.00  0.00    -0.486 OA 
ENDROOT
BRANCH   2   7
HETATM    7  C   UNL     1      -7.865  18.083  68.489  1.00  0.00    -0.310 A  
HETATM    8  C   UNL     1      -7.493  19.390  68.850  1.00  0.00    -0.399 A  
HETATM    9  C   UNL     1      -6.393  19.617  69.679  1.00  0.00    -0.366 A  
HETATM   10  C   UNL     1      -5.649  18.545  70.163  1.00  0.00    -0.240 A  
HETATM   11  C   UNL     1      -6.007  17.243  69.824  1.00  0.00    -0.243 A  
HETATM   12  C   UNL     1      -7.111  17.012  69.000  1.00  0.00    -0.233 A  
ENDBRANCH   2   7
TORSDOF 1
ENDMDL
MODEL       90
REMARK 921   NORMALIZED FREE ENERGY PREDICTED BY IDOCK:   -3.48 KCAL/MOL
REMARK 922        TOTAL FREE ENERGY PREDICTED BY IDOCK:   -3.72 KCAL/MOL
REMARK 923 INTER-LIGAND FREE ENERGY PREDICTED BY IDOCK:   -3.63 KCAL/MOL
REMARK 924 INTRA-LIGAND FREE ENERGY PREDICTED BY IDOCK:   -0.09 KCAL/MOL
REMARK 927      BINDING AFFINITY PREDICTED BY RF-SCORE:    0.00 PKD
ROOT
HETATM    1  O   UNL     1      -9.870  20.267  67.273  1.00  0.00    -0.407 OA 
HETATM    2  C   UNL     1      -9.524  19.117  66.497  1.00  0.00    -0.356 C  
HETATM    3  H   UNL     1     -10.809  20.245  67.416  1.00  0.00     0.000 HD 
HETATM    4  O   UNL     1      -7.252  18.631  67.264  1.00  0.00    -0.208 OA 
HETATM    5  C   UNL     1      -8.005  19.153  66.264  1.00  0.00    -0.300 C  
HETATM    6  O   UNL     1      -7.496  19.709  65.297  1.00  0.00    -0.382 OA 
ENDROOT
BRANCH   2   7
HETATM    7  C   UNL     1     -10.028  17.845  67.161  1.00  0.00    -0.327 A  
HETATM    8  C   UNL     1     -10.277  17.782  68.543  1.00  0.00    -0.382 A  
HETATM    9  C   UNL     1     -10.758  16.610  69.131  1.00  0.00    -0.342 A  
HETATM   10  C   UNL     1     -11.000  15.485  68.349  1.00  0.00    -0.297 A  
HETATM   11  C   UNL     1     -10.768  15.530  66.977  1.00  0.00    -0.321 A  
HETATM   12  C   UNL     1     -10.294  16.703  66.385  1.00  0.00    -0.310 A  
ENDBRANCH   2   7
TORSDOF 1
ENDMDL
MODEL       91
REMARK 921   NORMALIZED FREE ENERGY PREDICTED BY IDOCK:   -3.46 KCAL/MOL
REMARK 922        TOTAL FREE ENERGY PREDICTED BY IDOCK:   -3.70 KCAL/MOL
REMARK 923 INTER-LIGAND FREE ENERGY PREDICTED BY IDOCK:   -3.57 KCAL/MOL
REMARK 924 INTRA-LIGAND FREE ENERGY PREDICTED BY IDOCK:   -0.13 KCAL/MOL
REMARK 927      BINDING AFFINITY PREDICTED BY RF-SCORE:    0.00 PKD
ROOT
HETATM    1  O   UNL     1     -12.603  14.576  67.707  1.00  0.00    -0.499 OA 
HETATM    2  C   UNL     1     -11.522  13.823  67.151  1.00  0.00    -0.340 C  
HETATM    3  H   UNL     1     -12.363  14.808  68.596  1.00  0.00     0.000 HD 
HETATM    4  O   UNL     1     -11.655  14.393  64.775  1.00  0.00    -0.370 OA 
HETATM    5  C   UNL     1     -11.911  13.447  65.712  1.00  0.00    -0.377 C  
HETATM    6  O   UNL     1     -12.507  12.412  65.437  1.00  0.00    -0.637 OA 
ENDROOT
BRANCH   2   7
HETATM    7  C   UNL     1     -10.213  14.589  67.268  1.00  0.00    -0.255 A  
HETATM    8  C   UNL     1     -10.185  15.958  67.585  1.00  0.00    -0.263 A  
HETATM    9  C   UNL     1      -8.972  16.640  67.707  1.00  0.00    -0.211 A  
HETATM   10  C   UNL     1      -7.769  15.965  67.518  1.00  0.00    -0.183 A  
HETATM   11  C   UNL     1      -7.777  14.607  67.212  1.00  0.00    -0.198 A  
HETATM   12  C   UNL     1      -8.988  13.921  67.096  1.00  0.00    -0.242 A  
ENDBRANCH   2   7
TORSDOF 1
ENDMDL
MODEL       92
REMARK 921   NORMALIZED FREE ENERGY PREDICTED BY IDOCK:   -3.38 KCAL/MOL
REMARK 922        TOTAL FREE ENERGY PREDICTED BY IDOCK:   -3.61 KCAL/MOL
REMARK 923 INTER-LIGAND FREE ENERGY PREDICTED BY IDOCK:   -3.49 KCAL/MOL
REMARK 924 INTRA-LIGAND FREE ENERGY PREDICTED BY IDOCK:   -0.12 KCAL/MOL
REMARK 927      BINDING AFFINITY PREDICTED BY RF-SCORE:    0.00 PKD
ROOT
HETATM    1  O   UNL     1     -12.342  12.649  66.433  1.00  0.00    -0.521 OA 
HETATM    2  C   UNL     1     -11.243  12.154  65.664  1.00  0.00    -0.335 C  
HETATM    3  H   UNL     1     -12.957  11.934  66.547  1.00  0.00     0.000 HD 
HETATM    4  O   UNL     1      -9.373  13.493  66.498  1.00  0.00    -0.257 OA 
HETATM    5  C   UNL     1     -10.248  13.311  65.479  1.00  0.00    -0.290 C  
HETATM    6  O   UNL     1     -10.302  14.085  64.530  1.00  0.00    -0.419 OA 
ENDROOT
BRANCH   2   7
HETATM    7  C   UNL     1     -10.649  10.910  66.307  1.00  0.00    -0.276 A  
HETATM    8  C   UNL     1      -9.771  10.065  65.607  1.00  0.00    -0.336 A  
HETATM    9  C   UNL     1      -9.220   8.938  66.221  1.00  0.00    -0.261 A  
HETATM   10  C   UNL     1      -9.534   8.640  67.544  1.00  0.00    -0.181 A  
HETATM   11  C   UNL     1     -10.395   9.470  68.257  1.00  0.00    -0.244 A  
HETATM   12  C   UNL     1     -10.942  10.602  67.647  1.00  0.00    -0.370 A  
ENDBRANCH   2   7
TORSDOF 1
ENDMDL
MODEL       93
REMARK 921   NORMALIZED FREE ENERGY PREDICTED BY IDOCK:   -3.37 KCAL/MOL
REMARK 922        TOTAL FREE ENERGY PREDICTED BY IDOCK:   -3.60 KCAL/MOL
REMARK 923 INTER-LIGAND FREE ENERGY PREDICTED BY IDOCK:   -3.69 KCAL/MOL
REMARK 924 INTRA-LIGAND FREE ENERGY PREDICTED BY IDOCK:    0.09 KCAL/MOL
REMARK 927      BINDING AFFINITY PREDICTED BY RF-SCORE:    0.00 PKD
ROOT
HETATM    1  O   UNL     1      -8.081  17.747  67.213  1.00  0.00    -0.206 OA 
HETATM    2  C   UNL     1      -9.375  18.087  67.718  1.00  0.00    -0.263 C  
HETATM    3  H   UNL     1      -7.715  17.084  67.786  1.00  0.00     0.000 HD 
HETATM    4  O   UNL     1     -10.590  18.691  65.682  1.00  0.00    -0.610 OA 
HETATM    5  C   UNL     1      -9.968  19.161  66.791  1.00  0.00    -0.361 C  
HETATM    6  O   UNL     1      -9.802  20.361  66.977  1.00  0.00    -0.439 OA 
ENDROOT
BRANCH   2   7
HETATM    7  C   UNL     1     -10.239  16.845  67.873  1.00  0.00    -0.308 A  
HETATM    8  C   UNL     1     -11.112  16.684  68.962  1.00  0.00    -0.234 A  
HETATM    9  C   UNL     1     -11.912  15.544  69.076  1.00  0.00    -0.323 A  
HETATM   10  C   UNL     1     -11.854  14.550  68.104  1.00  0.00    -0.348 A  
HETATM   11  C   UNL     1     -11.001  14.695  67.013  1.00  0.00    -0.317 A  
HETATM   12  C   UNL     1     -10.205  15.837  66.893  1.00  0.00    -0.280 A  
ENDBRANCH   2   7
TORSDOF 1
ENDMDL
MODEL       94
REMARK 921   NORMALIZED FREE ENERGY PREDICTED BY IDOCK:   -3.36 KCAL/MOL
REMARK 922        TOTAL FREE ENERGY PREDICTED BY IDOCK:   -3.59 KCAL/MOL
REMARK 923 INTER-LIGAND FREE ENERGY PREDICTED BY IDOCK:   -3.58 KCAL/MOL
REMARK 924 INTRA-LIGAND FREE ENERGY PREDICTED BY IDOCK:   -0.02 KCAL/MOL
REMARK 927      BINDING AFFINITY PREDICTED BY RF-SCORE:    0.00 PKD
ROOT
HETATM    1  O   UNL     1      -7.839  17.798  68.479  1.00  0.00    -0.273 OA 
HETATM    2  C   UNL     1      -8.964  18.106  67.653  1.00  0.00    -0.259 C  
HETATM    3  H   UNL     1      -8.075  17.051  69.017  1.00  0.00     0.000 HD 
HETATM    4  O   UNL     1      -7.903  19.022  65.646  1.00  0.00    -0.457 OA 
HETATM    5  C   UNL     1      -8.583  19.315  66.783  1.00  0.00    -0.307 C  
HETATM    6  O   UNL     1      -8.779  20.473  67.135  1.00  0.00    -0.336 OA 
ENDROOT
BRANCH   2   7
HETATM    7  C   UNL     1      -9.410  16.883  66.866  1.00  0.00    -0.254 A  
HETATM    8  C   UNL     1     -10.393  16.966  65.865  1.00  0.00    -0.327 A  
HETATM    9  C   UNL     1     -10.775  15.835  65.142  1.00  0.00    -0.455 A  
HETATM   10  C   UNL     1     -10.180  14.604  65.403  1.00  0.00    -0.415 A  
HETATM   11  C   UNL     1      -9.198  14.503  66.384  1.00  0.00    -0.264 A  
HETATM   12  C   UNL     1      -8.809  15.635  67.105  1.00  0.00    -0.228 A  
ENDBRANCH   2   7
TORSDOF 1
ENDMDL
MODEL       95
REMARK 921   NORMALIZED FREE ENERGY PREDICTED BY IDOCK:   -3.33 KCAL/MOL
REMARK 922        TOTAL FREE ENERGY PREDICTED BY IDOCK:   -3.56 KCAL/MOL
REMARK 923 INTER-LIGAND FREE ENERGY PREDICTED BY IDOCK:   -3.44 KCAL/MOL
REMARK 924 INTRA-LIGAND FREE ENERGY PREDICTED BY IDOCK:   -0.12 KCAL/MOL
REMARK 927      BINDING AFFINITY PREDICTED BY RF-SCORE:    0.00 PKD
ROOT
HETATM    1  O   UNL     1      -8.796  15.161  68.147  1.00  0.00    -0.163 OA 
HETATM    2  C   UNL     1      -9.431  15.913  69.184  1.00  0.00    -0.260 C  
HETATM    3  H   UNL     1      -8.533  14.327  68.517  1.00  0.00     0.000 HD 
HETATM    4  O   UNL     1     -11.047  17.263  67.937  1.00  0.00    -0.276 OA 
HETATM    5  C   UNL     1      -9.856  17.263  68.585  1.00  0.00    -0.313 C  
HETATM    6  O   UNL     1      -9.128  18.250  68.594  1.00  0.00    -0.312 OA 
ENDROOT
BRANCH   2   7
HETATM    7  C   UNL     1     -10.568  15.118  69.809  1.00  0.00    -0.267 A  
HETATM    8  C   UNL     1     -11.009  13.903  69.258  1.00  0.00    -0.222 A  
HETATM    9  C   UNL     1     -12.042  13.178  69.857  1.00  0.00    -0.357 A  
HETATM   10  C   UNL     1     -12.647  13.653  71.017  1.00  0.00    -0.441 A  
HETATM   11  C   UNL     1     -12.217  14.850  71.583  1.00  0.00    -0.408 A  
HETATM   12  C   UNL     1     -11.180  15.574  70.990  1.00  0.00    -0.419 A  
ENDBRANCH   2   7
TORSDOF 1
ENDMDL
MODEL       96
REMARK 921   NORMALIZED FREE ENERGY PREDICTED BY IDOCK:   -3.32 KCAL/MOL
REMARK 922        TOTAL FREE ENERGY PREDICTED BY IDOCK:   -3.55 KCAL/MOL
REMARK 923 INTER-LIGAND FREE ENERGY PREDICTED BY IDOCK:   -3.59 KCAL/MOL
REMARK 924 INTRA-LIGAND FREE ENERGY PREDICTED BY IDOCK:    0.03 KCAL/MOL
REMARK 927      BINDING AFFINITY PREDICTED BY RF-SCORE:    0.00 PKD
ROOT
HETATM    1  O   UNL     1     -11.506   6.510  67.694  1.00  0.00    -0.694 OA 
HETATM    2  C   UNL     1     -10.474   7.248  68.352  1.00  0.00    -0.195 C  
HETATM    3  H   UNL     1     -11.680   5.735  68.214  1.00  0.00     0.000 HD 
HETATM    4  O   UNL     1     -11.011   9.557  67.743  1.00  0.00    -0.244 OA 
HETATM    5  C   UNL     1     -10.191   8.503  67.510  1.00  0.00    -0.242 C  
HETATM    6  O   UNL     1      -9.355   8.523  66.613  1.00  0.00    -0.161 OA 
ENDROOT
BRANCH   2   7
HETATM    7  C   UNL     1     -10.851   7.535  69.798  1.00  0.00    -0.234 A  
HETATM    8  C   UNL     1     -10.132   8.455  70.580  1.00  0.00    -0.220 A  
HETATM    9  C   UNL     1     -10.506   8.718  71.900  1.00  0.00    -0.423 A  
HETATM   10  C   UNL     1     -11.605   8.071  72.457  1.00  0.00    -0.464 A  
HETATM   11  C   UNL     1     -12.335   7.164  71.695  1.00  0.00    -0.398 A  
HETATM   12  C   UNL     1     -11.967   6.903  70.373  1.00  0.00    -0.312 A  
ENDBRANCH   2   7
TORSDOF 1
ENDMDL
MODEL       97
REMARK 921   NORMALIZED FREE ENERGY PREDICTED BY IDOCK:   -3.31 KCAL/MOL
REMARK 922        TOTAL FREE ENERGY PREDICTED BY IDOCK:   -3.54 KCAL/MOL
REMARK 923 INTER-LIGAND FREE ENERGY PREDICTED BY IDOCK:   -3.44 KCAL/MOL
REMARK 924 INTRA-LIGAND FREE ENERGY PREDICTED BY IDOCK:   -0.10 KCAL/MOL
REMARK 927      BINDING AFFINITY PREDICTED BY RF-SCORE:    0.00 PKD
ROOT
HETATM    1  O   UNL     1      -8.135  11.318  65.548  1.00  0.00    -0.367 OA 
HETATM    2  C   UNL     1      -9.230  11.738  66.367  1.00  0.00    -0.217 C  
HETATM    3  H   UNL     1      -8.456  10.638  64.968  1.00  0.00     0.000 HD 
HETATM    4  O   UNL     1      -8.698  14.089  66.787  1.00  0.00    -0.203 OA 
HETATM    5  C   UNL     1      -8.711  12.838  67.307  1.00  0.00    -0.200 C  
HETATM    6  O   UNL     1      -8.240  12.595  68.413  1.00  0.00    -0.158 OA 
ENDROOT
BRANCH   2   7
HETATM    7  C   UNL     1     -10.417  12.152  65.511  1.00  0.00    -0.300 A  
HETATM    8  C   UNL     1     -10.352  12.150  64.107  1.00  0.00    -0.382 A  
HETATM    9  C   UNL     1     -11.459  12.516  63.338  1.00  0.00    -0.523 A  
HETATM   10  C   UNL     1     -12.649  12.885  63.958  1.00  0.00    -0.331 A  
HETATM   11  C   UNL     1     -12.736  12.885  65.348  1.00  0.00    -0.313 A  
HETATM   12  C   UNL     1     -11.632  12.514  66.119  1.00  0.00    -0.448 A  
ENDBRANCH   2   7
TORSDOF 1
ENDMDL
MODEL       98
REMARK 921   NORMALIZED FREE ENERGY PREDICTED BY IDOCK:   -3.30 KCAL/MOL
REMARK 922        TOTAL FREE ENERGY PREDICTED BY IDOCK:   -3.53 KCAL/MOL
REMARK 923 INTER-LIGAND FREE ENERGY PREDICTED BY IDOCK:   -3.43 KCAL/MOL
REMARK 924 INTRA-LIGAND FREE ENERGY PREDICTED BY IDOCK:   -0.10 KCAL/MOL
REMARK 927      BINDING AFFINITY PREDICTED BY RF-SCORE:    0.00 PKD
ROOT
HETATM    1  O   UNL     1     -11.484  11.995  69.834  1.00  0.00    -0.458 OA 
HETATM    2  C   UNL     1     -10.680  12.416  68.729  1.00  0.00    -0.209 C  
HETATM    3  H   UNL     1     -11.149  12.424  70.612  1.00  0.00     0.000 HD 
HETATM    4  O   UNL     1     -12.268  12.340  66.868  1.00  0.00    -0.530 OA 
HETATM    5  C   UNL     1     -11.222  11.720  67.469  1.00  0.00    -0.291 C  
HETATM    6  O   UNL     1     -10.816  10.628  67.089  1.00  0.00    -0.274 OA 
ENDROOT
BRANCH   2   7
HETATM    7  C   UNL     1     -10.637  13.933  68.639  1.00  0.00    -0.265 A  
HETATM    8  C   UNL     1      -9.634  14.602  67.915  1.00  0.00    -0.212 A  
HETATM    9  C   UNL     1      -9.622  15.995  67.828  1.00  0.00    -0.219 A  
HETATM   10  C   UNL     1     -10.612  16.743  68.459  1.00  0.00    -0.354 A  
HETATM   11  C   UNL     1     -11.618  16.099  69.174  1.00  0.00    -0.285 A  
HETATM   12  C   UNL     1     -11.636  14.705  69.257  1.00  0.00    -0.335 A  
ENDBRANCH   2   7
TORSDOF 1
ENDMDL
MODEL       99
REMARK 921   NORMALIZED FREE ENERGY PREDICTED BY IDOCK:   -3.30 KCAL/MOL
REMARK 922        TOTAL FREE ENERGY PREDICTED BY IDOCK:   -3.52 KCAL/MOL
REMARK 923 INTER-LIGAND FREE ENERGY PREDICTED BY IDOCK:   -3.47 KCAL/MOL
REMARK 924 INTRA-LIGAND FREE ENERGY PREDICTED BY IDOCK:   -0.05 KCAL/MOL
REMARK 927      BINDING AFFINITY PREDICTED BY RF-SCORE:    0.00 PKD
ROOT
HETATM    1  O   UNL     1      -8.988   8.127  70.351  1.00  0.00    -0.142 OA 
HETATM    2  C   UNL     1      -9.592   9.422  70.289  1.00  0.00    -0.249 C  
HETATM    3  H   UNL     1      -8.997   7.850  71.260  1.00  0.00     0.000 HD 
HETATM    4  O   UNL     1     -10.609   9.419  68.063  1.00  0.00    -0.230 OA 
HETATM    5  C   UNL     1      -9.577   9.870  68.818  1.00  0.00    -0.160 C  
HETATM    6  O   UNL     1      -8.648  10.502  68.328  1.00  0.00    -0.119 OA 
ENDROOT
BRANCH   2   7
HETATM    7  C   UNL     1     -10.972   9.406  70.927  1.00  0.00    -0.391 A  
HETATM    8  C   UNL     1     -11.800  10.543  70.924  1.00  0.00    -0.455 A  
HETATM    9  C   UNL     1     -13.072  10.503  71.499  1.00  0.00    -0.532 A  
HETATM   10  C   UNL     1     -13.539   9.329  72.082  1.00  0.00    -0.536 A  
HETATM   11  C   UNL     1     -12.738   8.191  72.086  1.00  0.00    -0.332 A  
HETATM   12  C   UNL     1     -11.468   8.225  71.507  1.00  0.00    -0.325 A  
ENDBRANCH   2   7
TORSDOF 1
ENDMDL
MODEL      100
REMARK 921   NORMALIZED FREE ENERGY PREDICTED BY IDOCK:   -3.29 KCAL/MOL
REMARK 922        TOTAL FREE ENERGY PREDICTED BY IDOCK:   -3.52 KCAL/MOL
REMARK 923 INTER-LIGAND FREE ENERGY PREDICTED BY IDOCK:   -3.43 KCAL/MOL
REMARK 924 INTRA-LIGAND FREE ENERGY PREDICTED BY IDOCK:   -0.09 KCAL/MOL
REMARK 927      BINDING AFFINITY PREDICTED BY RF-SCORE:    0.00 PKD
ROOT
HETATM    1  O   UNL     1     -11.609   6.472  67.570  1.00  0.00    -0.693 OA 
HETATM    2  C   UNL     1     -10.479   6.002  68.309  1.00  0.00    -0.235 C  
HETATM    3  H   UNL     1     -12.334   5.885  67.750  1.00  0.00     0.000 HD 
HETATM    4  O   UNL     1      -9.262   8.073  68.778  1.00  0.00    -0.144 OA 
HETATM    5  C   UNL     1      -9.306   6.951  68.017  1.00  0.00    -0.123 C  
HETATM    6  O   UNL     1      -8.522   6.769  67.092  1.00  0.00    -0.119 OA 
ENDROOT
BRANCH   2   7
HETATM    7  C   UNL     1     -10.819   5.860  69.785  1.00  0.00    -0.447 A  
HETATM    8  C   UNL     1     -10.068   5.035  70.640  1.00  0.00    -0.313 A  
HETATM    9  C   UNL     1     -10.384   4.933  71.997  1.00  0.00    -0.263 A  
HETATM   10  C   UNL     1     -11.452   5.655  72.521  1.00  0.00    -0.335 A  
HETATM   11  C   UNL     1     -12.203   6.484  71.692  1.00  0.00    -0.353 A  
HETATM   12  C   UNL     1     -11.885   6.593  70.336  1.00  0.00    -0.407 A  
ENDBRANCH   2   7
TORSDOF 1
ENDMDL
MODEL      101
REMARK 921   NORMALIZED FREE ENERGY PREDICTED BY IDOCK:   -3.27 KCAL/MOL
REMARK 922        TOTAL FREE ENERGY PREDICTED BY IDOCK:   -3.49 KCAL/MOL
REMARK 923 INTER-LIGAND FREE ENERGY PREDICTED BY IDOCK:   -3.82 KCAL/MOL
REMARK 924 INTRA-LIGAND FREE ENERGY PREDICTED BY IDOCK:    0.32 KCAL/MOL
REMARK 927      BINDING AFFINITY PREDICTED BY RF-SCORE:    0.00 PKD
ROOT
HETATM    1  O   UNL     1     -10.966   8.958  72.370  1.00  0.00    -0.273 OA 
HETATM    2  C   UNL     1     -11.913   9.169  71.320  1.00  0.00    -0.325 C  
HETATM    3  H   UNL     1     -10.180   8.595  71.979  1.00  0.00     0.000 HD 
HETATM    4  O   UNL     1     -13.179  11.098  72.135  1.00  0.00    -0.481 OA 
HETATM    5  C   UNL     1     -13.186   9.754  71.953  1.00  0.00    -0.449 C  
HETATM    6  O   UNL     1     -14.103   9.053  72.365  1.00  0.00    -0.469 OA 
ENDROOT
BRANCH   2   7
HETATM    7  C   UNL     1     -11.313  10.022  70.213  1.00  0.00    -0.376 A  
HETATM    8  C   UNL     1      -9.946   9.957  69.890  1.00  0.00    -0.292 A  
HETATM    9  C   UNL     1      -9.417  10.735  68.858  1.00  0.00    -0.190 A  
HETATM   10  C   UNL     1     -10.244  11.586  68.130  1.00  0.00    -0.205 A  
HETATM   11  C   UNL     1     -11.601  11.657  68.429  1.00  0.00    -0.376 A  
HETATM   12  C   UNL     1     -12.135  10.876  69.457  1.00  0.00    -0.380 A  
ENDBRANCH   2   7
TORSDOF 1
ENDMDL
MODEL      102
REMARK 921   NORMALIZED FREE ENERGY PREDICTED BY IDOCK:   -3.24 KCAL/MOL
REMARK 922        TOTAL FREE ENERGY PREDICTED BY IDOCK:   -3.47 KCAL/MOL
REMARK 923 INTER-LIGAND FREE ENERGY PREDICTED BY IDOCK:   -3.34 KCAL/MOL
REMARK 924 INTRA-LIGAND FREE ENERGY PREDICTED BY IDOCK:   -0.13 KCAL/MOL
REMARK 927      BINDING AFFINITY PREDICTED BY RF-SCORE:    0.00 PKD
ROOT
HETATM    1  O   UNL     1     -10.195  10.575  70.131  1.00  0.00    -0.433 OA 
HETATM    2  C   UNL     1     -11.364  11.050  69.457  1.00  0.00    -0.287 C  
HETATM    3  H   UNL     1      -9.568  10.314  69.467  1.00  0.00     0.000 HD 
HETATM    4  O   UNL     1     -12.222  12.728  71.018  1.00  0.00    -0.307 OA 
HETATM    5  C   UNL     1     -12.379  11.472  70.532  1.00  0.00    -0.342 C  
HETATM    6  O   UNL     1     -13.208  10.700  70.999  1.00  0.00    -0.332 OA 
ENDROOT
BRANCH   2   7
HETATM    7  C   UNL     1     -11.008  12.146  68.464  1.00  0.00    -0.276 A  
HETATM    8  C   UNL     1      -9.736  12.744  68.449  1.00  0.00    -0.186 A  
HETATM    9  C   UNL     1      -9.422  13.736  67.517  1.00  0.00    -0.220 A  
HETATM   10  C   UNL     1     -10.371  14.143  66.584  1.00  0.00    -0.277 A  
HETATM   11  C   UNL     1     -11.633  13.556  66.578  1.00  0.00    -0.391 A  
HETATM   12  C   UNL     1     -11.948  12.560  67.505  1.00  0.00    -0.287 A  
ENDBRANCH   2   7
TORSDOF 1
ENDMDL
MODEL      103
REMARK 921   NORMALIZED FREE ENERGY PREDICTED BY IDOCK:   -3.24 KCAL/MOL
REMARK 922        TOTAL FREE ENERGY PREDICTED BY IDOCK:   -3.46 KCAL/MOL
REMARK 923 INTER-LIGAND FREE ENERGY PREDICTED BY IDOCK:   -3.34 KCAL/MOL
REMARK 924 INTRA-LIGAND FREE ENERGY PREDICTED BY IDOCK:   -0.12 KCAL/MOL
REMARK 927      BINDING AFFINITY PREDICTED BY RF-SCORE:    0.00 PKD
ROOT
HETATM    1  O   UNL     1      -9.503  10.882  66.646  1.00  0.00    -0.174 OA 
HETATM    2  C   UNL     1      -9.846  10.603  68.006  1.00  0.00    -0.160 C  
HETATM    3  H   UNL     1      -8.816  10.277  66.393  1.00  0.00     0.000 HD 
HETATM    4  O   UNL     1     -12.216  11.207  68.082  1.00  0.00    -0.612 OA 
HETATM    5  C   UNL     1     -10.957  11.584  68.414  1.00  0.00    -0.221 C  
HETATM    6  O   UNL     1     -10.723  12.681  68.910  1.00  0.00    -0.230 OA 
ENDROOT
BRANCH   2   7
HETATM    7  C   UNL     1     -10.207   9.136  68.183  1.00  0.00    -0.249 A  
HETATM    8  C   UNL     1     -10.415   8.576  69.455  1.00  0.00    -0.223 A  
HETATM    9  C   UNL     1     -10.764   7.231  69.596  1.00  0.00    -0.249 A  
HETATM   10  C   UNL     1     -10.914   6.426  68.470  1.00  0.00    -0.396 A  
HETATM   11  C   UNL     1     -10.721   6.966  67.201  1.00  0.00    -0.436 A  
HETATM   12  C   UNL     1     -10.378   8.312  67.057  1.00  0.00    -0.393 A  
ENDBRANCH   2   7
TORSDOF 1
ENDMDL
MODEL      104
REMARK 921   NORMALIZED FREE ENERGY PREDICTED BY IDOCK:   -3.24 KCAL/MOL
REMARK 922        TOTAL FREE ENERGY PREDICTED BY IDOCK:   -3.46 KCAL/MOL
REMARK 923 INTER-LIGAND FREE ENERGY PREDICTED BY IDOCK:   -3.45 KCAL/MOL
REMARK 924 INTRA-LIGAND FREE ENERGY PREDICTED BY IDOCK:   -0.01 KCAL/MOL
REMARK 927      BINDING AFFINITY PREDICTED BY RF-SCORE:    0.00 PKD
ROOT
HETATM    1  O   UNL     1     -12.714   6.367  72.132  1.00  0.00    -0.526 OA 
HETATM    2  C   UNL     1     -11.562   7.196  71.958  1.00  0.00    -0.280 C  
HETATM    3  H   UNL     1     -13.399   6.707  71.568  1.00  0.00     0.000 HD 
HETATM    4  O   UNL     1      -9.725   5.628  72.354  1.00  0.00    -0.156 OA 
HETATM    5  C   UNL     1     -10.454   6.647  72.872  1.00  0.00    -0.229 C  
HETATM    6  O   UNL     1     -10.301   7.026  74.028  1.00  0.00    -0.364 OA 
ENDROOT
BRANCH   2   7
HETATM    7  C   UNL     1     -11.177   7.286  70.489  1.00  0.00    -0.305 A  
HETATM    8  C   UNL     1     -11.377   6.210  69.606  1.00  0.00    -0.442 A  
HETATM    9  C   UNL     1     -11.035   6.319  68.256  1.00  0.00    -0.408 A  
HETATM   10  C   UNL     1     -10.491   7.503  67.767  1.00  0.00    -0.288 A  
HETATM   11  C   UNL     1     -10.294   8.582  68.624  1.00  0.00    -0.224 A  
HETATM   12  C   UNL     1     -10.642   8.479  69.973  1.00  0.00    -0.230 A  
ENDBRANCH   2   7
TORSDOF 1
ENDMDL
MODEL      105
REMARK 921   NORMALIZED FREE ENERGY PREDICTED BY IDOCK:   -3.22 KCAL/MOL
REMARK 922        TOTAL FREE ENERGY PREDICTED BY IDOCK:   -3.44 KCAL/MOL
REMARK 923 INTER-LIGAND FREE ENERGY PREDICTED BY IDOCK:   -3.33 KCAL/MOL
REMARK 924 INTRA-LIGAND FREE ENERGY PREDICTED BY IDOCK:   -0.11 KCAL/MOL
REMARK 927      BINDING AFFINITY PREDICTED BY RF-SCORE:    0.00 PKD
ROOT
HETATM    1  O   UNL     1     -10.094  14.942  66.352  1.00  0.00    -0.264 OA 
HETATM    2  C   UNL     1      -9.451  16.075  65.762  1.00  0.00    -0.247 C  
HETATM    3  H   UNL     1      -9.438  14.264  66.460  1.00  0.00     0.000 HD 
HETATM    4  O   UNL     1     -10.739  17.943  66.678  1.00  0.00    -0.268 OA 
HETATM    5  C   UNL     1     -10.514  17.172  65.586  1.00  0.00    -0.197 C  
HETATM    6  O   UNL     1     -11.192  17.280  64.570  1.00  0.00    -1.083 OA 
ENDROOT
BRANCH   2   7
HETATM    7  C   UNL     1      -8.242  16.498  66.581  1.00  0.00    -0.306 A  
HETATM    8  C   UNL     1      -7.925  15.880  67.803  1.00  0.00    -0.154 A  
HETATM    9  C   UNL     1      -6.799  16.270  68.532  1.00  0.00    -0.137 A  
HETATM   10  C   UNL     1      -5.970  17.279  68.050  1.00  0.00    -0.137 A  
HETATM   11  C   UNL     1      -6.262  17.896  66.837  1.00  0.00    -0.191 A  
HETATM   12  C   UNL     1      -7.384  17.504  66.103  1.00  0.00    -0.347 A  
ENDBRANCH   2   7
TORSDOF 1
ENDMDL
MODEL      106
REMARK 921   NORMALIZED FREE ENERGY PREDICTED BY IDOCK:   -3.20 KCAL/MOL
REMARK 922        TOTAL FREE ENERGY PREDICTED BY IDOCK:   -3.43 KCAL/MOL
REMARK 923 INTER-LIGAND FREE ENERGY PREDICTED BY IDOCK:   -3.31 KCAL/MOL
REMARK 924 INTRA-LIGAND FREE ENERGY PREDICTED BY IDOCK:   -0.11 KCAL/MOL
REMARK 927      BINDING AFFINITY PREDICTED BY RF-SCORE:    0.00 PKD
ROOT
HETATM    1  O   UNL     1     -11.646  16.517  70.710  1.00  0.00    -0.562 OA 
HETATM    2  C   UNL     1     -10.817  15.546  70.067  1.00  0.00    -0.318 C  
HETATM    3  H   UNL     1     -11.108  17.280  70.888  1.00  0.00     0.000 HD 
HETATM    4  O   UNL     1     -12.409  14.364  68.633  1.00  0.00    -0.202 OA 
HETATM    5  C   UNL     1     -11.686  14.311  69.779  1.00  0.00    -0.309 C  
HETATM    6  O   UNL     1     -11.806  13.386  70.575  1.00  0.00    -0.278 OA 
ENDROOT
BRANCH   2   7
HETATM    7  C   UNL     1     -10.141  16.138  68.840  1.00  0.00    -0.238 A  
HETATM    8  C   UNL     1     -10.619  17.309  68.227  1.00  0.00    -0.383 A  
HETATM    9  C   UNL     1      -9.974  17.848  67.112  1.00  0.00    -0.327 A  
HETATM   10  C   UNL     1      -8.840  17.229  66.594  1.00  0.00    -0.280 A  
HETATM   11  C   UNL     1      -8.346  16.074  67.192  1.00  0.00    -0.228 A  
HETATM   12  C   UNL     1      -8.986  15.536  68.312  1.00  0.00    -0.185 A  
ENDBRANCH   2   7
TORSDOF 1
ENDMDL
MODEL      107
REMARK 921   NORMALIZED FREE ENERGY PREDICTED BY IDOCK:   -3.20 KCAL/MOL
REMARK 922        TOTAL FREE ENERGY PREDICTED BY IDOCK:   -3.42 KCAL/MOL
REMARK 923 INTER-LIGAND FREE ENERGY PREDICTED BY IDOCK:   -3.31 KCAL/MOL
REMARK 924 INTRA-LIGAND FREE ENERGY PREDICTED BY IDOCK:   -0.12 KCAL/MOL
REMARK 927      BINDING AFFINITY PREDICTED BY RF-SCORE:    0.00 PKD
ROOT
HETATM    1  O   UNL     1     -12.402   9.758  71.872  1.00  0.00    -0.377 OA 
HETATM    2  C   UNL     1     -11.896   8.782  70.957  1.00  0.00    -0.271 C  
HETATM    3  H   UNL     1     -13.023   9.320  72.443  1.00  0.00     0.000 HD 
HETATM    4  O   UNL     1      -9.632   9.600  70.518  1.00  0.00    -0.258 OA 
HETATM    5  C   UNL     1     -10.893   9.490  70.032  1.00  0.00    -0.252 C  
HETATM    6  O   UNL     1     -11.224  10.015  68.975  1.00  0.00    -0.207 OA 
ENDROOT
BRANCH   2   7
HETATM    7  C   UNL     1     -11.326   7.585  71.703  1.00  0.00    -0.283 A  
HETATM    8  C   UNL     1     -11.053   6.370  71.051  1.00  0.00    -0.349 A  
HETATM    9  C   UNL     1     -10.512   5.289  71.750  1.00  0.00    -0.278 A  
HETATM   10  C   UNL     1     -10.232   5.404  73.108  1.00  0.00    -0.216 A  
HETATM   11  C   UNL     1     -10.488   6.602  73.770  1.00  0.00    -0.357 A  
HETATM   12  C   UNL     1     -11.023   7.688  73.072  1.00  0.00    -0.457 A  
ENDBRANCH   2   7
TORSDOF 1
ENDMDL
MODEL      108
REMARK 921   NORMALIZED FREE ENERGY PREDICTED BY IDOCK:   -3.20 KCAL/MOL
REMARK 922        TOTAL FREE ENERGY PREDICTED BY IDOCK:   -3.42 KCAL/MOL
REMARK 923 INTER-LIGAND FREE ENERGY PREDICTED BY IDOCK:   -3.30 KCAL/MOL
REMARK 924 INTRA-LIGAND FREE ENERGY PREDICTED BY IDOCK:   -0.12 KCAL/MOL
REMARK 927      BINDING AFFINITY PREDICTED BY RF-SCORE:    0.00 PKD
ROOT
HETATM    1  O   UNL     1      -8.543  16.406  65.807  1.00  0.00    -0.398 OA 
HETATM    2  C   UNL     1      -7.927  17.200  66.824  1.00  0.00    -0.235 C  
HETATM    3  H   UNL     1      -9.368  16.086  66.153  1.00  0.00     0.000 HD 
HETATM    4  O   UNL     1      -6.672  18.845  65.517  1.00  0.00    -0.294 OA 
HETATM    5  C   UNL     1      -6.592  17.717  66.265  1.00  0.00    -0.265 C  
HETATM    6  O   UNL     1      -5.539  17.101  66.390  1.00  0.00    -0.250 OA 
ENDROOT
BRANCH   2   7
HETATM    7  C   UNL     1      -8.871  18.292  67.304  1.00  0.00    -0.255 A  
HETATM    8  C   UNL     1      -8.640  18.995  68.498  1.00  0.00    -0.393 A  
HETATM    9  C   UNL     1      -9.509  20.008  68.913  1.00  0.00    -0.110 A  
HETATM   10  C   UNL     1     -10.619  20.335  68.139  1.00  0.00    -0.187 A  
HETATM   11  C   UNL     1     -10.860  19.656  66.949  1.00  0.00    -0.505 A  
HETATM   12  C   UNL     1      -9.989  18.647  66.529  1.00  0.00    -0.408 A  
ENDBRANCH   2   7
TORSDOF 1
ENDMDL
MODEL      109
REMARK 921   NORMALIZED FREE ENERGY PREDICTED BY IDOCK:   -3.20 KCAL/MOL
REMARK 922        TOTAL FREE ENERGY PREDICTED BY IDOCK:   -3.42 KCAL/MOL
REMARK 923 INTER-LIGAND FREE ENERGY PREDICTED BY IDOCK:   -3.29 KCAL/MOL
REMARK 924 INTRA-LIGAND FREE ENERGY PREDICTED BY IDOCK:   -0.13 KCAL/MOL
REMARK 927      BINDING AFFINITY PREDICTED BY RF-SCORE:    0.00 PKD
ROOT
HETATM    1  O   UNL     1     -10.125  18.185  67.831  1.00  0.00    -0.321 OA 
HETATM    2  C   UNL     1      -9.155  17.244  67.364  1.00  0.00    -0.226 C  
HETATM    3  H   UNL     1      -9.672  18.816  68.379  1.00  0.00     0.000 HD 
HETATM    4  O   UNL     1     -10.063  16.593  65.187  1.00  0.00    -0.539 OA 
HETATM    5  C   UNL     1      -9.889  16.223  66.479  1.00  0.00    -0.271 C  
HETATM    6  O   UNL     1     -10.378  15.191  66.926  1.00  0.00    -0.263 OA 
ENDROOT
BRANCH   2   7
HETATM    7  C   UNL     1      -7.999  17.955  66.677  1.00  0.00    -0.278 A  
HETATM    8  C   UNL     1      -8.064  19.319  66.345  1.00  0.00    -0.327 A  
HETATM    9  C   UNL     1      -6.984  19.958  65.731  1.00  0.00    -0.317 A  
HETATM   10  C   UNL     1      -5.823  19.247  65.443  1.00  0.00    -0.231 A  
HETATM   11  C   UNL     1      -5.737  17.897  65.773  1.00  0.00    -0.217 A  
HETATM   12  C   UNL     1      -6.813  17.257  66.392  1.00  0.00    -0.300 A  
ENDBRANCH   2   7
TORSDOF 1
ENDMDL
MODEL      110
REMARK 921   NORMALIZED FREE ENERGY PREDICTED BY IDOCK:   -3.19 KCAL/MOL
REMARK 922        TOTAL FREE ENERGY PREDICTED BY IDOCK:   -3.41 KCAL/MOL
REMARK 923 INTER-LIGAND FREE ENERGY PREDICTED BY IDOCK:   -3.41 KCAL/MOL
REMARK 924 INTRA-LIGAND FREE ENERGY PREDICTED BY IDOCK:   -0.00 KCAL/MOL
REMARK 927      BINDING AFFINITY PREDICTED BY RF-SCORE:    0.00 PKD
ROOT
HETATM    1  O   UNL     1      -9.418  10.709  69.841  1.00  0.00    -0.383 OA 
HETATM    2  C   UNL     1     -10.783  10.289  69.759  1.00  0.00    -0.285 C  
HETATM    3  H   UNL     1      -9.159  10.666  70.754  1.00  0.00     0.000 HD 
HETATM    4  O   UNL     1     -10.886   9.273  67.535  1.00  0.00    -0.259 OA 
HETATM    5  C   UNL     1     -11.203  10.359  68.282  1.00  0.00    -0.267 C  
HETATM    6  O   UNL     1     -11.693  11.365  67.780  1.00  0.00    -0.533 OA 
ENDROOT
BRANCH   2   7
HETATM    7  C   UNL     1     -10.967   8.921  70.400  1.00  0.00    -0.275 A  
HETATM    8  C   UNL     1      -9.960   7.942  70.351  1.00  0.00    -0.192 A  
HETATM    9  C   UNL     1     -10.141   6.699  70.961  1.00  0.00    -0.207 A  
HETATM   10  C   UNL     1     -11.327   6.416  71.633  1.00  0.00    -0.339 A  
HETATM   11  C   UNL     1     -12.332   7.377  71.700  1.00  0.00    -0.373 A  
HETATM   12  C   UNL     1     -12.151   8.623  71.096  1.00  0.00    -0.297 A  
ENDBRANCH   2   7
TORSDOF 1
ENDMDL
MODEL      111
REMARK 921   NORMALIZED FREE ENERGY PREDICTED BY IDOCK:   -3.19 KCAL/MOL
REMARK 922        TOTAL FREE ENERGY PREDICTED BY IDOCK:   -3.41 KCAL/MOL
REMARK 923 INTER-LIGAND FREE ENERGY PREDICTED BY IDOCK:   -3.30 KCAL/MOL
REMARK 924 INTRA-LIGAND FREE ENERGY PREDICTED BY IDOCK:   -0.11 KCAL/MOL
REMARK 927      BINDING AFFINITY PREDICTED BY RF-SCORE:    0.00 PKD
ROOT
HETATM    1  O   UNL     1     -11.574   6.685  67.953  1.00  0.00    -0.608 OA 
HETATM    2  C   UNL     1     -11.025   5.917  69.027  1.00  0.00    -0.289 C  
HETATM    3  H   UNL     1     -12.443   6.965  68.216  1.00  0.00     0.000 HD 
HETATM    4  O   UNL     1      -8.628   6.363  68.818  1.00  0.00    -0.123 OA 
HETATM    5  C   UNL     1      -9.619   5.464  68.602  1.00  0.00    -0.130 C  
HETATM    6  O   UNL     1      -9.414   4.409  68.011  1.00  0.00    -0.140 OA 
ENDROOT
BRANCH   2   7
HETATM    7  C   UNL     1     -11.065   6.702  70.329  1.00  0.00    -0.379 A  
HETATM    8  C   UNL     1     -11.185   8.103  70.344  1.00  0.00    -0.221 A  
HETATM    9  C   UNL     1     -11.238   8.805  71.550  1.00  0.00    -0.377 A  
HETATM   10  C   UNL     1     -11.176   8.119  72.760  1.00  0.00    -0.407 A  
HETATM   11  C   UNL     1     -11.067   6.732  72.766  1.00  0.00    -0.292 A  
HETATM   12  C   UNL     1     -11.019   6.027  71.561  1.00  0.00    -0.335 A  
ENDBRANCH   2   7
TORSDOF 1
ENDMDL
MODEL      112
REMARK 921   NORMALIZED FREE ENERGY PREDICTED BY IDOCK:   -3.18 KCAL/MOL
REMARK 922        TOTAL FREE ENERGY PREDICTED BY IDOCK:   -3.40 KCAL/MOL
REMARK 923 INTER-LIGAND FREE ENERGY PREDICTED BY IDOCK:   -3.48 KCAL/MOL
REMARK 924 INTRA-LIGAND FREE ENERGY PREDICTED BY IDOCK:    0.08 KCAL/MOL
REMARK 927      BINDING AFFINITY PREDICTED BY RF-SCORE:    0.00 PKD
ROOT
HETATM    1  O   UNL     1     -11.471  14.289  65.870  1.00  0.00    -0.323 OA 
HETATM    2  C   UNL     1     -10.324  15.001  65.397  1.00  0.00    -0.383 C  
HETATM    3  H   UNL     1     -11.198  13.400  66.060  1.00  0.00     0.000 HD 
HETATM    4  O   UNL     1     -10.780  17.285  66.148  1.00  0.00    -0.236 OA 
HETATM    5  C   UNL     1     -10.767  16.441  65.087  1.00  0.00    -0.291 C  
HETATM    6  O   UNL     1     -11.183  16.783  63.986  1.00  0.00    -1.089 OA 
ENDROOT
BRANCH   2   7
HETATM    7  C   UNL     1      -9.176  14.897  66.388  1.00  0.00    -0.317 A  
HETATM    8  C   UNL     1      -8.070  15.763  66.332  1.00  0.00    -0.126 A  
HETATM    9  C   UNL     1      -7.034  15.663  67.263  1.00  0.00    -0.224 A  
HETATM   10  C   UNL     1      -7.088  14.701  68.267  1.00  0.00    -0.115 A  
HETATM   11  C   UNL     1      -8.179  13.840  68.345  1.00  0.00    -0.151 A  
HETATM   12  C   UNL     1      -9.219  13.941  67.419  1.00  0.00    -0.224 A  
ENDBRANCH   2   7
TORSDOF 1
ENDMDL
MODEL      113
REMARK 921   NORMALIZED FREE ENERGY PREDICTED BY IDOCK:   -3.18 KCAL/MOL
REMARK 922        TOTAL FREE ENERGY PREDICTED BY IDOCK:   -3.40 KCAL/MOL
REMARK 923 INTER-LIGAND FREE ENERGY PREDICTED BY IDOCK:   -3.97 KCAL/MOL
REMARK 924 INTRA-LIGAND FREE ENERGY PREDICTED BY IDOCK:    0.57 KCAL/MOL
REMARK 927      BINDING AFFINITY PREDICTED BY RF-SCORE:    0.00 PKD
ROOT
HETATM    1  O   UNL     1     -11.294   9.641  68.897  1.00  0.00    -0.458 OA 
HETATM    2  C   UNL     1     -10.913  10.343  70.083  1.00  0.00    -0.300 C  
HETATM    3  H   UNL     1     -10.625   8.989  68.723  1.00  0.00     0.000 HD 
HETATM    4  O   UNL     1     -13.077  10.955  71.047  1.00  0.00    -0.331 OA 
HETATM    5  C   UNL     1     -11.993  11.400  70.364  1.00  0.00    -0.374 C  
HETATM    6  O   UNL     1     -11.938  12.539  69.914  1.00  0.00    -0.326 OA 
ENDROOT
BRANCH   2   7
HETATM    7  C   UNL     1     -10.668   9.375  71.230  1.00  0.00    -0.421 A  
HETATM    8  C   UNL     1     -11.730   8.760  71.916  1.00  0.00    -0.429 A  
HETATM    9  C   UNL     1     -11.484   7.859  72.955  1.00  0.00    -0.357 A  
HETATM   10  C   UNL     1     -10.177   7.554  73.321  1.00  0.00    -0.398 A  
HETATM   11  C   UNL     1      -9.112   8.146  72.647  1.00  0.00    -0.317 A  
HETATM   12  C   UNL     1      -9.354   9.043  71.604  1.00  0.00    -0.254 A  
ENDBRANCH   2   7
TORSDOF 1
ENDMDL
MODEL      114
REMARK 921   NORMALIZED FREE ENERGY PREDICTED BY IDOCK:   -3.16 KCAL/MOL
REMARK 922        TOTAL FREE ENERGY PREDICTED BY IDOCK:   -3.38 KCAL/MOL
REMARK 923 INTER-LIGAND FREE ENERGY PREDICTED BY IDOCK:   -3.27 KCAL/MOL
REMARK 924 INTRA-LIGAND FREE ENERGY PREDICTED BY IDOCK:   -0.11 KCAL/MOL
REMARK 927      BINDING AFFINITY PREDICTED BY RF-SCORE:    0.00 PKD
ROOT
HETATM    1  O   UNL     1     -11.067   6.977  67.527  1.00  0.00    -0.515 OA 
HETATM    2  C   UNL     1     -10.965   6.165  68.699  1.00  0.00    -0.336 C  
HETATM    3  H   UNL     1     -11.882   7.461  67.583  1.00  0.00     0.000 HD 
HETATM    4  O   UNL     1      -8.545   6.043  69.042  1.00  0.00    -0.118 OA 
HETATM    5  C   UNL     1      -9.646   5.381  68.607  1.00  0.00    -0.130 C  
HETATM    6  O   UNL     1      -9.567   4.277  68.081  1.00  0.00    -0.154 OA 
ENDROOT
BRANCH   2   7
HETATM    7  C   UNL     1     -11.106   7.010  69.956  1.00  0.00    -0.316 A  
HETATM    8  C   UNL     1     -11.412   6.435  71.202  1.00  0.00    -0.381 A  
HETATM    9  C   UNL     1     -11.519   7.226  72.348  1.00  0.00    -0.327 A  
HETATM   10  C   UNL     1     -11.320   8.601  72.270  1.00  0.00    -0.411 A  
HETATM   11  C   UNL     1     -11.008   9.188  71.046  1.00  0.00    -0.375 A  
HETATM   12  C   UNL     1     -10.894   8.399  69.899  1.00  0.00    -0.207 A  
ENDBRANCH   2   7
TORSDOF 1
ENDMDL
MODEL      115
REMARK 921   NORMALIZED FREE ENERGY PREDICTED BY IDOCK:   -3.14 KCAL/MOL
REMARK 922        TOTAL FREE ENERGY PREDICTED BY IDOCK:   -3.36 KCAL/MOL
REMARK 923 INTER-LIGAND FREE ENERGY PREDICTED BY IDOCK:   -3.24 KCAL/MOL
REMARK 924 INTRA-LIGAND FREE ENERGY PREDICTED BY IDOCK:   -0.12 KCAL/MOL
REMARK 927      BINDING AFFINITY PREDICTED BY RF-SCORE:    0.00 PKD
ROOT
HETATM    1  O   UNL     1     -12.526   7.173  70.492  1.00  0.00    -0.605 OA 
HETATM    2  C   UNL     1     -11.309   6.516  70.130  1.00  0.00    -0.402 C  
HETATM    3  H   UNL     1     -13.178   6.501  70.652  1.00  0.00     0.000 HD 
HETATM    4  O   UNL     1      -9.608   8.062  70.971  1.00  0.00    -0.158 OA 
HETATM    5  C   UNL     1     -10.254   7.604  69.870  1.00  0.00    -0.215 C  
HETATM    6  O   UNL     1     -10.076   8.104  68.765  1.00  0.00    -0.189 OA 
ENDROOT
BRANCH   2   7
HETATM    7  C   UNL     1     -10.911   5.494  71.184  1.00  0.00    -0.243 A  
HETATM    8  C   UNL     1      -9.949   4.502  70.925  1.00  0.00    -0.263 A  
HETATM    9  C   UNL     1      -9.584   3.584  71.912  1.00  0.00    -0.218 A  
HETATM   10  C   UNL     1     -10.169   3.645  73.173  1.00  0.00    -0.227 A  
HETATM   11  C   UNL     1     -11.117   4.626  73.452  1.00  0.00    -0.418 A  
HETATM   12  C   UNL     1     -11.480   5.549  72.468  1.00  0.00    -0.303 A  
ENDBRANCH   2   7
TORSDOF 1
ENDMDL
MODEL      116
REMARK 921   NORMALIZED FREE ENERGY PREDICTED BY IDOCK:   -3.11 KCAL/MOL
REMARK 922        TOTAL FREE ENERGY PREDICTED BY IDOCK:   -3.33 KCAL/MOL
REMARK 923 INTER-LIGAND FREE ENERGY PREDICTED BY IDOCK:   -3.26 KCAL/MOL
REMARK 924 INTRA-LIGAND FREE ENERGY PREDICTED BY IDOCK:   -0.07 KCAL/MOL
REMARK 927      BINDING AFFINITY PREDICTED BY RF-SCORE:    0.00 PKD
ROOT
HETATM    1  O   UNL     1      -8.385  11.102  65.519  1.00  0.00    -0.343 OA 
HETATM    2  C   UNL     1      -9.811  11.015  65.575  1.00  0.00    -0.243 C  
HETATM    3  H   UNL     1      -8.164  11.762  64.872  1.00  0.00     0.000 HD 
HETATM    4  O   UNL     1     -10.206  10.377  67.904  1.00  0.00    -0.165 OA 
HETATM    5  C   UNL     1     -10.170   9.945  66.620  1.00  0.00    -0.226 C  
HETATM    6  O   UNL     1     -10.310   8.761  66.334  1.00  0.00    -0.271 OA 
ENDROOT
BRANCH   2   7
HETATM    7  C   UNL     1     -10.427  12.380  65.837  1.00  0.00    -0.284 A  
HETATM    8  C   UNL     1     -11.817  12.553  65.954  1.00  0.00    -0.489 A  
HETATM    9  C   UNL     1     -12.363  13.812  66.214  1.00  0.00    -0.479 A  
HETATM   10  C   UNL     1     -11.530  14.917  66.364  1.00  0.00    -0.280 A  
HETATM   11  C   UNL     1     -10.150  14.764  66.260  1.00  0.00    -0.299 A  
HETATM   12  C   UNL     1      -9.601  13.505  66.007  1.00  0.00    -0.179 A  
ENDBRANCH   2   7
TORSDOF 1
ENDMDL
MODEL      117
REMARK 921   NORMALIZED FREE ENERGY PREDICTED BY IDOCK:   -3.10 KCAL/MOL
REMARK 922        TOTAL FREE ENERGY PREDICTED BY IDOCK:   -3.31 KCAL/MOL
REMARK 923 INTER-LIGAND FREE ENERGY PREDICTED BY IDOCK:   -3.25 KCAL/MOL
REMARK 924 INTRA-LIGAND FREE ENERGY PREDICTED BY IDOCK:   -0.06 KCAL/MOL
REMARK 927      BINDING AFFINITY PREDICTED BY RF-SCORE:    0.00 PKD
ROOT
HETATM    1  O   UNL     1     -10.845   8.819  67.830  1.00  0.00    -0.466 OA 
HETATM    2  C   UNL     1     -11.219   9.806  68.794  1.00  0.00    -0.020 C  
HETATM    3  H   UNL     1     -11.517   8.807  67.158  1.00  0.00     0.000 HD 
HETATM    4  O   UNL     1      -9.048  10.591  69.608  1.00  0.00    -0.111 OA 
HETATM    5  C   UNL     1     -10.133   9.826  69.883  1.00  0.00    -0.251 C  
HETATM    6  O   UNL     1     -10.186   9.120  70.883  1.00  0.00    -0.235 OA 
ENDROOT
BRANCH   2   7
HETATM    7  C   UNL     1     -11.462  11.151  68.125  1.00  0.00    -0.373 A  
HETATM    8  C   UNL     1     -11.786  12.298  68.870  1.00  0.00    -0.355 A  
HETATM    9  C   UNL     1     -11.987  13.528  68.239  1.00  0.00    -0.377 A  
HETATM   10  C   UNL     1     -11.864  13.632  66.857  1.00  0.00    -0.451 A  
HETATM   11  C   UNL     1     -11.534  12.509  66.103  1.00  0.00    -0.426 A  
HETATM   12  C   UNL     1     -11.327  11.279  66.732  1.00  0.00    -0.187 A  
ENDBRANCH   2   7
TORSDOF 1
ENDMDL
MODEL      118
REMARK 921   NORMALIZED FREE ENERGY PREDICTED BY IDOCK:   -3.09 KCAL/MOL
REMARK 922        TOTAL FREE ENERGY PREDICTED BY IDOCK:   -3.30 KCAL/MOL
REMARK 923 INTER-LIGAND FREE ENERGY PREDICTED BY IDOCK:   -3.27 KCAL/MOL
REMARK 924 INTRA-LIGAND FREE ENERGY PREDICTED BY IDOCK:   -0.03 KCAL/MOL
REMARK 927      BINDING AFFINITY PREDICTED BY RF-SCORE:    0.00 PKD
ROOT
HETATM    1  O   UNL     1      -8.489  19.834  67.626  1.00  0.00    -0.303 OA 
HETATM    2  C   UNL     1      -7.531  18.772  67.605  1.00  0.00    -0.229 C  
HETATM    3  H   UNL     1      -9.003  19.741  68.419  1.00  0.00     0.000 HD 
HETATM    4  O   UNL     1      -5.655  19.783  66.402  1.00  0.00    -0.171 OA 
HETATM    5  C   UNL     1      -6.700  18.922  66.321  1.00  0.00    -0.215 C  
HETATM    6  O   UNL     1      -7.014  18.389  65.262  1.00  0.00    -0.534 OA 
ENDROOT
BRANCH   2   7
HETATM    7  C   UNL     1      -6.711  18.758  68.886  1.00  0.00    -0.303 A  
HETATM    8  C   UNL     1      -6.147  17.573  69.389  1.00  0.00    -0.245 A  
HETATM    9  C   UNL     1      -5.381  17.584  70.556  1.00  0.00    -0.263 A  
HETATM   10  C   UNL     1      -5.164  18.778  71.238  1.00  0.00    -0.291 A  
HETATM   11  C   UNL     1      -5.707  19.964  70.751  1.00  0.00    -0.325 A  
HETATM   12  C   UNL     1      -6.468  19.957  69.580  1.00  0.00    -0.389 A  
ENDBRANCH   2   7
TORSDOF 1
ENDMDL
MODEL      119
REMARK 921   NORMALIZED FREE ENERGY PREDICTED BY IDOCK:   -3.08 KCAL/MOL
REMARK 922        TOTAL FREE ENERGY PREDICTED BY IDOCK:   -3.30 KCAL/MOL
REMARK 923 INTER-LIGAND FREE ENERGY PREDICTED BY IDOCK:   -3.28 KCAL/MOL
REMARK 924 INTRA-LIGAND FREE ENERGY PREDICTED BY IDOCK:   -0.02 KCAL/MOL
REMARK 927      BINDING AFFINITY PREDICTED BY RF-SCORE:    0.00 PKD
ROOT
HETATM    1  O   UNL     1     -12.344  15.637  70.371  1.00  0.00    -0.400 OA 
HETATM    2  C   UNL     1     -11.183  14.953  69.893  1.00  0.00    -0.275 C  
HETATM    3  H   UNL     1     -12.065  16.229  71.059  1.00  0.00     0.000 HD 
HETATM    4  O   UNL     1     -11.745  14.545  67.546  1.00  0.00    -0.360 OA 
HETATM    5  C   UNL     1     -11.635  13.993  68.780  1.00  0.00    -0.331 C  
HETATM    6  O   UNL     1     -11.976  12.837  69.001  1.00  0.00    -0.292 OA 
ENDROOT
BRANCH   2   7
HETATM    7  C   UNL     1     -10.108  15.943  69.470  1.00  0.00    -0.277 A  
HETATM    8  C   UNL     1      -8.741  15.625  69.541  1.00  0.00    -0.199 A  
HETATM    9  C   UNL     1      -7.770  16.541  69.131  1.00  0.00    -0.205 A  
HETATM   10  C   UNL     1      -8.149  17.787  68.639  1.00  0.00    -0.277 A  
HETATM   11  C   UNL     1      -9.498  18.117  68.552  1.00  0.00    -0.339 A  
HETATM   12  C   UNL     1     -10.472  17.201  68.956  1.00  0.00    -0.321 A  
ENDBRANCH   2   7
TORSDOF 1
ENDMDL
MODEL      120
REMARK 921   NORMALIZED FREE ENERGY PREDICTED BY IDOCK:   -3.07 KCAL/MOL
REMARK 922        TOTAL FREE ENERGY PREDICTED BY IDOCK:   -3.28 KCAL/MOL
REMARK 923 INTER-LIGAND FREE ENERGY PREDICTED BY IDOCK:   -3.17 KCAL/MOL
REMARK 924 INTRA-LIGAND FREE ENERGY PREDICTED BY IDOCK:   -0.11 KCAL/MOL
REMARK 927      BINDING AFFINITY PREDICTED BY RF-SCORE:    0.00 PKD
ROOT
HETATM    1  O   UNL     1     -13.432   7.386  72.251  1.00  0.00    -0.508 OA 
HETATM    2  C   UNL     1     -12.580   8.158  71.401  1.00  0.00    -0.283 C  
HETATM    3  H   UNL     1     -13.055   6.516  72.321  1.00  0.00     0.000 HD 
HETATM    4  O   UNL     1     -12.869  10.421  72.286  1.00  0.00    -0.334 OA 
HETATM    5  C   UNL     1     -13.190   9.564  71.285  1.00  0.00    -0.328 C  
HETATM    6  O   UNL     1     -13.997   9.866  70.412  1.00  0.00     0.290 OA 
ENDROOT
BRANCH   2   7
HETATM    7  C   UNL     1     -11.146   8.135  71.908  1.00  0.00    -0.346 A  
HETATM    8  C   UNL     1     -10.097   8.726  71.183  1.00  0.00    -0.317 A  
HETATM    9  C   UNL     1      -8.790   8.712  71.675  1.00  0.00    -0.292 A  
HETATM   10  C   UNL     1      -8.511   8.111  72.899  1.00  0.00    -0.259 A  
HETATM   11  C   UNL     1      -9.538   7.528  73.636  1.00  0.00    -0.347 A  
HETATM   12  C   UNL     1     -10.847   7.547  73.149  1.00  0.00    -0.448 A  
ENDBRANCH   2   7
TORSDOF 1
ENDMDL
MODEL      121
REMARK 921   NORMALIZED FREE ENERGY PREDICTED BY IDOCK:   -3.04 KCAL/MOL
REMARK 922        TOTAL FREE ENERGY PREDICTED BY IDOCK:   -3.26 KCAL/MOL
REMARK 923 INTER-LIGAND FREE ENERGY PREDICTED BY IDOCK:   -3.13 KCAL/MOL
REMARK 924 INTRA-LIGAND FREE ENERGY PREDICTED BY IDOCK:   -0.13 KCAL/MOL
REMARK 927      BINDING AFFINITY PREDICTED BY RF-SCORE:    0.00 PKD
ROOT
HETATM    1  O   UNL     1     -12.242   6.910  70.317  1.00  0.00    -0.624 OA 
HETATM    2  C   UNL     1     -11.678   8.160  70.723  1.00  0.00    -0.201 C  
HETATM    3  H   UNL     1     -12.027   6.783  69.400  1.00  0.00     0.000 HD 
HETATM    4  O   UNL     1     -11.186   7.769  73.088  1.00  0.00    -0.402 OA 
HETATM    5  C   UNL     1     -12.026   8.366  72.207  1.00  0.00    -0.389 C  
HETATM    6  O   UNL     1     -13.046   8.937  72.574  1.00  0.00    -0.422 OA 
ENDROOT
BRANCH   2   7
HETATM    7  C   UNL     1     -10.189   8.207  70.415  1.00  0.00    -0.203 A  
HETATM    8  C   UNL     1      -9.485   7.065  69.996  1.00  0.00    -0.161 A  
HETATM    9  C   UNL     1      -8.122   7.133  69.700  1.00  0.00    -0.129 A  
HETATM   10  C   UNL     1      -7.442   8.342  69.812  1.00  0.00    -0.072 A  
HETATM   11  C   UNL     1      -8.124   9.487  70.217  1.00  0.00    -0.200 A  
HETATM   12  C   UNL     1      -9.489   9.423  70.508  1.00  0.00    -0.327 A  
ENDBRANCH   2   7
TORSDOF 1
ENDMDL
MODEL      122
REMARK 921   NORMALIZED FREE ENERGY PREDICTED BY IDOCK:   -3.02 KCAL/MOL
REMARK 922        TOTAL FREE ENERGY PREDICTED BY IDOCK:   -3.23 KCAL/MOL
REMARK 923 INTER-LIGAND FREE ENERGY PREDICTED BY IDOCK:   -3.13 KCAL/MOL
REMARK 924 INTRA-LIGAND FREE ENERGY PREDICTED BY IDOCK:   -0.11 KCAL/MOL
REMARK 927      BINDING AFFINITY PREDICTED BY RF-SCORE:    0.00 PKD
ROOT
HETATM    1  O   UNL     1     -11.266  16.646  68.493  1.00  0.00    -0.344 OA 
HETATM    2  C   UNL     1     -10.309  17.254  67.622  1.00  0.00    -0.350 C  
HETATM    3  H   UNL     1     -11.188  15.704  68.392  1.00  0.00     0.000 HD 
HETATM    4  O   UNL     1      -9.742  19.311  68.821  1.00  0.00    -0.402 OA 
HETATM    5  C   UNL     1     -10.435  18.778  67.785  1.00  0.00    -0.420 C  
HETATM    6  O   UNL     1     -11.191  19.456  67.099  1.00  0.00    -0.351 OA 
ENDROOT
BRANCH   2   7
HETATM    7  C   UNL     1      -8.914  16.708  67.885  1.00  0.00    -0.217 A  
HETATM    8  C   UNL     1      -8.583  16.080  69.098  1.00  0.00    -0.247 A  
HETATM    9  C   UNL     1      -7.302  15.568  69.314  1.00  0.00    -0.202 A  
HETATM   10  C   UNL     1      -6.332  15.672  68.321  1.00  0.00    -0.118 A  
HETATM   11  C   UNL     1      -6.643  16.282  67.109  1.00  0.00    -0.230 A  
HETATM   12  C   UNL     1      -7.925  16.790  66.888  1.00  0.00    -0.248 A  
ENDBRANCH   2   7
TORSDOF 1
ENDMDL
MODEL      123
REMARK 921   NORMALIZED FREE ENERGY PREDICTED BY IDOCK:   -3.02 KCAL/MOL
REMARK 922        TOTAL FREE ENERGY PREDICTED BY IDOCK:   -3.23 KCAL/MOL
REMARK 923 INTER-LIGAND FREE ENERGY PREDICTED BY IDOCK:   -3.18 KCAL/MOL
REMARK 924 INTRA-LIGAND FREE ENERGY PREDICTED BY IDOCK:   -0.05 KCAL/MOL
REMARK 927      BINDING AFFINITY PREDICTED BY RF-SCORE:    0.00 PKD
ROOT
HETATM    1  O   UNL     1     -12.563  14.241  66.340  1.00  0.00    -0.526 OA 
HETATM    2  C   UNL     1     -11.393  14.254  67.162  1.00  0.00    -0.337 C  
HETATM    3  H   UNL     1     -12.279  14.166  65.437  1.00  0.00     0.000 HD 
HETATM    4  O   UNL     1     -12.189  13.210  69.226  1.00  0.00    -0.249 OA 
HETATM    5  C   UNL     1     -11.853  14.377  68.623  1.00  0.00    -0.331 C  
HETATM    6  O   UNL     1     -12.010  15.458  69.180  1.00  0.00    -0.335 OA 
ENDROOT
BRANCH   2   7
HETATM    7  C   UNL     1     -10.519  13.042  66.878  1.00  0.00    -0.258 A  
HETATM    8  C   UNL     1      -9.347  12.789  67.611  1.00  0.00    -0.191 A  
HETATM    9  C   UNL     1      -8.567  11.660  67.348  1.00  0.00    -0.149 A  
HETATM   10  C   UNL     1      -8.948  10.765  66.352  1.00  0.00    -0.179 A  
HETATM   11  C   UNL     1     -10.110  10.994  65.621  1.00  0.00    -0.310 A  
HETATM   12  C   UNL     1     -10.895  12.119  65.886  1.00  0.00    -0.316 A  
ENDBRANCH   2   7
TORSDOF 1
ENDMDL
MODEL      124
REMARK 921   NORMALIZED FREE ENERGY PREDICTED BY IDOCK:   -3.02 KCAL/MOL
REMARK 922        TOTAL FREE ENERGY PREDICTED BY IDOCK:   -3.23 KCAL/MOL
REMARK 923 INTER-LIGAND FREE ENERGY PREDICTED BY IDOCK:   -3.70 KCAL/MOL
REMARK 924 INTRA-LIGAND FREE ENERGY PREDICTED BY IDOCK:    0.47 KCAL/MOL
REMARK 927      BINDING AFFINITY PREDICTED BY RF-SCORE:    0.00 PKD
ROOT
HETATM    1  O   UNL     1      -8.591  10.917  63.236  1.00  0.00    -0.314 OA 
HETATM    2  C   UNL     1      -9.594  10.377  64.101  1.00  0.00    -0.322 C  
HETATM    3  H   UNL     1      -9.032  11.277  62.476  1.00  0.00     0.000 HD 
HETATM    4  O   UNL     1      -8.597  10.682  66.314  1.00  0.00    -0.142 OA 
HETATM    5  C   UNL     1      -8.881   9.793  65.331  1.00  0.00    -0.169 C  
HETATM    6  O   UNL     1      -8.496   8.630  65.383  1.00  0.00    -0.153 OA 
ENDROOT
BRANCH   2   7
HETATM    7  C   UNL     1     -10.650  11.423  64.425  1.00  0.00    -0.403 A  
HETATM    8  C   UNL     1     -11.146  11.592  65.729  1.00  0.00    -0.313 A  
HETATM    9  C   UNL     1     -12.101  12.571  66.010  1.00  0.00    -0.390 A  
HETATM   10  C   UNL     1     -12.573  13.399  64.995  1.00  0.00    -0.459 A  
HETATM   11  C   UNL     1     -12.087  13.252  63.699  1.00  0.00    -0.551 A  
HETATM   12  C   UNL     1     -11.127  12.278  63.416  1.00  0.00    -0.487 A  
ENDBRANCH   2   7
TORSDOF 1
ENDMDL
MODEL      125
REMARK 921   NORMALIZED FREE ENERGY PREDICTED BY IDOCK:   -3.02 KCAL/MOL
REMARK 922        TOTAL FREE ENERGY PREDICTED BY IDOCK:   -3.23 KCAL/MOL
REMARK 923 INTER-LIGAND FREE ENERGY PREDICTED BY IDOCK:   -3.55 KCAL/MOL
REMARK 924 INTRA-LIGAND FREE ENERGY PREDICTED BY IDOCK:    0.32 KCAL/MOL
REMARK 927      BINDING AFFINITY PREDICTED BY RF-SCORE:    0.00 PKD
ROOT
HETATM    1  O   UNL     1     -10.984  11.039  69.906  1.00  0.00    -0.399 OA 
HETATM    2  C   UNL     1     -11.584  11.478  68.684  1.00  0.00    -0.313 C  
HETATM    3  H   UNL     1     -11.041  10.091  69.928  1.00  0.00     0.000 HD 
HETATM    4  O   UNL     1     -10.324  13.515  68.184  1.00  0.00    -0.233 OA 
HETATM    5  C   UNL     1     -11.494  13.012  68.648  1.00  0.00    -0.307 C  
HETATM    6  O   UNL     1     -12.371  13.738  69.104  1.00  0.00    -0.303 OA 
ENDROOT
BRANCH   2   7
HETATM    7  C   UNL     1     -10.950  10.783  67.489  1.00  0.00    -0.372 A  
HETATM    8  C   UNL     1     -10.807  11.430  66.249  1.00  0.00    -0.318 A  
HETATM    9  C   UNL     1     -10.204  10.782  65.169  1.00  0.00    -0.365 A  
HETATM   10  C   UNL     1      -9.731   9.480  65.311  1.00  0.00    -0.268 A  
HETATM   11  C   UNL     1      -9.855   8.827  66.533  1.00  0.00    -0.349 A  
HETATM   12  C   UNL     1     -10.452   9.475  67.617  1.00  0.00    -0.321 A  
ENDBRANCH   2   7
TORSDOF 1
ENDMDL
MODEL      126
REMARK 921   NORMALIZED FREE ENERGY PREDICTED BY IDOCK:   -3.00 KCAL/MOL
REMARK 922        TOTAL FREE ENERGY PREDICTED BY IDOCK:   -3.21 KCAL/MOL
REMARK 923 INTER-LIGAND FREE ENERGY PREDICTED BY IDOCK:   -3.28 KCAL/MOL
REMARK 924 INTRA-LIGAND FREE ENERGY PREDICTED BY IDOCK:    0.07 KCAL/MOL
REMARK 927      BINDING AFFINITY PREDICTED BY RF-SCORE:    0.00 PKD
ROOT
HETATM    1  O   UNL     1      -8.740  10.128  70.048  1.00  0.00    -0.354 OA 
HETATM    2  C   UNL     1      -8.858   8.759  70.443  1.00  0.00    -0.168 C  
HETATM    3  H   UNL     1      -8.373  10.144  69.172  1.00  0.00     0.000 HD 
HETATM    4  O   UNL     1     -10.803   8.807  71.926  1.00  0.00    -0.314 OA 
HETATM    5  C   UNL     1      -9.451   8.734  71.861  1.00  0.00    -0.292 C  
HETATM    6  O   UNL     1      -8.755   8.755  72.870  1.00  0.00    -0.379 OA 
ENDROOT
BRANCH   2   7
HETATM    7  C   UNL     1      -9.652   7.966  69.416  1.00  0.00    -0.160 A  
HETATM    8  C   UNL     1     -10.172   6.693  69.707  1.00  0.00    -0.214 A  
HETATM    9  C   UNL     1     -10.915   5.989  68.757  1.00  0.00    -0.384 A  
HETATM   10  C   UNL     1     -11.153   6.545  67.503  1.00  0.00    -0.396 A  
HETATM   11  C   UNL     1     -10.653   7.809  67.199  1.00  0.00    -0.401 A  
HETATM   12  C   UNL     1      -9.915   8.518  68.150  1.00  0.00    -0.214 A  
ENDBRANCH   2   7
TORSDOF 1
ENDMDL
MODEL      127
REMARK 921   NORMALIZED FREE ENERGY PREDICTED BY IDOCK:   -2.99 KCAL/MOL
REMARK 922        TOTAL FREE ENERGY PREDICTED BY IDOCK:   -3.20 KCAL/MOL
REMARK 923 INTER-LIGAND FREE ENERGY PREDICTED BY IDOCK:   -3.21 KCAL/MOL
REMARK 924 INTRA-LIGAND FREE ENERGY PREDICTED BY IDOCK:    0.02 KCAL/MOL
REMARK 927      BINDING AFFINITY PREDICTED BY RF-SCORE:    0.00 PKD
ROOT
HETATM    1  O   UNL     1      -9.785   6.291  70.863  1.00  0.00    -0.174 OA 
HETATM    2  C   UNL     1     -10.594   7.332  71.416  1.00  0.00    -0.211 C  
HETATM    3  H   UNL     1     -10.186   6.019  70.046  1.00  0.00     0.000 HD 
HETATM    4  O   UNL     1      -8.951   8.687  72.622  1.00  0.00    -0.351 OA 
HETATM    5  C   UNL     1      -9.945   7.771  72.738  1.00  0.00    -0.260 C  
HETATM    6  O   UNL     1     -10.224   7.258  73.816  1.00  0.00    -0.343 OA 
ENDROOT
BRANCH   2   7
HETATM    7  C   UNL     1     -10.792   8.455  70.410  1.00  0.00    -0.246 A  
HETATM    8  C   UNL     1     -11.359   9.687  70.780  1.00  0.00    -0.409 A  
HETATM    9  C   UNL     1     -11.515  10.713  69.846  1.00  0.00    -0.393 A  
HETATM   10  C   UNL     1     -11.104  10.527  68.529  1.00  0.00    -0.329 A  
HETATM   11  C   UNL     1     -10.532   9.318  68.145  1.00  0.00    -0.263 A  
HETATM   12  C   UNL     1     -10.369   8.292  69.079  1.00  0.00    -0.233 A  
ENDBRANCH   2   7
TORSDOF 1
ENDMDL
MODEL      128
REMARK 921   NORMALIZED FREE ENERGY PREDICTED BY IDOCK:   -2.95 KCAL/MOL
REMARK 922        TOTAL FREE ENERGY PREDICTED BY IDOCK:   -3.16 KCAL/MOL
REMARK 923 INTER-LIGAND FREE ENERGY PREDICTED BY IDOCK:   -3.04 KCAL/MOL
REMARK 924 INTRA-LIGAND FREE ENERGY PREDICTED BY IDOCK:   -0.12 KCAL/MOL
REMARK 927      BINDING AFFINITY PREDICTED BY RF-SCORE:    0.00 PKD
ROOT
HETATM    1  O   UNL     1     -12.482   6.977  70.423  1.00  0.00    -0.622 OA 
HETATM    2  C   UNL     1     -11.209   7.607  70.591  1.00  0.00    -0.266 C  
HETATM    3  H   UNL     1     -12.419   6.397  69.673  1.00  0.00     0.000 HD 
HETATM    4  O   UNL     1     -11.114   7.961  73.010  1.00  0.00    -0.402 OA 
HETATM    5  C   UNL     1     -11.312   8.546  71.803  1.00  0.00    -0.307 C  
HETATM    6  O   UNL     1     -11.654   9.719  71.705  1.00  0.00    -0.375 OA 
ENDROOT
BRANCH   2   7
HETATM    7  C   UNL     1     -10.102   6.569  70.692  1.00  0.00    -0.212 A  
HETATM    8  C   UNL     1     -10.378   5.219  70.970  1.00  0.00    -0.298 A  
HETATM    9  C   UNL     1      -9.349   4.278  71.040  1.00  0.00    -0.221 A  
HETATM   10  C   UNL     1      -8.029   4.668  70.831  1.00  0.00    -0.081 A  
HETATM   11  C   UNL     1      -7.737   5.999  70.546  1.00  0.00    -0.101 A  
HETATM   12  C   UNL     1      -8.765   6.942  70.469  1.00  0.00    -0.150 A  
ENDBRANCH   2   7
TORSDOF 1
ENDMDL
MODEL      129
REMARK 921   NORMALIZED FREE ENERGY PREDICTED BY IDOCK:   -2.93 KCAL/MOL
REMARK 922        TOTAL FREE ENERGY PREDICTED BY IDOCK:   -3.14 KCAL/MOL
REMARK 923 INTER-LIGAND FREE ENERGY PREDICTED BY IDOCK:   -3.02 KCAL/MOL
REMARK 924 INTRA-LIGAND FREE ENERGY PREDICTED BY IDOCK:   -0.12 KCAL/MOL
REMARK 927      BINDING AFFINITY PREDICTED BY RF-SCORE:    0.00 PKD
ROOT
HETATM    1  O   UNL     1     -10.725   7.012  73.728  1.00  0.00    -0.488 OA 
HETATM    2  C   UNL     1     -10.106   7.968  72.863  1.00  0.00    -0.306 C  
HETATM    3  H   UNL     1     -11.636   6.938  73.469  1.00  0.00     0.000 HD 
HETATM    4  O   UNL     1      -7.799   7.159  72.753  1.00  0.00    -0.090 OA 
HETATM    5  C   UNL     1      -8.632   8.088  73.283  1.00  0.00    -0.235 C  
HETATM    6  O   UNL     1      -8.246   8.897  74.119  1.00  0.00    -0.246 OA 
ENDROOT
BRANCH   2   7
HETATM    7  C   UNL     1     -10.315   7.591  71.404  1.00  0.00    -0.209 A  
HETATM    8  C   UNL     1      -9.974   8.468  70.359  1.00  0.00    -0.203 A  
HETATM    9  C   UNL     1     -10.156   8.097  69.025  1.00  0.00    -0.211 A  
HETATM   10  C   UNL     1     -10.677   6.844  68.713  1.00  0.00    -0.255 A  
HETATM   11  C   UNL     1     -11.012   5.959  69.734  1.00  0.00    -0.452 A  
HETATM   12  C   UNL     1     -10.825   6.325  71.069  1.00  0.00    -0.326 A  
ENDBRANCH   2   7
TORSDOF 1
ENDMDL
MODEL      130
REMARK 921   NORMALIZED FREE ENERGY PREDICTED BY IDOCK:   -2.92 KCAL/MOL
REMARK 922        TOTAL FREE ENERGY PREDICTED BY IDOCK:   -3.13 KCAL/MOL
REMARK 923 INTER-LIGAND FREE ENERGY PREDICTED BY IDOCK:   -3.00 KCAL/MOL
REMARK 924 INTRA-LIGAND FREE ENERGY PREDICTED BY IDOCK:   -0.12 KCAL/MOL
REMARK 927      BINDING AFFINITY PREDICTED BY RF-SCORE:    0.00 PKD
ROOT
HETATM    1  O   UNL     1     -10.474  12.865  67.564  1.00  0.00    -0.220 OA 
HETATM    2  C   UNL     1     -10.958  12.170  66.413  1.00  0.00    -0.288 C  
HETATM    3  H   UNL     1     -10.117  12.218  68.161  1.00  0.00     0.000 HD 
HETATM    4  O   UNL     1     -10.634  13.816  64.632  1.00  0.00    -0.406 OA 
HETATM    5  C   UNL     1     -11.536  13.217  65.447  1.00  0.00    -0.333 C  
HETATM    6  O   UNL     1     -12.710  13.569  65.479  1.00  0.00    -0.491 OA 
ENDROOT
BRANCH   2   7
HETATM    7  C   UNL     1      -9.869  11.295  65.812  1.00  0.00    -0.273 A  
HETATM    8  C   UNL     1     -10.148  10.358  64.802  1.00  0.00    -0.387 A  
HETATM    9  C   UNL     1      -9.131   9.577  64.249  1.00  0.00    -0.220 A  
HETATM   10  C   UNL     1      -7.820   9.721  64.692  1.00  0.00    -0.136 A  
HETATM   11  C   UNL     1      -7.522  10.650  65.685  1.00  0.00    -0.093 A  
HETATM   12  C   UNL     1      -8.536  11.437  66.236  1.00  0.00    -0.156 A  
ENDBRANCH   2   7
TORSDOF 1
ENDMDL
MODEL      131
REMARK 921   NORMALIZED FREE ENERGY PREDICTED BY IDOCK:   -2.85 KCAL/MOL
REMARK 922        TOTAL FREE ENERGY PREDICTED BY IDOCK:   -3.05 KCAL/MOL
REMARK 923 INTER-LIGAND FREE ENERGY PREDICTED BY IDOCK:   -3.27 KCAL/MOL
REMARK 924 INTRA-LIGAND FREE ENERGY PREDICTED BY IDOCK:    0.21 KCAL/MOL
REMARK 927      BINDING AFFINITY PREDICTED BY RF-SCORE:    0.00 PKD
ROOT
HETATM    1  O   UNL     1     -11.517   7.766  69.644  1.00  0.00    -0.448 OA 
HETATM    2  C   UNL     1     -11.672   8.132  71.017  1.00  0.00    -0.274 C  
HETATM    3  H   UNL     1     -10.871   8.349  69.263  1.00  0.00     0.000 HD 
HETATM    4  O   UNL     1     -12.243   5.996  72.067  1.00  0.00    -0.257 OA 
HETATM    5  C   UNL     1     -12.719   7.189  71.633  1.00  0.00    -0.379 C  
HETATM    6  O   UNL     1     -13.918   7.445  71.639  1.00  0.00    -0.400 OA 
ENDROOT
BRANCH   2   7
HETATM    7  C   UNL     1     -10.330   8.132  71.732  1.00  0.00    -0.293 A  
HETATM    8  C   UNL     1     -10.231   7.920  73.118  1.00  0.00    -0.358 A  
HETATM    9  C   UNL     1      -8.987   7.905  73.753  1.00  0.00    -0.324 A  
HETATM   10  C   UNL     1      -7.824   8.098  73.015  1.00  0.00    -0.207 A  
HETATM   11  C   UNL     1      -7.900   8.301  71.640  1.00  0.00    -0.139 A  
HETATM   12  C   UNL     1      -9.142   8.310  71.001  1.00  0.00    -0.189 A  
ENDBRANCH   2   7
TORSDOF 1
ENDMDL
MODEL      132
REMARK 921   NORMALIZED FREE ENERGY PREDICTED BY IDOCK:   -2.83 KCAL/MOL
REMARK 922        TOTAL FREE ENERGY PREDICTED BY IDOCK:   -3.03 KCAL/MOL
REMARK 923 INTER-LIGAND FREE ENERGY PREDICTED BY IDOCK:   -2.95 KCAL/MOL
REMARK 924 INTRA-LIGAND FREE ENERGY PREDICTED BY IDOCK:   -0.08 KCAL/MOL
REMARK 927      BINDING AFFINITY PREDICTED BY RF-SCORE:    0.00 PKD
ROOT
HETATM    1  O   UNL     1     -12.598   7.913  72.560  1.00  0.00    -0.540 OA 
HETATM    2  C   UNL     1     -11.276   7.390  72.706  1.00  0.00    -0.332 C  
HETATM    3  H   UNL     1     -12.567   8.837  72.779  1.00  0.00     0.000 HD 
HETATM    4  O   UNL     1     -11.231   5.606  71.032  1.00  0.00    -0.200 OA 
HETATM    5  C   UNL     1     -11.327   5.894  72.353  1.00  0.00    -0.307 C  
HETATM    6  O   UNL     1     -11.546   5.024  73.188  1.00  0.00    -0.328 OA 
ENDROOT
BRANCH   2   7
HETATM    7  C   UNL     1     -10.281   8.195  71.884  1.00  0.00    -0.289 A  
HETATM    8  C   UNL     1     -10.682   9.306  71.122  1.00  0.00    -0.403 A  
HETATM    9  C   UNL     1      -9.750  10.045  70.389  1.00  0.00    -0.023 A  
HETATM   10  C   UNL     1      -8.405   9.688  70.408  1.00  0.00    -0.188 A  
HETATM   11  C   UNL     1      -7.988   8.596  71.164  1.00  0.00    -0.164 A  
HETATM   12  C   UNL     1      -8.916   7.860  71.903  1.00  0.00    -0.180 A  
ENDBRANCH   2   7
TORSDOF 1
ENDMDL
MODEL      133
REMARK 921   NORMALIZED FREE ENERGY PREDICTED BY IDOCK:   -2.82 KCAL/MOL
REMARK 922        TOTAL FREE ENERGY PREDICTED BY IDOCK:   -3.02 KCAL/MOL
REMARK 923 INTER-LIGAND FREE ENERGY PREDICTED BY IDOCK:   -2.93 KCAL/MOL
REMARK 924 INTRA-LIGAND FREE ENERGY PREDICTED BY IDOCK:   -0.09 KCAL/MOL
REMARK 927      BINDING AFFINITY PREDICTED BY RF-SCORE:    0.00 PKD
ROOT
HETATM    1  O   UNL     1      -9.850   6.290  71.596  1.00  0.00    -0.165 OA 
HETATM    2  C   UNL     1     -10.914   6.227  70.643  1.00  0.00    -0.309 C  
HETATM    3  H   UNL     1      -9.119   5.798  71.242  1.00  0.00     0.000 HD 
HETATM    4  O   UNL     1     -12.060   8.360  70.994  1.00  0.00    -0.279 OA 
HETATM    5  C   UNL     1     -12.098   7.023  71.215  1.00  0.00    -0.361 C  
HETATM    6  O   UNL     1     -12.965   6.510  71.915  1.00  0.00    -0.268 OA 
ENDROOT
BRANCH   2   7
HETATM    7  C   UNL     1     -10.444   6.697  69.275  1.00  0.00    -0.247 A  
HETATM    8  C   UNL     1     -11.118   6.333  68.097  1.00  0.00    -0.364 A  
HETATM    9  C   UNL     1     -10.682   6.790  66.851  1.00  0.00    -0.394 A  
HETATM   10  C   UNL     1      -9.569   7.621  66.763  1.00  0.00    -0.269 A  
HETATM   11  C   UNL     1      -8.893   8.000  67.919  1.00  0.00    -0.130 A  
HETATM   12  C   UNL     1      -9.331   7.549  69.167  1.00  0.00    -0.147 A  
ENDBRANCH   2   7
TORSDOF 1
ENDMDL
MODEL      134
REMARK 921   NORMALIZED FREE ENERGY PREDICTED BY IDOCK:   -2.80 KCAL/MOL
REMARK 922        TOTAL FREE ENERGY PREDICTED BY IDOCK:   -3.00 KCAL/MOL
REMARK 923 INTER-LIGAND FREE ENERGY PREDICTED BY IDOCK:   -2.88 KCAL/MOL
REMARK 924 INTRA-LIGAND FREE ENERGY PREDICTED BY IDOCK:   -0.12 KCAL/MOL
REMARK 927      BINDING AFFINITY PREDICTED BY RF-SCORE:    0.00 PKD
ROOT
HETATM    1  O   UNL     1     -10.372  10.474  66.732  1.00  0.00    -0.228 OA 
HETATM    2  C   UNL     1     -10.157   9.134  66.280  1.00  0.00    -0.249 C  
HETATM    3  H   UNL     1     -11.256  10.520  67.079  1.00  0.00     0.000 HD 
HETATM    4  O   UNL     1      -7.753   8.843  66.634  1.00  0.00    -0.097 OA 
HETATM    5  C   UNL     1      -8.728   9.059  65.717  1.00  0.00    -0.169 C  
HETATM    6  O   UNL     1      -8.467   9.283  64.541  1.00  0.00    -0.161 OA 
ENDROOT
BRANCH   2   7
HETATM    7  C   UNL     1     -10.448   8.136  67.390  1.00  0.00    -0.356 A  
HETATM    8  C   UNL     1     -10.619   6.766  67.124  1.00  0.00    -0.401 A  
HETATM    9  C   UNL     1     -10.867   5.861  68.159  1.00  0.00    -0.323 A  
HETATM   10  C   UNL     1     -10.945   6.309  69.474  1.00  0.00    -0.445 A  
HETATM   11  C   UNL     1     -10.770   7.661  69.758  1.00  0.00    -0.243 A  
HETATM   12  C   UNL     1     -10.515   8.567  68.726  1.00  0.00    -0.208 A  
ENDBRANCH   2   7
TORSDOF 1
ENDMDL
MODEL      135
REMARK 921   NORMALIZED FREE ENERGY PREDICTED BY IDOCK:   -2.77 KCAL/MOL
REMARK 922        TOTAL FREE ENERGY PREDICTED BY IDOCK:   -2.97 KCAL/MOL
REMARK 923 INTER-LIGAND FREE ENERGY PREDICTED BY IDOCK:   -2.87 KCAL/MOL
REMARK 924 INTRA-LIGAND FREE ENERGY PREDICTED BY IDOCK:   -0.10 KCAL/MOL
REMARK 927      BINDING AFFINITY PREDICTED BY RF-SCORE:    0.00 PKD
ROOT
HETATM    1  O   UNL     1      -9.800  13.849  69.028  1.00  0.00    -0.415 OA 
HETATM    2  C   UNL     1     -10.767  13.081  68.307  1.00  0.00    -0.245 C  
HETATM    3  H   UNL     1      -9.477  13.308  69.739  1.00  0.00     0.000 HD 
HETATM    4  O   UNL     1     -10.534  13.950  66.031  1.00  0.00    -0.285 OA 
HETATM    5  C   UNL     1     -11.290  13.957  67.156  1.00  0.00    -0.327 C  
HETATM    6  O   UNL     1     -12.262  14.695  67.275  1.00  0.00    -0.294 OA 
ENDROOT
BRANCH   2   7
HETATM    7  C   UNL     1     -10.180  11.749  67.865  1.00  0.00    -0.203 A  
HETATM    8  C   UNL     1      -8.793  11.556  67.750  1.00  0.00    -0.153 A  
HETATM    9  C   UNL     1      -8.273  10.319  67.361  1.00  0.00    -0.114 A  
HETATM   10  C   UNL     1      -9.128   9.256  67.086  1.00  0.00    -0.149 A  
HETATM   11  C   UNL     1     -10.505   9.426  67.204  1.00  0.00    -0.315 A  
HETATM   12  C   UNL     1     -11.028  10.660  67.598  1.00  0.00    -0.370 A  
ENDBRANCH   2   7
TORSDOF 1
ENDMDL
MODEL      136
REMARK 921   NORMALIZED FREE ENERGY PREDICTED BY IDOCK:   -2.77 KCAL/MOL
REMARK 922        TOTAL FREE ENERGY PREDICTED BY IDOCK:   -2.96 KCAL/MOL
REMARK 923 INTER-LIGAND FREE ENERGY PREDICTED BY IDOCK:   -2.84 KCAL/MOL
REMARK 924 INTRA-LIGAND FREE ENERGY PREDICTED BY IDOCK:   -0.13 KCAL/MOL
REMARK 927      BINDING AFFINITY PREDICTED BY RF-SCORE:    0.00 PKD
ROOT
HETATM    1  O   UNL     1      -8.326  10.353  70.305  1.00  0.00    -0.355 OA 
HETATM    2  C   UNL     1      -9.372   9.863  69.462  1.00  0.00    -0.220 C  
HETATM    3  H   UNL     1      -7.548  10.453  69.769  1.00  0.00     0.000 HD 
HETATM    4  O   UNL     1     -11.371  10.824  70.494  1.00  0.00    -0.307 OA 
HETATM    5  C   UNL     1     -10.630   9.701  70.330  1.00  0.00    -0.278 C  
HETATM    6  O   UNL     1     -10.896   8.661  70.922  1.00  0.00    -0.222 OA 
ENDROOT
BRANCH   2   7
HETATM    7  C   UNL     1      -9.556  10.764  68.250  1.00  0.00    -0.170 A  
HETATM    8  C   UNL     1      -8.960  12.035  68.177  1.00  0.00    -0.190 A  
HETATM    9  C   UNL     1      -9.125  12.839  67.048  1.00  0.00    -0.220 A  
HETATM   10  C   UNL     1      -9.886  12.387  65.973  1.00  0.00    -0.268 A  
HETATM   11  C   UNL     1     -10.477  11.128  66.023  1.00  0.00    -0.312 A  
HETATM   12  C   UNL     1     -10.308  10.318  67.149  1.00  0.00    -0.292 A  
ENDBRANCH   2   7
TORSDOF 1
ENDMDL
MODEL      137
REMARK 921   NORMALIZED FREE ENERGY PREDICTED BY IDOCK:   -2.76 KCAL/MOL
REMARK 922        TOTAL FREE ENERGY PREDICTED BY IDOCK:   -2.96 KCAL/MOL
REMARK 923 INTER-LIGAND FREE ENERGY PREDICTED BY IDOCK:   -2.85 KCAL/MOL
REMARK 924 INTRA-LIGAND FREE ENERGY PREDICTED BY IDOCK:   -0.10 KCAL/MOL
REMARK 927      BINDING AFFINITY PREDICTED BY RF-SCORE:    0.00 PKD
ROOT
HETATM    1  O   UNL     1      -9.985   9.148  68.406  1.00  0.00    -0.169 OA 
HETATM    2  C   UNL     1     -10.625   9.758  67.282  1.00  0.00    -0.255 C  
HETATM    3  H   UNL     1      -9.656   8.303  68.125  1.00  0.00     0.000 HD 
HETATM    4  O   UNL     1     -10.260  12.141  67.700  1.00  0.00    -0.193 OA 
HETATM    5  C   UNL     1     -11.158  11.126  67.737  1.00  0.00    -0.285 C  
HETATM    6  O   UNL     1     -12.282  11.277  68.203  1.00  0.00    -0.622 OA 
ENDROOT
BRANCH   2   7
HETATM    7  C   UNL     1      -9.683   9.816  66.089  1.00  0.00    -0.309 A  
HETATM    8  C   UNL     1     -10.105  10.298  64.838  1.00  0.00    -0.346 A  
HETATM    9  C   UNL     1      -9.220  10.361  63.760  1.00  0.00    -0.302 A  
HETATM   10  C   UNL     1      -7.900   9.948  63.915  1.00  0.00    -0.148 A  
HETATM   11  C   UNL     1      -7.461   9.476  65.149  1.00  0.00    -0.109 A  
HETATM   12  C   UNL     1      -8.342   9.418  66.231  1.00  0.00    -0.117 A  
ENDBRANCH   2   7
TORSDOF 1
ENDMDL
MODEL      138
REMARK 921   NORMALIZED FREE ENERGY PREDICTED BY IDOCK:   -2.76 KCAL/MOL
REMARK 922        TOTAL FREE ENERGY PREDICTED BY IDOCK:   -2.96 KCAL/MOL
REMARK 923 INTER-LIGAND FREE ENERGY PREDICTED BY IDOCK:   -2.90 KCAL/MOL
REMARK 924 INTRA-LIGAND FREE ENERGY PREDICTED BY IDOCK:   -0.06 KCAL/MOL
REMARK 927      BINDING AFFINITY PREDICTED BY RF-SCORE:    0.00 PKD
ROOT
HETATM    1  O   UNL     1     -10.963   6.134  72.210  1.00  0.00    -0.234 OA 
HETATM    2  C   UNL     1     -11.675   6.503  71.026  1.00  0.00    -0.343 C  
HETATM    3  H   UNL     1     -10.744   5.212  72.137  1.00  0.00     0.000 HD 
HETATM    4  O   UNL     1     -11.059   8.856  70.757  1.00  0.00    -0.241 OA 
HETATM    5  C   UNL     1     -12.031   7.994  71.144  1.00  0.00    -0.277 C  
HETATM    6  O   UNL     1     -13.076   8.387  71.652  1.00  0.00    -0.328 OA 
ENDROOT
BRANCH   2   7
HETATM    7  C   UNL     1     -10.877   6.145  69.781  1.00  0.00    -0.421 A  
HETATM    8  C   UNL     1      -9.645   5.473  69.862  1.00  0.00    -0.217 A  
HETATM    9  C   UNL     1      -8.936   5.136  68.707  1.00  0.00    -0.120 A  
HETATM   10  C   UNL     1      -9.448   5.461  67.454  1.00  0.00    -0.127 A  
HETATM   11  C   UNL     1     -10.670   6.119  67.353  1.00  0.00    -0.403 A  
HETATM   12  C   UNL     1     -11.385   6.451  68.506  1.00  0.00    -0.187 A  
ENDBRANCH   2   7
TORSDOF 1
ENDMDL
MODEL      139
REMARK 921   NORMALIZED FREE ENERGY PREDICTED BY IDOCK:   -2.74 KCAL/MOL
REMARK 922        TOTAL FREE ENERGY PREDICTED BY IDOCK:   -2.93 KCAL/MOL
REMARK 923 INTER-LIGAND FREE ENERGY PREDICTED BY IDOCK:   -2.80 KCAL/MOL
REMARK 924 INTRA-LIGAND FREE ENERGY PREDICTED BY IDOCK:   -0.13 KCAL/MOL
REMARK 927      BINDING AFFINITY PREDICTED BY RF-SCORE:    0.00 PKD
ROOT
HETATM    1  O   UNL     1     -11.766   6.549  69.445  1.00  0.00    -0.649 OA 
HETATM    2  C   UNL     1     -10.911   7.527  70.042  1.00  0.00    -0.249 C  
HETATM    3  H   UNL     1     -12.434   7.013  68.954  1.00  0.00     0.000 HD 
HETATM    4  O   UNL     1      -8.758   6.366  70.116  1.00  0.00    -0.136 OA 
HETATM    5  C   UNL     1      -9.831   6.776  70.837  1.00  0.00    -0.186 C  
HETATM    6  O   UNL     1      -9.969   6.471  72.017  1.00  0.00    -0.171 OA 
ENDROOT
BRANCH   2   7
HETATM    7  C   UNL     1     -10.367   8.483  68.991  1.00  0.00    -0.229 A  
HETATM    8  C   UNL     1     -10.512   8.230  67.616  1.00  0.00    -0.303 A  
HETATM    9  C   UNL     1     -10.022   9.129  66.667  1.00  0.00    -0.343 A  
HETATM   10  C   UNL     1      -9.383  10.296  67.075  1.00  0.00    -0.177 A  
HETATM   11  C   UNL     1      -9.237  10.569  68.432  1.00  0.00    -0.154 A  
HETATM   12  C   UNL     1      -9.732   9.675  69.384  1.00  0.00    -0.203 A  
ENDBRANCH   2   7
TORSDOF 1
ENDMDL
MODEL      140
REMARK 921   NORMALIZED FREE ENERGY PREDICTED BY IDOCK:   -2.70 KCAL/MOL
REMARK 922        TOTAL FREE ENERGY PREDICTED BY IDOCK:   -2.89 KCAL/MOL
REMARK 923 INTER-LIGAND FREE ENERGY PREDICTED BY IDOCK:   -2.79 KCAL/MOL
REMARK 924 INTRA-LIGAND FREE ENERGY PREDICTED BY IDOCK:   -0.11 KCAL/MOL
REMARK 927      BINDING AFFINITY PREDICTED BY RF-SCORE:    0.00 PKD
ROOT
HETATM    1  O   UNL     1     -11.081   7.948  68.220  1.00  0.00    -0.424 OA 
HETATM    2  C   UNL     1     -10.810   9.351  68.220  1.00  0.00    -0.112 C  
HETATM    3  H   UNL     1     -11.648   7.765  67.480  1.00  0.00     0.000 HD 
HETATM    4  O   UNL     1      -8.569   9.451  69.200  1.00  0.00    -0.130 OA 
HETATM    5  C   UNL     1      -9.893   9.646  69.419  1.00  0.00    -0.193 C  
HETATM    6  O   UNL     1     -10.327   9.935  70.529  1.00  0.00    -0.286 OA 
ENDROOT
BRANCH   2   7
HETATM    7  C   UNL     1     -10.249   9.794  66.877  1.00  0.00    -0.310 A  
HETATM    8  C   UNL     1     -10.242  11.145  66.489  1.00  0.00    -0.275 A  
HETATM    9  C   UNL     1      -9.705  11.534  65.260  1.00  0.00    -0.268 A  
HETATM   10  C   UNL     1      -9.165  10.582  64.401  1.00  0.00    -0.281 A  
HETATM   11  C   UNL     1      -9.155   9.240  64.771  1.00  0.00    -0.201 A  
HETATM   12  C   UNL     1      -9.685   8.849  66.003  1.00  0.00    -0.308 A  
ENDBRANCH   2   7
TORSDOF 1
ENDMDL
MODEL      141
REMARK 921   NORMALIZED FREE ENERGY PREDICTED BY IDOCK:   -2.69 KCAL/MOL
REMARK 922        TOTAL FREE ENERGY PREDICTED BY IDOCK:   -2.89 KCAL/MOL
REMARK 923 INTER-LIGAND FREE ENERGY PREDICTED BY IDOCK:   -2.79 KCAL/MOL
REMARK 924 INTRA-LIGAND FREE ENERGY PREDICTED BY IDOCK:   -0.10 KCAL/MOL
REMARK 927      BINDING AFFINITY PREDICTED BY RF-SCORE:    0.00 PKD
ROOT
HETATM    1  O   UNL     1      -8.051   9.114  71.208  1.00  0.00    -0.285 OA 
HETATM    2  C   UNL     1      -9.386   9.456  70.829  1.00  0.00    -0.226 C  
HETATM    3  H   UNL     1      -8.060   8.908  72.135  1.00  0.00     0.000 HD 
HETATM    4  O   UNL     1      -9.472   8.727  68.495  1.00  0.00    -0.144 OA 
HETATM    5  C   UNL     1      -9.372   9.791  69.329  1.00  0.00    -0.191 C  
HETATM    6  O   UNL     1      -9.177  10.925  68.905  1.00  0.00    -0.184 OA 
ENDROOT
BRANCH   2   7
HETATM    7  C   UNL     1     -10.358   8.352  71.217  1.00  0.00    -0.272 A  
HETATM    8  C   UNL     1      -9.919   7.159  71.816  1.00  0.00    -0.186 A  
HETATM    9  C   UNL     1     -10.829   6.164  72.182  1.00  0.00    -0.289 A  
HETATM   10  C   UNL     1     -12.190   6.347  71.959  1.00  0.00    -0.320 A  
HETATM   11  C   UNL     1     -12.646   7.526  71.375  1.00  0.00    -0.382 A  
HETATM   12  C   UNL     1     -11.738   8.525  71.014  1.00  0.00    -0.310 A  
ENDBRANCH   2   7
TORSDOF 1
ENDMDL
MODEL      142
REMARK 921   NORMALIZED FREE ENERGY PREDICTED BY IDOCK:   -2.68 KCAL/MOL
REMARK 922        TOTAL FREE ENERGY PREDICTED BY IDOCK:   -2.87 KCAL/MOL
REMARK 923 INTER-LIGAND FREE ENERGY PREDICTED BY IDOCK:   -2.80 KCAL/MOL
REMARK 924 INTRA-LIGAND FREE ENERGY PREDICTED BY IDOCK:   -0.07 KCAL/MOL
REMARK 927      BINDING AFFINITY PREDICTED BY RF-SCORE:    0.00 PKD
ROOT
HETATM    1  O   UNL     1     -10.182  10.747  68.433  1.00  0.00    -0.163 OA 
HETATM    2  C   UNL     1      -9.495  11.904  67.949  1.00  0.00    -0.194 C  
HETATM    3  H   UNL     1     -11.111  10.947  68.440  1.00  0.00     0.000 HD 
HETATM    4  O   UNL     1      -7.545  10.929  66.838  1.00  0.00    -0.115 OA 
HETATM    5  C   UNL     1      -7.992  11.581  67.939  1.00  0.00    -0.126 C  
HETATM    6  O   UNL     1      -7.262  11.799  68.900  1.00  0.00    -0.108 OA 
ENDROOT
BRANCH   2   7
HETATM    7  C   UNL     1     -10.053  12.340  66.602  1.00  0.00    -0.231 A  
HETATM    8  C   UNL     1     -10.673  11.428  65.730  1.00  0.00    -0.309 A  
HETATM    9  C   UNL     1     -11.195  11.851  64.506  1.00  0.00    -0.380 A  
HETATM   10  C   UNL     1     -11.111  13.190  64.135  1.00  0.00    -0.426 A  
HETATM   11  C   UNL     1     -10.509  14.109  64.990  1.00  0.00    -0.447 A  
HETATM   12  C   UNL     1      -9.991  13.690  66.218  1.00  0.00    -0.305 A  
ENDBRANCH   2   7
TORSDOF 1
ENDMDL
MODEL      143
REMARK 921   NORMALIZED FREE ENERGY PREDICTED BY IDOCK:   -2.66 KCAL/MOL
REMARK 922        TOTAL FREE ENERGY PREDICTED BY IDOCK:   -2.85 KCAL/MOL
REMARK 923 INTER-LIGAND FREE ENERGY PREDICTED BY IDOCK:   -2.73 KCAL/MOL
REMARK 924 INTRA-LIGAND FREE ENERGY PREDICTED BY IDOCK:   -0.12 KCAL/MOL
REMARK 927      BINDING AFFINITY PREDICTED BY RF-SCORE:    0.00 PKD
ROOT
HETATM    1  O   UNL     1     -11.599   6.616  68.961  1.00  0.00    -0.611 OA 
HETATM    2  C   UNL     1     -11.146   6.595  67.605  1.00  0.00    -0.271 C  
HETATM    3  H   UNL     1     -12.107   5.826  69.105  1.00  0.00     0.000 HD 
HETATM    4  O   UNL     1      -9.022   7.803  67.743  1.00  0.00    -0.128 OA 
HETATM    5  C   UNL     1     -10.324   7.873  67.371  1.00  0.00    -0.279 C  
HETATM    6  O   UNL     1     -10.825   8.920  66.975  1.00  0.00    -0.190 OA 
ENDROOT
BRANCH   2   7
HETATM    7  C   UNL     1     -10.400   5.304  67.303  1.00  0.00    -0.254 A  
HETATM    8  C   UNL     1      -9.903   4.482  68.329  1.00  0.00    -0.153 A  
HETATM    9  C   UNL     1      -9.237   3.291  68.032  1.00  0.00    -0.243 A  
HETATM   10  C   UNL     1      -9.060   2.900  66.707  1.00  0.00    -0.171 A  
HETATM   11  C   UNL     1      -9.553   3.697  65.678  1.00  0.00    -0.142 A  
HETATM   12  C   UNL     1     -10.225   4.886  65.972  1.00  0.00    -0.287 A  
ENDBRANCH   2   7
TORSDOF 1
ENDMDL
MODEL      144
REMARK 921   NORMALIZED FREE ENERGY PREDICTED BY IDOCK:   -2.62 KCAL/MOL
REMARK 922        TOTAL FREE ENERGY PREDICTED BY IDOCK:   -2.80 KCAL/MOL
REMARK 923 INTER-LIGAND FREE ENERGY PREDICTED BY IDOCK:   -2.69 KCAL/MOL
REMARK 924 INTRA-LIGAND FREE ENERGY PREDICTED BY IDOCK:   -0.11 KCAL/MOL
REMARK 927      BINDING AFFINITY PREDICTED BY RF-SCORE:    0.00 PKD
ROOT
HETATM    1  O   UNL     1     -11.097   9.333  67.216  1.00  0.00    -0.352 OA 
HETATM    2  C   UNL     1     -10.407  10.585  67.205  1.00  0.00    -0.228 C  
HETATM    3  H   UNL     1     -10.456   8.650  67.059  1.00  0.00     0.000 HD 
HETATM    4  O   UNL     1     -11.733  11.928  68.762  1.00  0.00    -0.279 OA 
HETATM    5  C   UNL     1     -11.445  11.690  67.459  1.00  0.00    -0.289 C  
HETATM    6  O   UNL     1     -12.054  12.247  66.552  1.00  0.00    -0.616 OA 
ENDROOT
BRANCH   2   7
HETATM    7  C   UNL     1      -9.249  10.573  68.192  1.00  0.00    -0.148 A  
HETATM    8  C   UNL     1      -8.218  11.526  68.131  1.00  0.00    -0.149 A  
HETATM    9  C   UNL     1      -7.173  11.510  69.058  1.00  0.00    -0.106 A  
HETATM   10  C   UNL     1      -7.143  10.545  70.060  1.00  0.00    -0.133 A  
HETATM   11  C   UNL     1      -8.160   9.598  70.142  1.00  0.00    -0.205 A  
HETATM   12  C   UNL     1      -9.210   9.615  69.220  1.00  0.00    -0.186 A  
ENDBRANCH   2   7
TORSDOF 1
ENDMDL
MODEL      145
REMARK 921   NORMALIZED FREE ENERGY PREDICTED BY IDOCK:   -2.59 KCAL/MOL
REMARK 922        TOTAL FREE ENERGY PREDICTED BY IDOCK:   -2.78 KCAL/MOL
REMARK 923 INTER-LIGAND FREE ENERGY PREDICTED BY IDOCK:   -2.66 KCAL/MOL
REMARK 924 INTRA-LIGAND FREE ENERGY PREDICTED BY IDOCK:   -0.12 KCAL/MOL
REMARK 927      BINDING AFFINITY PREDICTED BY RF-SCORE:    0.00 PKD
ROOT
HETATM    1  O   UNL     1     -12.004   6.636  69.638  1.00  0.00    -0.653 OA 
HETATM    2  C   UNL     1     -10.576   6.657  69.705  1.00  0.00    -0.228 C  
HETATM    3  H   UNL     1     -12.303   5.879  70.127  1.00  0.00     0.000 HD 
HETATM    4  O   UNL     1     -10.082   9.052  69.598  1.00  0.00    -0.185 OA 
HETATM    5  C   UNL     1     -10.092   7.882  68.912  1.00  0.00    -0.197 C  
HETATM    6  O   UNL     1      -9.833   7.835  67.715  1.00  0.00    -0.148 OA 
ENDROOT
BRANCH   2   7
HETATM    7  C   UNL     1     -10.102   6.617  71.150  1.00  0.00    -0.202 A  
HETATM    8  C   UNL     1      -8.744   6.468  71.478  1.00  0.00    -0.132 A  
HETATM    9  C   UNL     1      -8.326   6.452  72.811  1.00  0.00    -0.118 A  
HETATM   10  C   UNL     1      -9.257   6.590  73.836  1.00  0.00    -0.172 A  
HETATM   11  C   UNL     1     -10.606   6.748  73.531  1.00  0.00    -0.358 A  
HETATM   12  C   UNL     1     -11.026   6.770  72.199  1.00  0.00    -0.270 A  
ENDBRANCH   2   7
TORSDOF 1
ENDMDL
MODEL      146
REMARK 921   NORMALIZED FREE ENERGY PREDICTED BY IDOCK:   -2.58 KCAL/MOL
REMARK 922        TOTAL FREE ENERGY PREDICTED BY IDOCK:   -2.77 KCAL/MOL
REMARK 923 INTER-LIGAND FREE ENERGY PREDICTED BY IDOCK:   -2.70 KCAL/MOL
REMARK 924 INTRA-LIGAND FREE ENERGY PREDICTED BY IDOCK:   -0.07 KCAL/MOL
REMARK 927      BINDING AFFINITY PREDICTED BY RF-SCORE:    0.00 PKD
ROOT
HETATM    1  O   UNL     1     -10.903   8.167  67.911  1.00  0.00    -0.460 OA 
HETATM    2  C   UNL     1     -10.140   7.357  68.810  1.00  0.00    -0.179 C  
HETATM    3  H   UNL     1     -10.460   8.156  67.071  1.00  0.00     0.000 HD 
HETATM    4  O   UNL     1     -11.862   6.477  70.310  1.00  0.00    -0.413 OA 
HETATM    5  C   UNL     1     -10.855   7.375  70.171  1.00  0.00    -0.256 C  
HETATM    6  O   UNL     1     -10.612   8.209  71.036  1.00  0.00    -0.206 OA 
ENDROOT
BRANCH   2   7
HETATM    7  C   UNL     1      -9.922   5.966  68.233  1.00  0.00    -0.177 A  
HETATM    8  C   UNL     1      -9.227   4.973  68.944  1.00  0.00    -0.155 A  
HETATM    9  C   UNL     1      -9.054   3.696  68.405  1.00  0.00    -0.200 A  
HETATM   10  C   UNL     1      -9.574   3.390  67.152  1.00  0.00    -0.124 A  
HETATM   11  C   UNL     1     -10.274   4.358  66.436  1.00  0.00    -0.184 A  
HETATM   12  C   UNL     1     -10.454   5.634  66.975  1.00  0.00    -0.344 A  
ENDBRANCH   2   7
TORSDOF 1
ENDMDL
MODEL      147
REMARK 921   NORMALIZED FREE ENERGY PREDICTED BY IDOCK:   -2.54 KCAL/MOL
REMARK 922        TOTAL FREE ENERGY PREDICTED BY IDOCK:   -2.72 KCAL/MOL
REMARK 923 INTER-LIGAND FREE ENERGY PREDICTED BY IDOCK:   -2.60 KCAL/MOL
REMARK 924 INTRA-LIGAND FREE ENERGY PREDICTED BY IDOCK:   -0.12 KCAL/MOL
REMARK 927      BINDING AFFINITY PREDICTED BY RF-SCORE:    0.00 PKD
ROOT
HETATM    1  O   UNL     1     -10.078   6.606  70.739  1.00  0.00    -0.184 OA 
HETATM    2  C   UNL     1     -10.996   7.567  70.210  1.00  0.00    -0.250 C  
HETATM    3  H   UNL     1      -9.438   6.418  70.062  1.00  0.00     0.000 HD 
HETATM    4  O   UNL     1     -11.663   8.808  72.210  1.00  0.00    -0.363 OA 
HETATM    5  C   UNL     1     -12.032   7.869  71.305  1.00  0.00    -0.298 C  
HETATM    6  O   UNL     1     -13.075   7.236  71.422  1.00  0.00    -0.376 OA 
ENDROOT
BRANCH   2   7
HETATM    7  C   UNL     1     -10.258   8.790  69.689  1.00  0.00    -0.210 A  
HETATM    8  C   UNL     1     -10.901   9.762  68.903  1.00  0.00    -0.220 A  
HETATM    9  C   UNL     1     -10.211  10.888  68.450  1.00  0.00    -0.193 A  
HETATM   10  C   UNL     1      -8.870  11.064  68.776  1.00  0.00    -0.149 A  
HETATM   11  C   UNL     1      -8.217  10.117  69.561  1.00  0.00    -0.176 A  
HETATM   12  C   UNL     1      -8.907   8.993  70.021  1.00  0.00    -0.181 A  
ENDBRANCH   2   7
TORSDOF 1
ENDMDL
MODEL      148
REMARK 921   NORMALIZED FREE ENERGY PREDICTED BY IDOCK:   -2.49 KCAL/MOL
REMARK 922        TOTAL FREE ENERGY PREDICTED BY IDOCK:   -2.67 KCAL/MOL
REMARK 923 INTER-LIGAND FREE ENERGY PREDICTED BY IDOCK:   -2.57 KCAL/MOL
REMARK 924 INTRA-LIGAND FREE ENERGY PREDICTED BY IDOCK:   -0.10 KCAL/MOL
REMARK 927      BINDING AFFINITY PREDICTED BY RF-SCORE:    0.00 PKD
ROOT
HETATM    1  O   UNL     1      -9.444   4.944  69.083  1.00  0.00    -0.119 OA 
HETATM    2  C   UNL     1     -10.347   5.155  70.172  1.00  0.00    -0.270 C  
HETATM    3  H   UNL     1      -9.774   5.434  68.339  1.00  0.00     0.000 HD 
HETATM    4  O   UNL     1      -8.868   4.992  72.115  1.00  0.00    -0.127 OA 
HETATM    5  C   UNL     1      -9.814   4.362  71.376  1.00  0.00    -0.192 C  
HETATM    6  O   UNL     1     -10.137   3.200  71.598  1.00  0.00    -0.144 OA 
ENDROOT
BRANCH   2   7
HETATM    7  C   UNL     1     -10.539   6.641  70.435  1.00  0.00    -0.266 A  
HETATM    8  C   UNL     1      -9.838   7.617  69.705  1.00  0.00    -0.181 A  
HETATM    9  C   UNL     1     -10.043   8.977  69.948  1.00  0.00    -0.213 A  
HETATM   10  C   UNL     1     -10.952   9.384  70.920  1.00  0.00    -0.391 A  
HETATM   11  C   UNL     1     -11.662   8.433  71.647  1.00  0.00    -0.354 A  
HETATM   12  C   UNL     1     -11.464   7.072  71.402  1.00  0.00    -0.312 A  
ENDBRANCH   2   7
TORSDOF 1
ENDMDL
MODEL      149
REMARK 921   NORMALIZED FREE ENERGY PREDICTED BY IDOCK:   -2.48 KCAL/MOL
REMARK 922        TOTAL FREE ENERGY PREDICTED BY IDOCK:   -2.66 KCAL/MOL
REMARK 923 INTER-LIGAND FREE ENERGY PREDICTED BY IDOCK:   -2.54 KCAL/MOL
REMARK 924 INTRA-LIGAND FREE ENERGY PREDICTED BY IDOCK:   -0.12 KCAL/MOL
REMARK 927      BINDING AFFINITY PREDICTED BY RF-SCORE:    0.00 PKD
ROOT
HETATM    1  O   UNL     1      -8.399   5.848  69.460  1.00  0.00    -0.111 OA 
HETATM    2  C   UNL     1      -8.440   7.128  70.095  1.00  0.00    -0.139 C  
HETATM    3  H   UNL     1      -8.717   5.207  70.085  1.00  0.00     0.000 HD 
HETATM    4  O   UNL     1      -8.849   8.635  68.211  1.00  0.00    -0.140 OA 
HETATM    5  C   UNL     1      -7.924   8.165  69.084  1.00  0.00    -0.113 C  
HETATM    6  O   UNL     1      -6.741   8.471  68.995  1.00  0.00    -0.050 OA 
ENDROOT
BRANCH   2   7
HETATM    7  C   UNL     1      -9.831   7.418  70.639  1.00  0.00    -0.179 A  
HETATM    8  C   UNL     1     -10.081   8.516  71.480  1.00  0.00    -0.315 A  
HETATM    9  C   UNL     1     -11.368   8.776  71.953  1.00  0.00    -0.431 A  
HETATM   10  C   UNL     1     -12.427   7.948  71.591  1.00  0.00    -0.344 A  
HETATM   11  C   UNL     1     -12.201   6.861  70.751  1.00  0.00    -0.364 A  
HETATM   12  C   UNL     1     -10.915   6.602  70.271  1.00  0.00    -0.355 A  
ENDBRANCH   2   7
TORSDOF 1
ENDMDL
MODEL      150
REMARK 921   NORMALIZED FREE ENERGY PREDICTED BY IDOCK:   -2.40 KCAL/MOL
REMARK 922        TOTAL FREE ENERGY PREDICTED BY IDOCK:   -2.57 KCAL/MOL
REMARK 923 INTER-LIGAND FREE ENERGY PREDICTED BY IDOCK:   -2.45 KCAL/MOL
REMARK 924 INTRA-LIGAND FREE ENERGY PREDICTED BY IDOCK:   -0.12 KCAL/MOL
REMARK 927      BINDING AFFINITY PREDICTED BY RF-SCORE:    0.00 PKD
ROOT
HETATM    1  O   UNL     1      -9.717   5.743  70.185  1.00  0.00    -0.160 OA 
HETATM    2  C   UNL     1     -10.105   6.783  71.087  1.00  0.00    -0.181 C  
HETATM    3  H   UNL     1      -8.830   5.928  69.899  1.00  0.00     0.000 HD 
HETATM    4  O   UNL     1     -11.648   5.623  72.590  1.00  0.00    -0.307 OA 
HETATM    5  C   UNL     1     -11.540   6.485  71.549  1.00  0.00    -0.315 C  
HETATM    6  O   UNL     1     -12.527   6.906  70.957  1.00  0.00    -0.382 OA 
ENDROOT
BRANCH   2   7
HETATM    7  C   UNL     1      -9.097   6.922  72.218  1.00  0.00    -0.143 A  
HETATM    8  C   UNL     1      -8.048   6.002  72.390  1.00  0.00    -0.109 A  
HETATM    9  C   UNL     1      -7.122   6.157  73.423  1.00  0.00    -0.084 A  
HETATM   10  C   UNL     1      -7.225   7.235  74.298  1.00  0.00    -0.113 A  
HETATM   11  C   UNL     1      -8.252   8.162  74.138  1.00  0.00    -0.310 A  
HETATM   12  C   UNL     1      -9.176   8.012  73.102  1.00  0.00    -0.347 A  
ENDBRANCH   2   7
TORSDOF 1
ENDMDL
MODEL      151
REMARK 921   NORMALIZED FREE ENERGY PREDICTED BY IDOCK:   -2.30 KCAL/MOL
REMARK 922        TOTAL FREE ENERGY PREDICTED BY IDOCK:   -2.47 KCAL/MOL
REMARK 923 INTER-LIGAND FREE ENERGY PREDICTED BY IDOCK:   -2.42 KCAL/MOL
REMARK 924 INTRA-LIGAND FREE ENERGY PREDICTED BY IDOCK:   -0.05 KCAL/MOL
REMARK 927      BINDING AFFINITY PREDICTED BY RF-SCORE:    0.00 PKD
ROOT
HETATM    1  O   UNL     1     -10.421   8.446  71.566  1.00  0.00    -0.210 OA 
HETATM    2  C   UNL     1     -11.134   8.667  70.347  1.00  0.00    -0.230 C  
HETATM    3  H   UNL     1     -10.040   7.577  71.522  1.00  0.00     0.000 HD 
HETATM    4  O   UNL     1     -10.930  11.088  70.052  1.00  0.00    -0.216 OA 
HETATM    5  C   UNL     1     -11.751  10.073  70.419  1.00  0.00    -0.286 C  
HETATM    6  O   UNL     1     -12.870  10.283  70.875  1.00  0.00    -0.349 OA 
ENDROOT
BRANCH   2   7
HETATM    7  C   UNL     1     -10.233   8.438  69.144  1.00  0.00    -0.217 A  
HETATM    8  C   UNL     1      -8.915   7.970  69.287  1.00  0.00    -0.148 A  
HETATM    9  C   UNL     1      -8.109   7.747  68.169  1.00  0.00    -0.123 A  
HETATM   10  C   UNL     1      -8.606   7.985  66.891  1.00  0.00    -0.130 A  
HETATM   11  C   UNL     1      -9.912   8.440  66.728  1.00  0.00    -0.354 A  
HETATM   12  C   UNL     1     -10.722   8.657  67.844  1.00  0.00    -0.158 A  
ENDBRANCH   2   7
TORSDOF 1
ENDMDL
MODEL      152
REMARK 921   NORMALIZED FREE ENERGY PREDICTED BY IDOCK:   -2.29 KCAL/MOL
REMARK 922        TOTAL FREE ENERGY PREDICTED BY IDOCK:   -2.46 KCAL/MOL
REMARK 923 INTER-LIGAND FREE ENERGY PREDICTED BY IDOCK:   -2.33 KCAL/MOL
REMARK 924 INTRA-LIGAND FREE ENERGY PREDICTED BY IDOCK:   -0.13 KCAL/MOL
REMARK 927      BINDING AFFINITY PREDICTED BY RF-SCORE:    0.00 PKD
ROOT
HETATM    1  O   UNL     1     -11.210   5.612  66.044  1.00  0.00    -0.737 OA 
HETATM    2  C   UNL     1     -10.073   6.121  66.745  1.00  0.00    -0.182 C  
HETATM    3  H   UNL     1     -10.892   5.025  65.368  1.00  0.00     0.000 HD 
HETATM    4  O   UNL     1     -10.960   6.476  68.997  1.00  0.00    -0.280 OA 
HETATM    5  C   UNL     1     -10.587   7.072  67.838  1.00  0.00    -0.218 C  
HETATM    6  O   UNL     1     -10.754   8.271  67.647  1.00  0.00    -0.219 OA 
ENDROOT
BRANCH   2   7
HETATM    7  C   UNL     1      -9.202   4.985  67.260  1.00  0.00    -0.127 A  
HETATM    8  C   UNL     1      -9.632   3.647  67.217  1.00  0.00    -0.194 A  
HETATM    9  C   UNL     1      -8.810   2.616  67.677  1.00  0.00    -0.159 A  
HETATM   10  C   UNL     1      -7.546   2.904  68.184  1.00  0.00    -0.056 A  
HETATM   11  C   UNL     1      -7.099   4.221  68.226  1.00  0.00    -0.059 A  
HETATM   12  C   UNL     1      -7.916   5.254  67.760  1.00  0.00    -0.099 A  
ENDBRANCH   2   7
TORSDOF 1
ENDMDL
MODEL      153
REMARK 921   NORMALIZED FREE ENERGY PREDICTED BY IDOCK:   -2.27 KCAL/MOL
REMARK 922        TOTAL FREE ENERGY PREDICTED BY IDOCK:   -2.44 KCAL/MOL
REMARK 923 INTER-LIGAND FREE ENERGY PREDICTED BY IDOCK:   -2.33 KCAL/MOL
REMARK 924 INTRA-LIGAND FREE ENERGY PREDICTED BY IDOCK:   -0.11 KCAL/MOL
REMARK 927      BINDING AFFINITY PREDICTED BY RF-SCORE:    0.00 PKD
ROOT
HETATM    1  O   UNL     1     -11.549   7.152  69.624  1.00  0.00    -0.517 OA 
HETATM    2  C   UNL     1     -10.544   6.954  68.626  1.00  0.00    -0.223 C  
HETATM    3  H   UNL     1     -12.183   6.450  69.535  1.00  0.00     0.000 HD 
HETATM    4  O   UNL     1      -8.551   7.887  69.697  1.00  0.00    -0.131 OA 
HETATM    5  C   UNL     1      -9.518   8.090  68.768  1.00  0.00    -0.147 C  
HETATM    6  O   UNL     1      -9.620   9.153  68.166  1.00  0.00    -0.141 OA 
ENDROOT
BRANCH   2   7
HETATM    7  C   UNL     1      -9.951   5.557  68.726  1.00  0.00    -0.231 A  
HETATM    8  C   UNL     1      -9.226   4.985  67.666  1.00  0.00    -0.132 A  
HETATM    9  C   UNL     1      -8.673   3.707  67.784  1.00  0.00    -0.126 A  
HETATM   10  C   UNL     1      -8.832   2.984  68.962  1.00  0.00    -0.155 A  
HETATM   11  C   UNL     1      -9.539   3.537  70.026  1.00  0.00    -0.226 A  
HETATM   12  C   UNL     1     -10.088   4.816  69.913  1.00  0.00    -0.299 A  
ENDBRANCH   2   7
TORSDOF 1
ENDMDL
MODEL      154
REMARK 921   NORMALIZED FREE ENERGY PREDICTED BY IDOCK:   -2.23 KCAL/MOL
REMARK 922        TOTAL FREE ENERGY PREDICTED BY IDOCK:   -2.40 KCAL/MOL
REMARK 923 INTER-LIGAND FREE ENERGY PREDICTED BY IDOCK:   -2.27 KCAL/MOL
REMARK 924 INTRA-LIGAND FREE ENERGY PREDICTED BY IDOCK:   -0.12 KCAL/MOL
REMARK 927      BINDING AFFINITY PREDICTED BY RF-SCORE:    0.00 PKD
ROOT
HETATM    1  O   UNL     1     -11.618   6.621  66.900  1.00  0.00    -0.726 OA 
HETATM    2  C   UNL     1     -10.485   7.470  67.104  1.00  0.00    -0.336 C  
HETATM    3  H   UNL     1     -11.737   6.523  65.962  1.00  0.00     0.000 HD 
HETATM    4  O   UNL     1      -9.586   6.642  69.224  1.00  0.00    -0.144 OA 
HETATM    5  C   UNL     1     -10.293   7.630  68.621  1.00  0.00    -0.200 C  
HETATM    6  O   UNL     1     -10.826   8.526  69.265  1.00  0.00    -0.175 OA 
ENDROOT
BRANCH   2   7
HETATM    7  C   UNL     1      -9.267   6.932  66.369  1.00  0.00    -0.186 A  
HETATM    8  C   UNL     1      -8.092   7.692  66.233  1.00  0.00    -0.112 A  
HETATM    9  C   UNL     1      -6.977   7.173  65.571  1.00  0.00    -0.056 A  
HETATM   10  C   UNL     1      -7.016   5.888  65.038  1.00  0.00    -0.059 A  
HETATM   11  C   UNL     1      -8.168   5.117  65.170  1.00  0.00    -0.132 A  
HETATM   12  C   UNL     1      -9.282   5.631  65.837  1.00  0.00    -0.145 A  
ENDBRANCH   2   7
TORSDOF 1
ENDMDL
MODEL      155
REMARK 921   NORMALIZED FREE ENERGY PREDICTED BY IDOCK:   -2.21 KCAL/MOL
REMARK 922        TOTAL FREE ENERGY PREDICTED BY IDOCK:   -2.37 KCAL/MOL
REMARK 923 INTER-LIGAND FREE ENERGY PREDICTED BY IDOCK:   -2.39 KCAL/MOL
REMARK 924 INTRA-LIGAND FREE ENERGY PREDICTED BY IDOCK:    0.01 KCAL/MOL
REMARK 927      BINDING AFFINITY PREDICTED BY RF-SCORE:    0.00 PKD
ROOT
HETATM    1  O   UNL     1      -8.526   6.386  70.793  1.00  0.00    -0.131 OA 
HETATM    2  C   UNL     1      -9.416   5.283  70.984  1.00  0.00    -0.161 C  
HETATM    3  H   UNL     1      -7.663   6.030  70.616  1.00  0.00     0.000 HD 
HETATM    4  O   UNL     1     -11.544   6.184  70.179  1.00  0.00    -0.375 OA 
HETATM    5  C   UNL     1     -10.812   5.859  71.273  1.00  0.00    -0.270 C  
HETATM    6  O   UNL     1     -11.203   6.111  72.407  1.00  0.00    -0.257 OA 
ENDROOT
BRANCH   2   7
HETATM    7  C   UNL     1      -9.362   4.333  69.798  1.00  0.00    -0.231 A  
HETATM    8  C   UNL     1      -9.170   4.799  68.486  1.00  0.00    -0.165 A  
HETATM    9  C   UNL     1      -9.104   3.908  67.412  1.00  0.00    -0.178 A  
HETATM   10  C   UNL     1      -9.225   2.539  67.632  1.00  0.00    -0.225 A  
HETATM   11  C   UNL     1      -9.406   2.058  68.925  1.00  0.00    -0.209 A  
HETATM   12  C   UNL     1      -9.466   2.946  70.002  1.00  0.00    -0.183 A  
ENDBRANCH   2   7
TORSDOF 1
ENDMDL
MODEL      156
REMARK 921   NORMALIZED FREE ENERGY PREDICTED BY IDOCK:   -2.21 KCAL/MOL
REMARK 922        TOTAL FREE ENERGY PREDICTED BY IDOCK:   -2.37 KCAL/MOL
REMARK 923 INTER-LIGAND FREE ENERGY PREDICTED BY IDOCK:   -2.25 KCAL/MOL
REMARK 924 INTRA-LIGAND FREE ENERGY PREDICTED BY IDOCK:   -0.12 KCAL/MOL
REMARK 927      BINDING AFFINITY PREDICTED BY RF-SCORE:    0.00 PKD
ROOT
HETATM    1  O   UNL     1     -11.219   5.616  66.283  1.00  0.00    -0.759 OA 
HETATM    2  C   UNL     1      -9.852   5.208  66.178  1.00  0.00    -0.185 C  
HETATM    3  H   UNL     1     -11.466   6.006  65.453  1.00  0.00     0.000 HD 
HETATM    4  O   UNL     1      -9.769   3.268  67.666  1.00  0.00    -0.153 OA 
HETATM    5  C   UNL     1      -9.451   4.578  67.522  1.00  0.00    -0.161 C  
HETATM    6  O   UNL     1      -8.975   5.231  68.443  1.00  0.00    -0.107 OA 
ENDROOT
BRANCH   2   7
HETATM    7  C   UNL     1      -9.650   4.302  64.974  1.00  0.00    -0.179 A  
HETATM    8  C   UNL     1      -8.368   3.901  64.558  1.00  0.00    -0.098 A  
HETATM    9  C   UNL     1      -8.203   3.053  63.461  1.00  0.00    -0.085 A  
HETATM   10  C   UNL     1      -9.315   2.589  62.764  1.00  0.00    -0.090 A  
HETATM   11  C   UNL     1     -10.593   2.967  63.166  1.00  0.00    -0.218 A  
HETATM   12  C   UNL     1     -10.761   3.810  64.267  1.00  0.00    -0.216 A  
ENDBRANCH   2   7
TORSDOF 1
ENDMDL
MODEL      157
REMARK 921   NORMALIZED FREE ENERGY PREDICTED BY IDOCK:   -2.15 KCAL/MOL
REMARK 922        TOTAL FREE ENERGY PREDICTED BY IDOCK:   -2.31 KCAL/MOL
REMARK 923 INTER-LIGAND FREE ENERGY PREDICTED BY IDOCK:   -2.23 KCAL/MOL
REMARK 924 INTRA-LIGAND FREE ENERGY PREDICTED BY IDOCK:   -0.08 KCAL/MOL
REMARK 927      BINDING AFFINITY PREDICTED BY RF-SCORE:    0.00 PKD
ROOT
HETATM    1  O   UNL     1     -11.444   7.280  69.620  1.00  0.00    -0.483 OA 
HETATM    2  C   UNL     1     -10.414   8.269  69.706  1.00  0.00    -0.220 C  
HETATM    3  H   UNL     1     -11.057   6.495  69.250  1.00  0.00     0.000 HD 
HETATM    4  O   UNL     1     -11.104   9.575  71.657  1.00  0.00    -0.371 OA 
HETATM    5  C   UNL     1     -11.040   9.539  70.303  1.00  0.00    -0.271 C  
HETATM    6  O   UNL     1     -11.545  10.417  69.611  1.00  0.00    -0.248 OA 
ENDROOT
BRANCH   2   7
HETATM    7  C   UNL     1      -9.216   7.737  70.477  1.00  0.00    -0.162 A  
HETATM    8  C   UNL     1      -9.343   6.696  71.414  1.00  0.00    -0.151 A  
HETATM    9  C   UNL     1      -8.228   6.208  72.098  1.00  0.00    -0.110 A  
HETATM   10  C   UNL     1      -6.968   6.749  71.856  1.00  0.00    -0.070 A  
HETATM   11  C   UNL     1      -6.821   7.773  70.925  1.00  0.00    -0.042 A  
HETATM   12  C   UNL     1      -7.933   8.259  70.234  1.00  0.00    -0.102 A  
ENDBRANCH   2   7
TORSDOF 1
ENDMDL
MODEL      158
REMARK 921   NORMALIZED FREE ENERGY PREDICTED BY IDOCK:   -2.15 KCAL/MOL
REMARK 922        TOTAL FREE ENERGY PREDICTED BY IDOCK:   -2.31 KCAL/MOL
REMARK 923 INTER-LIGAND FREE ENERGY PREDICTED BY IDOCK:   -2.22 KCAL/MOL
REMARK 924 INTRA-LIGAND FREE ENERGY PREDICTED BY IDOCK:   -0.09 KCAL/MOL
REMARK 927      BINDING AFFINITY PREDICTED BY RF-SCORE:    0.00 PKD
ROOT
HETATM    1  O   UNL     1     -11.544   6.493  67.985  1.00  0.00    -0.598 OA 
HETATM    2  C   UNL     1     -10.215   7.015  67.911  1.00  0.00    -0.183 C  
HETATM    3  H   UNL     1     -11.491   5.554  67.846  1.00  0.00     0.000 HD 
HETATM    4  O   UNL     1     -10.319   8.930  69.431  1.00  0.00    -0.204 OA 
HETATM    5  C   UNL     1     -10.300   8.534  68.135  1.00  0.00    -0.206 C  
HETATM    6  O   UNL     1     -10.448   9.331  67.215  1.00  0.00    -0.252 OA 
ENDROOT
BRANCH   2   7
HETATM    7  C   UNL     1      -9.293   6.288  68.879  1.00  0.00    -0.128 A  
HETATM    8  C   UNL     1      -9.789   5.632  70.018  1.00  0.00    -0.247 A  
HETATM    9  C   UNL     1      -8.929   4.954  70.885  1.00  0.00    -0.167 A  
HETATM   10  C   UNL     1      -7.562   4.918  70.626  1.00  0.00    -0.066 A  
HETATM   11  C   UNL     1      -7.053   5.554  69.497  1.00  0.00    -0.064 A  
HETATM   12  C   UNL     1      -7.912   6.228  68.625  1.00  0.00    -0.105 A  
ENDBRANCH   2   7
TORSDOF 1
ENDMDL
MODEL      159
REMARK 921   NORMALIZED FREE ENERGY PREDICTED BY IDOCK:   -2.07 KCAL/MOL
REMARK 922        TOTAL FREE ENERGY PREDICTED BY IDOCK:   -2.22 KCAL/MOL
REMARK 923 INTER-LIGAND FREE ENERGY PREDICTED BY IDOCK:   -2.35 KCAL/MOL
REMARK 924 INTRA-LIGAND FREE ENERGY PREDICTED BY IDOCK:    0.12 KCAL/MOL
REMARK 927      BINDING AFFINITY PREDICTED BY RF-SCORE:    0.00 PKD
ROOT
HETATM    1  O   UNL     1      -9.424   7.104  70.131  1.00  0.00    -0.162 OA 
HETATM    2  C   UNL     1      -9.947   7.406  71.427  1.00  0.00    -0.186 C  
HETATM    3  H   UNL     1      -8.541   6.774  70.248  1.00  0.00     0.000 HD 
HETATM    4  O   UNL     1     -12.342   6.995  71.135  1.00  0.00    -0.359 OA 
HETATM    5  C   UNL     1     -11.376   7.941  71.238  1.00  0.00    -0.260 C  
HETATM    6  O   UNL     1     -11.622   9.132  71.083  1.00  0.00    -0.277 OA 
ENDROOT
BRANCH   2   7
HETATM    7  C   UNL     1      -9.846   6.199  72.347  1.00  0.00    -0.179 A  
HETATM    8  C   UNL     1      -9.462   6.326  73.693  1.00  0.00    -0.157 A  
HETATM    9  C   UNL     1      -9.392   5.208  74.527  1.00  0.00    -0.132 A  
HETATM   10  C   UNL     1      -9.709   3.946  74.031  1.00  0.00    -0.138 A  
HETATM   11  C   UNL     1     -10.100   3.801  72.703  1.00  0.00    -0.228 A  
HETATM   12  C   UNL     1     -10.176   4.919  71.868  1.00  0.00    -0.267 A  
ENDBRANCH   2   7
TORSDOF 1
ENDMDL
MODEL      160
REMARK 921   NORMALIZED FREE ENERGY PREDICTED BY IDOCK:   -2.06 KCAL/MOL
REMARK 922        TOTAL FREE ENERGY PREDICTED BY IDOCK:   -2.21 KCAL/MOL
REMARK 923 INTER-LIGAND FREE ENERGY PREDICTED BY IDOCK:   -2.09 KCAL/MOL
REMARK 924 INTRA-LIGAND FREE ENERGY PREDICTED BY IDOCK:   -0.12 KCAL/MOL
REMARK 927      BINDING AFFINITY PREDICTED BY RF-SCORE:    0.00 PKD
ROOT
HETATM    1  O   UNL     1      -8.787   8.100  69.418  1.00  0.00    -0.141 OA 
HETATM    2  C   UNL     1      -9.308   8.692  70.611  1.00  0.00    -0.185 C  
HETATM    3  H   UNL     1      -7.885   7.857  69.589  1.00  0.00     0.000 HD 
HETATM    4  O   UNL     1     -11.678   8.096  70.500  1.00  0.00    -0.201 OA 
HETATM    5  C   UNL     1     -10.768   9.086  70.334  1.00  0.00    -0.227 C  
HETATM    6  O   UNL     1     -11.084  10.185  69.892  1.00  0.00    -0.254 OA 
ENDROOT
BRANCH   2   7
HETATM    7  C   UNL     1      -9.122   7.763  71.801  1.00  0.00    -0.171 A  
HETATM    8  C   UNL     1      -8.835   6.398  71.634  1.00  0.00    -0.136 A  
HETATM    9  C   UNL     1      -8.649   5.565  72.740  1.00  0.00    -0.120 A  
HETATM   10  C   UNL     1      -8.745   6.082  74.028  1.00  0.00    -0.119 A  
HETATM   11  C   UNL     1      -9.020   7.434  74.214  1.00  0.00    -0.242 A  
HETATM   12  C   UNL     1      -9.200   8.271  73.110  1.00  0.00    -0.293 A  
ENDBRANCH   2   7
TORSDOF 1
ENDMDL
MODEL      161
REMARK 921   NORMALIZED FREE ENERGY PREDICTED BY IDOCK:   -2.03 KCAL/MOL
REMARK 922        TOTAL FREE ENERGY PREDICTED BY IDOCK:   -2.18 KCAL/MOL
REMARK 923 INTER-LIGAND FREE ENERGY PREDICTED BY IDOCK:   -2.37 KCAL/MOL
REMARK 924 INTRA-LIGAND FREE ENERGY PREDICTED BY IDOCK:    0.19 KCAL/MOL
REMARK 927      BINDING AFFINITY PREDICTED BY RF-SCORE:    0.00 PKD
ROOT
HETATM    1  O   UNL     1      -9.132   7.345  74.564  1.00  0.00    -0.408 OA 
HETATM    2  C   UNL     1      -8.816   7.964  73.314  1.00  0.00    -0.250 C  
HETATM    3  H   UNL     1      -9.963   7.701  74.857  1.00  0.00     0.000 HD 
HETATM    4  O   UNL     1      -7.546   6.213  72.170  1.00  0.00    -0.094 OA 
HETATM    5  C   UNL     1      -7.472   7.390  72.839  1.00  0.00    -0.077 C  
HETATM    6  O   UNL     1      -6.395   7.897  73.132  1.00  0.00    -0.062 OA 
ENDROOT
BRANCH   2   7
HETATM    7  C   UNL     1      -9.957   7.793  72.322  1.00  0.00    -0.259 A  
HETATM    8  C   UNL     1     -11.278   7.573  72.748  1.00  0.00    -0.403 A  
HETATM    9  C   UNL     1     -12.315   7.437  71.822  1.00  0.00    -0.365 A  
HETATM   10  C   UNL     1     -12.050   7.523  70.458  1.00  0.00    -0.030 A  
HETATM   11  C   UNL     1     -10.749   7.750  70.018  1.00  0.00    -0.245 A  
HETATM   12  C   UNL     1      -9.711   7.892  70.942  1.00  0.00    -0.177 A  
ENDBRANCH   2   7
TORSDOF 1
ENDMDL
MODEL      162
REMARK 921   NORMALIZED FREE ENERGY PREDICTED BY IDOCK:   -1.86 KCAL/MOL
REMARK 922        TOTAL FREE ENERGY PREDICTED BY IDOCK:   -2.01 KCAL/MOL
REMARK 923 INTER-LIGAND FREE ENERGY PREDICTED BY IDOCK:   -1.88 KCAL/MOL
REMARK 924 INTRA-LIGAND FREE ENERGY PREDICTED BY IDOCK:   -0.13 KCAL/MOL
REMARK 927      BINDING AFFINITY PREDICTED BY RF-SCORE:    0.00 PKD
ROOT
HETATM    1  O   UNL     1      -9.159   8.043  68.994  1.00  0.00    -0.144 OA 
HETATM    2  C   UNL     1      -9.397   6.641  68.843  1.00  0.00    -0.128 C  
HETATM    3  H   UNL     1      -8.221   8.166  69.084  1.00  0.00     0.000 HD 
HETATM    4  O   UNL     1     -11.405   6.598  67.444  1.00  0.00    -0.299 OA 
HETATM    5  C   UNL     1     -10.915   6.441  68.699  1.00  0.00    -0.330 C  
HETATM    6  O   UNL     1     -11.653   6.258  69.660  1.00  0.00    -0.430 OA 
ENDROOT
BRANCH   2   7
HETATM    7  C   UNL     1      -8.577   6.073  67.695  1.00  0.00    -0.106 A  
HETATM    8  C   UNL     1      -7.941   6.906  66.759  1.00  0.00    -0.108 A  
HETATM    9  C   UNL     1      -7.176   6.366  65.723  1.00  0.00    -0.078 A  
HETATM   10  C   UNL     1      -7.032   4.987  65.607  1.00  0.00    -0.063 A  
HETATM   11  C   UNL     1      -7.647   4.145  66.530  1.00  0.00    -0.089 A  
HETATM   12  C   UNL     1      -8.407   4.683  67.571  1.00  0.00    -0.104 A  
ENDBRANCH   2   7
TORSDOF 1
ENDMDL
MODEL      163
REMARK 921   NORMALIZED FREE ENERGY PREDICTED BY IDOCK:   -1.84 KCAL/MOL
REMARK 922        TOTAL FREE ENERGY PREDICTED BY IDOCK:   -1.99 KCAL/MOL
REMARK 923 INTER-LIGAND FREE ENERGY PREDICTED BY IDOCK:   -1.90 KCAL/MOL
REMARK 924 INTRA-LIGAND FREE ENERGY PREDICTED BY IDOCK:   -0.08 KCAL/MOL
REMARK 927      BINDING AFFINITY PREDICTED BY RF-SCORE:    0.00 PKD
ROOT
HETATM    1  O   UNL     1     -10.918   8.535  67.035  1.00  0.00    -0.352 OA 
HETATM    2  C   UNL     1     -10.042   7.549  67.587  1.00  0.00    -0.187 C  
HETATM    3  H   UNL     1     -11.609   8.692  67.669  1.00  0.00     0.000 HD 
HETATM    4  O   UNL     1      -7.884   8.160  66.609  1.00  0.00    -0.092 OA 
HETATM    5  C   UNL     1      -8.926   7.294  66.561  1.00  0.00    -0.152 C  
HETATM    6  O   UNL     1      -9.012   6.438  65.688  1.00  0.00    -0.117 OA 
ENDROOT
BRANCH   2   7
HETATM    7  C   UNL     1      -9.548   7.973  68.961  1.00  0.00    -0.156 A  
HETATM    8  C   UNL     1      -9.502   9.324  69.345  1.00  0.00    -0.169 A  
HETATM    9  C   UNL     1      -9.062   9.692  70.619  1.00  0.00    -0.126 A  
HETATM   10  C   UNL     1      -8.665   8.717  71.529  1.00  0.00    -0.274 A  
HETATM   11  C   UNL     1      -8.711   7.373  71.170  1.00  0.00    -0.137 A  
HETATM   12  C   UNL     1      -9.157   7.002  69.899  1.00  0.00    -0.141 A  
ENDBRANCH   2   7
TORSDOF 1
ENDMDL
MODEL      164
REMARK 921   NORMALIZED FREE ENERGY PREDICTED BY IDOCK:   -1.79 KCAL/MOL
REMARK 922        TOTAL FREE ENERGY PREDICTED BY IDOCK:   -1.92 KCAL/MOL
REMARK 923 INTER-LIGAND FREE ENERGY PREDICTED BY IDOCK:   -1.83 KCAL/MOL
REMARK 924 INTRA-LIGAND FREE ENERGY PREDICTED BY IDOCK:   -0.10 KCAL/MOL
REMARK 927      BINDING AFFINITY PREDICTED BY RF-SCORE:    0.00 PKD
ROOT
HETATM    1  O   UNL     1      -7.455  15.058  69.544  1.00  0.00    -0.189 OA 
HETATM    2  C   UNL     1      -8.817  15.303  69.184  1.00  0.00    -0.238 C  
HETATM    3  H   UNL     1      -7.457  14.526  70.330  1.00  0.00     0.000 HD 
HETATM    4  O   UNL     1      -8.690  15.482  66.746  1.00  0.00    -0.223 OA 
HETATM    5  C   UNL     1      -8.812  16.165  67.911  1.00  0.00    -0.182 C  
HETATM    6  O   UNL     1      -8.812  17.391  67.942  1.00  0.00    -0.229 OA 
ENDROOT
BRANCH   2   7
HETATM    7  C   UNL     1      -9.585  13.996  69.054  1.00  0.00     0.081 A  
HETATM    8  C   UNL     1      -8.930  12.775  68.820  1.00  0.00     0.169 A  
HETATM    9  C   UNL     1      -9.652  11.583  68.723  1.00  0.00    -0.112 A  
HETATM   10  C   UNL     1     -11.036  11.591  68.862  1.00  0.00    -0.288 A  
HETATM   11  C   UNL     1     -11.702  12.790  69.103  1.00  0.00    -0.375 A  
HETATM   12  C   UNL     1     -10.982  13.983  69.207  1.00  0.00    -0.242 A  
ENDBRANCH   2   7
TORSDOF 1
ENDMDL
MODEL      165
REMARK 921   NORMALIZED FREE ENERGY PREDICTED BY IDOCK:   -1.77 KCAL/MOL
REMARK 922        TOTAL FREE ENERGY PREDICTED BY IDOCK:   -1.91 KCAL/MOL
REMARK 923 INTER-LIGAND FREE ENERGY PREDICTED BY IDOCK:   -1.79 KCAL/MOL
REMARK 924 INTRA-LIGAND FREE ENERGY PREDICTED BY IDOCK:   -0.12 KCAL/MOL
REMARK 927      BINDING AFFINITY PREDICTED BY RF-SCORE:    0.00 PKD
ROOT
HETATM    1  O   UNL     1     -11.125   5.910  70.810  1.00  0.00    -0.293 OA 
HETATM    2  C   UNL     1     -10.473   7.132  71.166  1.00  0.00    -0.210 C  
HETATM    3  H   UNL     1     -10.992   5.776  69.878  1.00  0.00     0.000 HD 
HETATM    4  O   UNL     1      -9.808   6.714  73.484  1.00  0.00    -0.171 OA 
HETATM    5  C   UNL     1     -10.689   7.350  72.673  1.00  0.00    -0.288 C  
HETATM    6  O   UNL     1     -11.649   7.966  73.122  1.00  0.00    -0.292 OA 
ENDROOT
BRANCH   2   7
HETATM    7  C   UNL     1      -9.014   7.112  70.737  1.00  0.00    -0.152 A  
HETATM    8  C   UNL     1      -8.354   5.913  70.421  1.00  0.00    -0.123 A  
HETATM    9  C   UNL     1      -7.019   5.917  70.011  1.00  0.00    -0.066 A  
HETATM   10  C   UNL     1      -6.324   7.118  69.906  1.00  0.00    -0.035 A  
HETATM   11  C   UNL     1      -6.964   8.318  70.205  1.00  0.00    -0.036 A  
HETATM   12  C   UNL     1      -8.301   8.317  70.610  1.00  0.00    -0.121 A  
ENDBRANCH   2   7
TORSDOF 1
ENDMDL
MODEL      166
REMARK 921   NORMALIZED FREE ENERGY PREDICTED BY IDOCK:   -1.70 KCAL/MOL
REMARK 922        TOTAL FREE ENERGY PREDICTED BY IDOCK:   -1.83 KCAL/MOL
REMARK 923 INTER-LIGAND FREE ENERGY PREDICTED BY IDOCK:   -1.71 KCAL/MOL
REMARK 924 INTRA-LIGAND FREE ENERGY PREDICTED BY IDOCK:   -0.13 KCAL/MOL
REMARK 927      BINDING AFFINITY PREDICTED BY RF-SCORE:    0.00 PKD
ROOT
HETATM    1  O   UNL     1     -10.344   7.478  66.459  1.00  0.00    -0.474 OA 
HETATM    2  C   UNL     1      -8.958   7.177  66.277  1.00  0.00    -0.155 C  
HETATM    3  H   UNL     1     -10.782   7.325  65.630  1.00  0.00     0.000 HD 
HETATM    4  O   UNL     1      -8.294   6.395  68.498  1.00  0.00    -0.112 OA 
HETATM    5  C   UNL     1      -8.249   7.425  67.618  1.00  0.00    -0.118 C  
HETATM    6  O   UNL     1      -7.766   8.511  67.921  1.00  0.00    -0.100 OA 
ENDROOT
BRANCH   2   7
HETATM    7  C   UNL     1      -8.777   5.773  65.721  1.00  0.00    -0.152 A  
HETATM    8  C   UNL     1      -9.819   4.830  65.744  1.00  0.00    -0.214 A  
HETATM    9  C   UNL     1      -9.640   3.551  65.212  1.00  0.00    -0.140 A  
HETATM   10  C   UNL     1      -8.420   3.196  64.645  1.00  0.00    -0.094 A  
HETATM   11  C   UNL     1      -7.378   4.119  64.604  1.00  0.00    -0.071 A  
HETATM   12  C   UNL     1      -7.557   5.401  65.130  1.00  0.00    -0.079 A  
ENDBRANCH   2   7
TORSDOF 1
ENDMDL
MODEL      167
REMARK 921   NORMALIZED FREE ENERGY PREDICTED BY IDOCK:   -1.66 KCAL/MOL
REMARK 922        TOTAL FREE ENERGY PREDICTED BY IDOCK:   -1.79 KCAL/MOL
REMARK 923 INTER-LIGAND FREE ENERGY PREDICTED BY IDOCK:   -1.70 KCAL/MOL
REMARK 924 INTRA-LIGAND FREE ENERGY PREDICTED BY IDOCK:   -0.09 KCAL/MOL
REMARK 927      BINDING AFFINITY PREDICTED BY RF-SCORE:    0.00 PKD
ROOT
HETATM    1  O   UNL     1      -9.433   7.180  67.962  1.00  0.00    -0.131 OA 
HETATM    2  C   UNL     1      -8.283   7.994  67.718  1.00  0.00    -0.129 C  
HETATM    3  H   UNL     1     -10.046   7.696  68.474  1.00  0.00     0.000 HD 
HETATM    4  O   UNL     1      -7.505   7.162  65.552  1.00  0.00    -0.076 OA 
HETATM    5  C   UNL     1      -7.292   7.160  66.891  1.00  0.00    -0.088 C  
HETATM    6  O   UNL     1      -6.432   6.453  67.405  1.00  0.00    -0.045 OA 
ENDROOT
BRANCH   2   7
HETATM    7  C   UNL     1      -8.682   9.314  67.075  1.00  0.00    -0.131 A  
HETATM    8  C   UNL     1      -7.849  10.445  67.134  1.00  0.00    -0.110 A  
HETATM    9  C   UNL     1      -8.224  11.643  66.522  1.00  0.00    -0.101 A  
HETATM   10  C   UNL     1      -9.433  11.729  65.838  1.00  0.00    -0.239 A  
HETATM   11  C   UNL     1     -10.267  10.617  65.760  1.00  0.00    -0.317 A  
HETATM   12  C   UNL     1      -9.892   9.416  66.367  1.00  0.00    -0.337 A  
ENDBRANCH   2   7
TORSDOF 1
ENDMDL
MODEL      168
REMARK 921   NORMALIZED FREE ENERGY PREDICTED BY IDOCK:   -1.64 KCAL/MOL
REMARK 922        TOTAL FREE ENERGY PREDICTED BY IDOCK:   -1.77 KCAL/MOL
REMARK 923 INTER-LIGAND FREE ENERGY PREDICTED BY IDOCK:   -2.37 KCAL/MOL
REMARK 924 INTRA-LIGAND FREE ENERGY PREDICTED BY IDOCK:    0.60 KCAL/MOL
REMARK 927      BINDING AFFINITY PREDICTED BY RF-SCORE:    0.00 PKD
ROOT
HETATM    1  O   UNL     1      -6.656  18.476  67.891  1.00  0.00    -0.205 OA 
HETATM    2  C   UNL     1      -7.835  17.755  68.259  1.00  0.00    -0.279 C  
HETATM    3  H   UNL     1      -5.942  18.149  68.426  1.00  0.00     0.000 HD 
HETATM    4  O   UNL     1      -9.102  17.722  66.165  1.00  0.00    -0.457 OA 
HETATM    5  C   UNL     1      -8.990  18.284  67.394  1.00  0.00    -0.257 C  
HETATM    6  O   UNL     1      -9.700  19.223  67.740  1.00  0.00    -0.302 OA 
ENDROOT
BRANCH   2   7
HETATM    7  C   UNL     1      -7.607  16.255  68.152  1.00  0.00    -0.151 A  
HETATM    8  C   UNL     1      -8.462  15.430  67.402  1.00  0.00    -0.200 A  
HETATM    9  C   UNL     1      -8.225  14.057  67.301  1.00  0.00    -0.187 A  
HETATM   10  C   UNL     1      -7.130  13.488  67.943  1.00  0.00    -0.140 A  
HETATM   11  C   UNL     1      -6.266  14.290  68.684  1.00  0.00    -0.088 A  
HETATM   12  C   UNL     1      -6.497  15.664  68.782  1.00  0.00    -0.109 A  
ENDBRANCH   2   7
TORSDOF 1
ENDMDL
MODEL      169
REMARK 921   NORMALIZED FREE ENERGY PREDICTED BY IDOCK:   -1.42 KCAL/MOL
REMARK 922        TOTAL FREE ENERGY PREDICTED BY IDOCK:   -1.54 KCAL/MOL
REMARK 923 INTER-LIGAND FREE ENERGY PREDICTED BY IDOCK:   -1.67 KCAL/MOL
REMARK 924 INTRA-LIGAND FREE ENERGY PREDICTED BY IDOCK:    0.13 KCAL/MOL
REMARK 927      BINDING AFFINITY PREDICTED BY RF-SCORE:    0.00 PKD
ROOT
HETATM    1  O   UNL     1     -11.327   7.500  71.850  1.00  0.00    -0.247 OA 
HETATM    2  C   UNL     1     -10.080   6.866  72.146  1.00  0.00    -0.181 C  
HETATM    3  H   UNL     1     -11.809   6.926  71.266  1.00  0.00     0.000 HD 
HETATM    4  O   UNL     1      -9.604   7.676  74.406  1.00  0.00     0.068 OA 
HETATM    5  C   UNL     1      -9.300   7.795  73.090  1.00  0.00    -0.255 C  
HETATM    6  O   UNL     1      -8.532   8.660  72.682  1.00  0.00    -0.378 OA 
ENDROOT
BRANCH   2   7
HETATM    7  C   UNL     1     -10.303   5.462  72.689  1.00  0.00    -0.246 A  
HETATM    8  C   UNL     1     -11.282   5.193  73.660  1.00  0.00    -0.198 A  
HETATM    9  C   UNL     1     -11.484   3.894  74.133  1.00  0.00     0.463 A  
HETATM   10  C   UNL     1     -10.715   2.844  73.640  1.00  0.00    -0.293 A  
HETATM   11  C   UNL     1      -9.746   3.090  72.670  1.00  0.00    -0.194 A  
HETATM   12  C   UNL     1      -9.546   4.387  72.192  1.00  0.00    -0.206 A  
ENDBRANCH   2   7
TORSDOF 1
ENDMDL
MODEL      170
REMARK 921   NORMALIZED FREE ENERGY PREDICTED BY IDOCK:   -1.32 KCAL/MOL
REMARK 922        TOTAL FREE ENERGY PREDICTED BY IDOCK:   -1.43 KCAL/MOL
REMARK 923 INTER-LIGAND FREE ENERGY PREDICTED BY IDOCK:   -1.46 KCAL/MOL
REMARK 924 INTRA-LIGAND FREE ENERGY PREDICTED BY IDOCK:    0.03 KCAL/MOL
REMARK 927      BINDING AFFINITY PREDICTED BY RF-SCORE:    0.00 PKD
ROOT
HETATM    1  O   UNL     1      -9.118   4.788  68.352  1.00  0.00    -0.108 OA 
HETATM    2  C   UNL     1      -8.009   5.514  68.887  1.00  0.00    -0.095 C  
HETATM    3  H   UNL     1      -9.708   4.594  69.071  1.00  0.00     0.000 HD 
HETATM    4  O   UNL     1      -7.357   6.937  67.007  1.00  0.00    -0.082 OA 
HETATM    5  C   UNL     1      -7.054   5.827  67.724  1.00  0.00    -0.071 C  
HETATM    6  O   UNL     1      -6.144   5.076  67.393  1.00  0.00    -0.028 OA 
ENDROOT
BRANCH   2   7
HETATM    7  C   UNL     1      -8.483   6.736  69.658  1.00  0.00    -0.133 A  
HETATM    8  C   UNL     1      -9.593   7.489  69.237  1.00  0.00    -0.158 A  
HETATM    9  C   UNL     1     -10.025   8.598  69.968  1.00  0.00    -0.191 A  
HETATM   10  C   UNL     1      -9.358   8.970  71.132  1.00  0.00    -0.336 A  
HETATM   11  C   UNL     1      -8.262   8.231  71.570  1.00  0.00    -0.164 A  
HETATM   12  C   UNL     1      -7.832   7.118  70.844  1.00  0.00    -0.095 A  
ENDBRANCH   2   7
TORSDOF 1
ENDMDL
MODEL      171
REMARK 921   NORMALIZED FREE ENERGY PREDICTED BY IDOCK:   -1.30 KCAL/MOL
REMARK 922        TOTAL FREE ENERGY PREDICTED BY IDOCK:   -1.42 KCAL/MOL
REMARK 923 INTER-LIGAND FREE ENERGY PREDICTED BY IDOCK:   -1.29 KCAL/MOL
REMARK 924 INTRA-LIGAND FREE ENERGY PREDICTED BY IDOCK:   -0.12 KCAL/MOL
REMARK 927      BINDING AFFINITY PREDICTED BY RF-SCORE:    0.00 PKD
ROOT
HETATM    1  O   UNL     1      -9.754   7.317  67.339  1.00  0.00    -0.138 OA 
HETATM    2  C   UNL     1      -9.501   5.920  67.515  1.00  0.00    -0.110 C  
HETATM    3  H   UNL     1     -10.329   7.594  68.043  1.00  0.00     0.000 HD 
HETATM    4  O   UNL     1      -7.248   5.676  66.591  1.00  0.00    -0.071 OA 
HETATM    5  C   UNL     1      -8.571   5.471  66.376  1.00  0.00    -0.121 C  
HETATM    6  O   UNL     1      -8.992   5.054  65.303  1.00  0.00    -0.151 OA 
ENDROOT
BRANCH   2   7
HETATM    7  C   UNL     1      -8.967   5.638  68.911  1.00  0.00    -0.115 A  
HETATM    8  C   UNL     1      -8.887   4.331  69.420  1.00  0.00    -0.138 A  
HETATM    9  C   UNL     1      -8.376   4.090  70.697  1.00  0.00    -0.088 A  
HETATM   10  C   UNL     1      -7.934   5.150  71.484  1.00  0.00    -0.113 A  
HETATM   11  C   UNL     1      -7.997   6.451  70.993  1.00  0.00    -0.115 A  
HETATM   12  C   UNL     1      -8.501   6.694  69.713  1.00  0.00    -0.132 A  
ENDBRANCH   2   7
TORSDOF 1
ENDMDL
MODEL      172
REMARK 921   NORMALIZED FREE ENERGY PREDICTED BY IDOCK:   -1.30 KCAL/MOL
REMARK 922        TOTAL FREE ENERGY PREDICTED BY IDOCK:   -1.41 KCAL/MOL
REMARK 923 INTER-LIGAND FREE ENERGY PREDICTED BY IDOCK:   -1.90 KCAL/MOL
REMARK 924 INTRA-LIGAND FREE ENERGY PREDICTED BY IDOCK:    0.49 KCAL/MOL
REMARK 927      BINDING AFFINITY PREDICTED BY RF-SCORE:    0.00 PKD
ROOT
HETATM    1  O   UNL     1     -11.146   7.677  67.272  1.00  0.00    -0.538 OA 
HETATM    2  C   UNL     1     -10.018   8.312  67.880  1.00  0.00    -0.183 C  
HETATM    3  H   UNL     1     -10.893   7.424  66.392  1.00  0.00     0.000 HD 
HETATM    4  O   UNL     1     -10.312   7.750  70.243  1.00  0.00    -0.207 OA 
HETATM    5  C   UNL     1     -10.428   8.721  69.304  1.00  0.00    -0.219 C  
HETATM    6  O   UNL     1     -10.926   9.811  69.562  1.00  0.00    -0.232 OA 
ENDROOT
BRANCH   2   7
HETATM    7  C   UNL     1      -8.791   7.416  67.812  1.00  0.00    -0.128 A  
HETATM    8  C   UNL     1      -8.696   6.235  68.569  1.00  0.00    -0.112 A  
HETATM    9  C   UNL     1      -7.569   5.416  68.478  1.00  0.00    -0.083 A  
HETATM   10  C   UNL     1      -6.521   5.760  67.630  1.00  0.00    -0.047 A  
HETATM   11  C   UNL     1      -6.601   6.921  66.865  1.00  0.00    -0.047 A  
HETATM   12  C   UNL     1      -7.730   7.739  66.949  1.00  0.00    -0.103 A  
ENDBRANCH   2   7
TORSDOF 1
ENDMDL
MODEL      173
REMARK 921   NORMALIZED FREE ENERGY PREDICTED BY IDOCK:   -1.12 KCAL/MOL
REMARK 922        TOTAL FREE ENERGY PREDICTED BY IDOCK:   -1.22 KCAL/MOL
REMARK 923 INTER-LIGAND FREE ENERGY PREDICTED BY IDOCK:   -1.10 KCAL/MOL
REMARK 924 INTRA-LIGAND FREE ENERGY PREDICTED BY IDOCK:   -0.13 KCAL/MOL
REMARK 927      BINDING AFFINITY PREDICTED BY RF-SCORE:    0.00 PKD
ROOT
HETATM    1  O   UNL     1      -9.684   6.702  69.088  1.00  0.00    -0.145 OA 
HETATM    2  C   UNL     1      -8.312   7.081  69.216  1.00  0.00    -0.129 C  
HETATM    3  H   UNL     1     -10.208   7.382  69.496  1.00  0.00     0.000 HD 
HETATM    4  O   UNL     1      -7.307   6.093  67.215  1.00  0.00    -0.074 OA 
HETATM    5  C   UNL     1      -7.463   5.981  68.557  1.00  0.00    -0.087 C  
HETATM    6  O   UNL     1      -7.044   5.009  69.176  1.00  0.00    -0.054 OA 
ENDROOT
BRANCH   2   7
HETATM    7  C   UNL     1      -8.080   8.474  68.652  1.00  0.00    -0.121 A  
HETATM    8  C   UNL     1      -9.063   9.138  67.898  1.00  0.00    -0.134 A  
HETATM    9  C   UNL     1      -8.838  10.426  67.405  1.00  0.00    -0.133 A  
HETATM   10  C   UNL     1      -7.632  11.071  67.660  1.00  0.00    -0.104 A  
HETATM   11  C   UNL     1      -6.650  10.433  68.413  1.00  0.00    -0.059 A  
HETATM   12  C   UNL     1      -6.874   9.148  68.913  1.00  0.00    -0.056 A  
ENDBRANCH   2   7
TORSDOF 1
ENDMDL
MODEL      174
REMARK 921   NORMALIZED FREE ENERGY PREDICTED BY IDOCK:   19.14 KCAL/MOL
REMARK 922        TOTAL FREE ENERGY PREDICTED BY IDOCK:   20.23 KCAL/MOL
REMARK 923 INTER-LIGAND FREE ENERGY PREDICTED BY IDOCK:   20.31 KCAL/MOL
REMARK 924 INTRA-LIGAND FREE ENERGY PREDICTED BY IDOCK:   -0.09 KCAL/MOL
REMARK 927      BINDING AFFINITY PREDICTED BY RF-SCORE:    0.00 PKD
ROOT
HETATM    1  O   UNL     1     -10.430  15.346  62.941  1.00  0.00     5.050 OA 
HETATM    2  C   UNL     1     -10.816  14.124  63.575  1.00  0.00     1.929 C  
HETATM    3  H   UNL     1     -11.224  15.793  62.672  1.00  0.00     0.000 HD 
HETATM    4  O   UNL     1      -9.020  13.789  65.203  1.00  0.00     1.126 OA 
HETATM    5  C   UNL     1      -9.531  13.400  64.009  1.00  0.00     2.095 C  
HETATM    6  O   UNL     1      -8.943  12.604  63.286  1.00  0.00     0.997 OA 
ENDROOT
BRANCH   2   7
HETATM    7  C   UNL     1     -11.800  14.388  64.704  1.00  0.00    -0.460 A  
HETATM    8  C   UNL     1     -12.211  15.691  65.036  1.00  0.00     0.490 A  
HETATM    9  C   UNL     1     -13.130  15.912  66.064  1.00  0.00     3.649 A  
HETATM   10  C   UNL     1     -13.655  14.836  66.774  1.00  0.00     4.546 A  
HETATM   11  C   UNL     1     -13.267  13.538  66.455  1.00  0.00     1.422 A  
HETATM   12  C   UNL     1     -12.353  13.314  65.423  1.00  0.00    -0.528 A  
ENDBRANCH   2   7
TORSDOF 1
ENDMDL
