MODEL        1
REMARK 921   NORMALIZED FREE ENERGY PREDICTED BY IDOCK:   -7.15 KCAL/MOL
REMARK 922        TOTAL FREE ENERGY PREDICTED BY IDOCK:  -12.17 KCAL/MOL
REMARK 923 INTER-LIGAND FREE ENERGY PREDICTED BY IDOCK:  -10.50 KCAL/MOL
REMARK 924 INTRA-LIGAND FREE ENERGY PREDICTED BY IDOCK:   -1.68 KCAL/MOL
REMARK 927      BINDING AFFINITY PREDICTED BY RF-SCORE:    0.00 PKD
ROOT
HETATM    1 MN   UNL     1     -10.353  11.599  65.194  1.00  0.00    -0.224 Mn 
HETATM    2  C   UNL     2     -11.041   6.518  71.005  1.00  0.00    -0.288 C  
HETATM    3  C   UNL     3     -11.813  13.524  64.271  1.00  0.00    -0.428 C  
HETATM    4  H   UNL     3     -11.989  14.880  62.893  1.00  0.00     0.000 HD 
HETATM    5  H   UNL     2     -11.037   6.501  69.092  1.00  0.00     0.000 HD 
HETATM    6  O   UNL     2     -11.006   5.831  69.765  1.00  0.00    -0.357 OA 
HETATM    7  O   UNL     3     -12.578  14.307  63.369  1.00  0.00    -0.777 OA 
ENDROOT
BRANCH   2   8
HETATM    8  C   UNL     2     -10.989   5.430  72.097  1.00  0.00    -0.201 C  
HETATM    9  H   UNL     2     -10.059   3.720  72.461  1.00  0.00     0.000 HD 
HETATM   10  O   UNL     2     -10.091   4.390  71.788  1.00  0.00    -0.182 OA 
ENDBRANCH   2   8
BRANCH   2  11
HETATM   11  C   UNL     2     -12.319   7.446  71.035  1.00  0.00    -0.268 C  
HETATM   12  H   UNL     2     -14.175   7.364  71.703  1.00  0.00     0.000 HD 
HETATM   13  O   UNL     2     -13.407   6.806  71.684  1.00  0.00    -0.293 OA 
BRANCH  11  14
HETATM   14  C   UNL     2     -12.137   8.842  71.717  1.00  0.00    -0.350 C  
HETATM   15  H   UNL     2     -12.664   9.638  73.386  1.00  0.00     0.000 HD 
HETATM   16  O   UNL     2     -12.774   8.791  72.971  1.00  0.00    -0.249 OA 
BRANCH  14  17
HETATM   17  C   UNL     2     -12.708  10.047  70.934  1.00  0.00    -0.325 C  
HETATM   18  C   UNL     2     -11.655  10.677  70.039  1.00  0.00    -0.325 C  
HETATM   19  H   UNL     2     -13.520  11.755  71.360  1.00  0.00     0.000 HD 
HETATM   20  O   UNL     2     -13.169  11.015  71.841  1.00  0.00    -0.473 OA 
HETATM   21  O   UNL     2     -11.982  11.714  69.249  1.00  0.00    -0.320 OA 
HETATM   22  O   UNL     2     -10.518  10.213  69.960  1.00  0.00    -0.264 OA 
ENDBRANCH  14  17
ENDBRANCH  11  14
ENDBRANCH   2  11
BRANCH   3  23
HETATM   23  C   UNL     3     -10.932  14.556  65.082  1.00  0.00    -0.379 C  
HETATM   24  O   UNL     3      -9.662  14.493  64.475  1.00  0.00    -0.468 OA 
HETATM   25  H   UNL     3      -9.133  15.113  64.962  1.00  0.00     0.000 HD 
BRANCH  23  26
HETATM   26  C   UNL     3     -11.182  16.102  65.393  1.00  0.00    -0.006 C  
HETATM   27  O   UNL     3     -11.206  16.708  64.124  1.00  0.00    -1.410 OA 
HETATM   28  H   UNL     3     -11.355  17.628  64.308  1.00  0.00     0.000 HD 
BRANCH  26  29
HETATM   29  C   UNL     3     -10.241  17.071  66.261  1.00  0.00    -0.329 C  
HETATM   30  C   UNL     3     -10.623  18.508  66.481  1.00  0.00    -0.334 C  
HETATM   31  O   UNL     3      -8.932  17.119  65.734  1.00  0.00    -0.523 OA 
HETATM   32  O   UNL     3     -10.670  19.366  65.447  1.00  0.00    -0.468 OA 
HETATM   33  O   UNL     3     -10.738  18.935  67.619  1.00  0.00    -0.432 OA 
HETATM   34  H   UNL     3      -8.375  17.693  66.248  1.00  0.00     0.000 HD 
ENDBRANCH  26  29
ENDBRANCH  23  26
ENDBRANCH   3  23
BRANCH   3  35
HETATM   35  C   UNL     3     -12.785  12.579  65.058  1.00  0.00    -0.219 C  
HETATM   36  O   UNL     3     -12.264  12.189  66.294  1.00  0.00    -0.604 OA 
HETATM   37  H   UNL     3     -12.853  11.615  66.771  1.00  0.00     0.000 HD 
ENDBRANCH   3  35
TORSDOF 8
ENDMDL
MODEL        2
REMARK 921   NORMALIZED FREE ENERGY PREDICTED BY IDOCK:   -6.73 KCAL/MOL
REMARK 922        TOTAL FREE ENERGY PREDICTED BY IDOCK:  -11.55 KCAL/MOL
REMARK 923 INTER-LIGAND FREE ENERGY PREDICTED BY IDOCK:   -9.31 KCAL/MOL
REMARK 924 INTRA-LIGAND FREE ENERGY PREDICTED BY IDOCK:   -2.24 KCAL/MOL
REMARK 927      BINDING AFFINITY PREDICTED BY RF-SCORE:    0.00 PKD
ROOT
HETATM    1 MN   UNL     1      -7.594  17.505  68.234  1.00  0.00    -0.183 Mn 
HETATM    2  C   UNL     2      -9.569  10.206  66.537  1.00  0.00    -0.187 C  
HETATM    3  C   UNL     3      -6.951  19.591  66.845  1.00  0.00    -0.198 C  
HETATM    4  H   UNL     3      -6.374  21.444  66.914  1.00  0.00     0.000 HD 
HETATM    5  H   UNL     2      -8.111  11.131  67.359  1.00  0.00     0.000 HD 
HETATM    6  O   UNL     2      -8.362  10.219  67.281  1.00  0.00    -0.121 OA 
HETATM    7  O   UNL     3      -6.204  20.692  66.357  1.00  0.00    -0.201 OA 
ENDROOT
BRANCH   2   8
HETATM    8  C   UNL     2      -9.977   8.724  66.411  1.00  0.00    -0.275 C  
HETATM    9  H   UNL     2     -10.676   7.263  67.551  1.00  0.00     0.000 HD 
HETATM   10  O   UNL     2     -10.424   8.176  67.629  1.00  0.00    -0.234 OA 
ENDBRANCH   2   8
BRANCH   2  11
HETATM   11  C   UNL     2      -9.331  10.961  65.170  1.00  0.00    -0.218 C  
HETATM   12  H   UNL     2      -8.591  10.561  63.384  1.00  0.00     0.000 HD 
HETATM   13  O   UNL     2      -8.734  10.107  64.206  1.00  0.00    -0.174 OA 
BRANCH  11  14
HETATM   14  C   UNL     2     -10.600  11.586  64.502  1.00  0.00    -0.329 C  
HETATM   15  H   UNL     2     -11.043  12.277  62.764  1.00  0.00     0.000 HD 
HETATM   16  O   UNL     2     -10.272  11.897  63.169  1.00  0.00    -0.415 OA 
BRANCH  14  17
HETATM   17  C   UNL     2     -11.146  12.867  65.176  1.00  0.00    -0.292 C  
HETATM   18  C   UNL     2     -12.629  13.050  64.904  1.00  0.00    -0.428 C  
HETATM   19  H   UNL     2     -10.788  14.771  65.095  1.00  0.00     0.000 HD 
HETATM   20  O   UNL     2     -10.453  13.985  64.682  1.00  0.00    -0.434 OA 
HETATM   21  O   UNL     2     -13.286  14.089  65.446  1.00  0.00    -0.761 OA 
HETATM   22  O   UNL     2     -13.268  12.224  64.254  1.00  0.00    -0.785 OA 
ENDBRANCH  14  17
ENDBRANCH  11  14
ENDBRANCH   2  11
BRANCH   3  23
HETATM   23  C   UNL     3      -8.436  20.117  66.983  1.00  0.00    -0.335 C  
HETATM   24  O   UNL     3      -8.855  20.348  65.658  1.00  0.00    -0.486 OA 
HETATM   25  H   UNL     3      -9.747  20.664  65.741  1.00  0.00     0.000 HD 
BRANCH  23  26
HETATM   26  C   UNL     3      -9.692  19.468  67.723  1.00  0.00    -0.354 C  
HETATM   27  O   UNL     3      -9.174  19.019  68.951  1.00  0.00    -0.347 OA 
HETATM   28  H   UNL     3      -9.921  18.632  69.391  1.00  0.00     0.000 HD 
BRANCH  26  29
HETATM   29  C   UNL     3     -10.576  18.231  67.207  1.00  0.00    -0.381 C  
HETATM   30  C   UNL     3     -10.436  16.876  67.842  1.00  0.00    -0.344 C  
HETATM   31  O   UNL     3     -10.385  18.006  65.826  1.00  0.00    -0.583 OA 
HETATM   32  O   UNL     3      -9.285  16.188  67.733  1.00  0.00    -0.201 OA 
HETATM   33  O   UNL     3     -11.417  16.329  68.323  1.00  0.00    -0.333 OA 
HETATM   34  H   UNL     3     -10.908  17.274  65.521  1.00  0.00     0.000 HD 
ENDBRANCH  26  29
ENDBRANCH  23  26
ENDBRANCH   3  23
BRANCH   3  35
HETATM   35  C   UNL     3      -6.670  18.352  65.926  1.00  0.00    -0.277 C  
HETATM   36  O   UNL     3      -7.707  17.417  65.961  1.00  0.00    -0.434 OA 
HETATM   37  H   UNL     3      -7.537  16.666  65.404  1.00  0.00     0.000 HD 
ENDBRANCH   3  35
TORSDOF 8
ENDMDL
MODEL        3
REMARK 921   NORMALIZED FREE ENERGY PREDICTED BY IDOCK:   -6.61 KCAL/MOL
REMARK 922        TOTAL FREE ENERGY PREDICTED BY IDOCK:  -11.37 KCAL/MOL
REMARK 923 INTER-LIGAND FREE ENERGY PREDICTED BY IDOCK:   -9.53 KCAL/MOL
REMARK 924 INTRA-LIGAND FREE ENERGY PREDICTED BY IDOCK:   -1.84 KCAL/MOL
REMARK 927      BINDING AFFINITY PREDICTED BY RF-SCORE:    0.00 PKD
ROOT
HETATM    1 MN   UNL     1     -11.936  14.844  67.747  1.00  0.00    -0.302 Mn 
HETATM    2  C   UNL     2     -10.850   7.879  70.967  1.00  0.00    -0.235 C  
HETATM    3  C   UNL     3     -10.585  16.333  66.118  1.00  0.00    -0.267 C  
HETATM    4  H   UNL     3     -10.510  18.042  65.200  1.00  0.00     0.000 HD 
HETATM    5  H   UNL     2     -10.918   9.709  71.521  1.00  0.00     0.000 HD 
HETATM    6  O   UNL     2     -10.900   8.875  71.976  1.00  0.00    -0.349 OA 
HETATM    7  O   UNL     3      -9.883  17.450  65.599  1.00  0.00    -0.544 OA 
ENDROOT
BRANCH   2   8
HETATM    8  C   UNL     2     -10.822   6.526  71.704  1.00  0.00    -0.240 C  
HETATM    9  H   UNL     2     -12.065   5.321  72.666  1.00  0.00     0.000 HD 
HETATM   10  O   UNL     2     -12.082   6.155  72.212  1.00  0.00    -0.311 OA 
ENDBRANCH   2   8
BRANCH   2  11
HETATM   11  C   UNL     2      -9.609   8.167  70.031  1.00  0.00    -0.171 C  
HETATM   12  H   UNL     2      -8.324   7.136  68.943  1.00  0.00     0.000 HD 
HETATM   13  O   UNL     2      -9.070   6.963  69.506  1.00  0.00    -0.142 OA 
BRANCH  11  14
HETATM   14  C   UNL     2      -9.872   9.118  68.818  1.00  0.00    -0.167 C  
HETATM   15  H   UNL     2      -9.017   9.467  67.132  1.00  0.00     0.000 HD 
HETATM   16  O   UNL     2      -8.858   8.889  67.869  1.00  0.00    -0.132 OA 
BRANCH  14  17
HETATM   17  C   UNL     2      -9.893  10.629  69.148  1.00  0.00    -0.200 C  
HETATM   18  C   UNL     2     -10.925  11.366  68.312  1.00  0.00    -0.216 C  
HETATM   19  H   UNL     2      -8.639  12.107  69.093  1.00  0.00     0.000 HD 
HETATM   20  O   UNL     2      -8.626  11.179  68.890  1.00  0.00    -0.153 OA 
HETATM   21  O   UNL     2     -11.115  12.684  68.492  1.00  0.00    -0.237 OA 
HETATM   22  O   UNL     2     -11.652  10.769  67.519  1.00  0.00    -0.510 OA 
ENDBRANCH  14  17
ENDBRANCH  11  14
ENDBRANCH   2  11
BRANCH   3  23
HETATM   23  C   UNL     3     -11.479  15.805  64.925  1.00  0.00    -0.193 C  
HETATM   24  O   UNL     3     -11.367  16.798  63.932  1.00  0.00    -1.436 OA 
HETATM   25  H   UNL     3     -11.904  16.481  63.216  1.00  0.00     0.000 HD 
BRANCH  23  26
HETATM   26  C   UNL     3     -11.437  14.412  64.146  1.00  0.00    -0.088 C  
HETATM   27  O   UNL     3     -12.559  14.458  63.299  1.00  0.00    -1.043 OA 
HETATM   28  H   UNL     3     -12.535  13.630  62.836  1.00  0.00     0.000 HD 
BRANCH  26  29
HETATM   29  C   UNL     3     -11.509  12.947  64.797  1.00  0.00    -0.321 C  
HETATM   30  C   UNL     3     -11.502  11.723  63.924  1.00  0.00    -0.393 C  
HETATM   31  O   UNL     3     -12.653  12.804  65.612  1.00  0.00    -0.596 OA 
HETATM   32  O   UNL     3     -12.527  11.478  63.087  1.00  0.00    -0.326 OA 
HETATM   33  O   UNL     3     -10.644  10.870  64.085  1.00  0.00    -0.375 OA 
HETATM   34  H   UNL     3     -12.695  11.937  65.997  1.00  0.00     0.000 HD 
ENDBRANCH  26  29
ENDBRANCH  23  26
ENDBRANCH   3  23
BRANCH   3  35
HETATM   35  C   UNL     3      -9.550  15.356  66.776  1.00  0.00    -0.241 C  
HETATM   36  O   UNL     3      -8.246  15.578  66.326  1.00  0.00    -0.346 OA 
HETATM   37  H   UNL     3      -7.619  14.986  66.725  1.00  0.00     0.000 HD 
ENDBRANCH   3  35
TORSDOF 8
ENDMDL
MODEL        4
REMARK 921   NORMALIZED FREE ENERGY PREDICTED BY IDOCK:   -6.41 KCAL/MOL
REMARK 922        TOTAL FREE ENERGY PREDICTED BY IDOCK:  -11.09 KCAL/MOL
REMARK 923 INTER-LIGAND FREE ENERGY PREDICTED BY IDOCK:   -9.98 KCAL/MOL
REMARK 924 INTRA-LIGAND FREE ENERGY PREDICTED BY IDOCK:   -1.10 KCAL/MOL
REMARK 927      BINDING AFFINITY PREDICTED BY RF-SCORE:    0.00 PKD
ROOT
HETATM    1 MN   UNL     1     -12.604  14.562  67.518  1.00  0.00    -0.492 Mn 
HETATM    2  C   UNL     2     -12.107   7.777  71.228  1.00  0.00    -0.306 C  
HETATM    3  C   UNL     3     -11.031  15.919  65.975  1.00  0.00    -0.139 C  
HETATM    4  H   UNL     3     -10.800  17.568  64.978  1.00  0.00     0.000 HD 
HETATM    5  H   UNL     2     -12.181   9.638  71.668  1.00  0.00     0.000 HD 
HETATM    6  O   UNL     2     -12.241   8.832  72.167  1.00  0.00    -0.348 OA 
HETATM    7  O   UNL     3     -10.241  16.986  65.479  1.00  0.00    -0.589 OA 
ENDROOT
BRANCH   2   8
HETATM    8  C   UNL     2     -12.204   6.469  72.039  1.00  0.00    -0.295 C  
HETATM    9  H   UNL     2     -11.135   4.838  72.380  1.00  0.00     0.000 HD 
HETATM   10  O   UNL     2     -11.075   5.643  71.880  1.00  0.00    -0.256 OA 
ENDBRANCH   2   8
BRANCH   2  11
HETATM   11  C   UNL     2     -10.759   7.978  70.428  1.00  0.00    -0.233 C  
HETATM   12  H   UNL     2     -10.200   8.424  68.588  1.00  0.00     0.000 HD 
HETATM   13  O   UNL     2     -11.010   8.303  69.069  1.00  0.00    -0.055 OA 
BRANCH  11  14
HETATM   14  C   UNL     2      -9.787   9.069  70.987  1.00  0.00    -0.282 C  
HETATM   15  H   UNL     2      -9.094  10.748  70.358  1.00  0.00     0.000 HD 
HETATM   16  O   UNL     2      -9.685  10.086  70.020  1.00  0.00    -0.235 OA 
BRANCH  14  17
HETATM   17  C   UNL     2      -8.359   8.579  71.325  1.00  0.00    -0.156 C  
HETATM   18  C   UNL     2      -8.270   8.070  72.753  1.00  0.00    -0.158 C  
HETATM   19  H   UNL     2      -6.577   9.341  71.373  1.00  0.00     0.000 HD 
HETATM   20  O   UNL     2      -7.453   9.641  71.165  1.00  0.00    -0.328 OA 
HETATM   21  O   UNL     2      -7.113   7.564  73.212  1.00  0.00    -0.068 OA 
HETATM   22  O   UNL     2      -9.258   8.039  73.486  1.00  0.00    -0.272 OA 
ENDBRANCH  14  17
ENDBRANCH  11  14
ENDBRANCH   2  11
BRANCH   3  23
HETATM   23  C   UNL     3     -11.799  15.343  64.718  1.00  0.00    -0.169 C  
HETATM   24  O   UNL     3     -11.604  16.308  63.711  1.00  0.00    -1.539 OA 
HETATM   25  H   UNL     3     -12.066  15.962  62.956  1.00  0.00     0.000 HD 
BRANCH  23  26
HETATM   26  C   UNL     3     -11.665  13.929  63.990  1.00  0.00    -0.288 C  
HETATM   27  O   UNL     3     -12.458  14.060  62.836  1.00  0.00    -1.028 OA 
HETATM   28  H   UNL     3     -12.379  13.218  62.403  1.00  0.00     0.000 HD 
BRANCH  26  29
HETATM   29  C   UNL     3     -12.088  12.499  64.585  1.00  0.00    -0.428 C  
HETATM   30  C   UNL     3     -11.379  11.931  65.782  1.00  0.00    -0.299 C  
HETATM   31  O   UNL     3     -12.004  11.490  63.600  1.00  0.00    -0.521 OA 
HETATM   32  O   UNL     3     -10.079  11.593  65.706  1.00  0.00    -0.223 OA 
HETATM   33  O   UNL     3     -12.019  11.629  66.777  1.00  0.00    -0.536 OA 
HETATM   34  H   UNL     3     -12.254  10.644  63.953  1.00  0.00     0.000 HD 
ENDBRANCH  26  29
ENDBRANCH  23  26
ENDBRANCH   3  23
BRANCH   3  35
HETATM   35  C   UNL     3     -10.109  14.958  66.802  1.00  0.00    -0.251 C  
HETATM   36  O   UNL     3      -9.019  14.495  66.060  1.00  0.00    -0.488 OA 
HETATM   37  H   UNL     3      -8.460  13.913  66.562  1.00  0.00     0.000 HD 
ENDBRANCH   3  35
TORSDOF 8
ENDMDL
MODEL        5
REMARK 921   NORMALIZED FREE ENERGY PREDICTED BY IDOCK:   -6.37 KCAL/MOL
REMARK 922        TOTAL FREE ENERGY PREDICTED BY IDOCK:  -11.03 KCAL/MOL
REMARK 923 INTER-LIGAND FREE ENERGY PREDICTED BY IDOCK:   -8.76 KCAL/MOL
REMARK 924 INTRA-LIGAND FREE ENERGY PREDICTED BY IDOCK:   -2.27 KCAL/MOL
REMARK 927      BINDING AFFINITY PREDICTED BY RF-SCORE:    0.00 PKD
ROOT
HETATM    1 MN   UNL     1      -9.484  10.480  70.952  1.00  0.00    -0.256 Mn 
HETATM    2  C   UNL     2      -8.623  16.996  66.846  1.00  0.00    -0.225 C  
HETATM    3  C   UNL     3     -11.442   8.847  71.394  1.00  0.00    -0.311 C  
HETATM    4  H   UNL     3     -12.014   7.255  72.348  1.00  0.00     0.000 HD 
HETATM    5  H   UNL     2      -8.646  16.463  68.684  1.00  0.00     0.000 HD 
HETATM    6  O   UNL     2      -8.417  17.262  68.224  1.00  0.00    -0.227 OA 
HETATM    7  O   UNL     3     -12.410   8.079  72.089  1.00  0.00    -0.313 OA 
ENDROOT
BRANCH   2   8
HETATM    8  C   UNL     2      -8.250  18.292  66.100  1.00  0.00    -0.139 C  
HETATM    9  H   UNL     2      -6.824  18.973  64.905  1.00  0.00     0.000 HD 
HETATM   10  O   UNL     2      -7.054  18.174  65.365  1.00  0.00    -0.523 OA 
ENDBRANCH   2   8
BRANCH   2  11
HETATM   11  C   UNL     2     -10.110  16.501  66.642  1.00  0.00    -0.294 C  
HETATM   12  H   UNL     2     -11.606  16.830  65.396  1.00  0.00     0.000 HD 
HETATM   13  O   UNL     2     -10.712  17.127  65.520  1.00  0.00    -0.493 OA 
BRANCH  11  14
HETATM   14  C   UNL     2     -10.300  14.959  66.462  1.00  0.00    -0.293 C  
HETATM   15  H   UNL     2      -9.205  13.398  66.708  1.00  0.00     0.000 HD 
HETATM   16  O   UNL     2      -9.090  14.335  66.817  1.00  0.00    -0.249 OA 
BRANCH  14  17
HETATM   17  C   UNL     2     -10.683  14.496  65.037  1.00  0.00    -0.427 C  
HETATM   18  C   UNL     2     -12.133  14.049  64.969  1.00  0.00    -0.415 C  
HETATM   19  H   UNL     2     -10.095  13.138  63.785  1.00  0.00     0.000 HD 
HETATM   20  O   UNL     2      -9.860  13.422  64.660  1.00  0.00    -0.167 OA 
HETATM   21  O   UNL     2     -12.657  13.651  63.797  1.00  0.00    -0.705 OA 
HETATM   22  O   UNL     2     -12.871  14.111  65.952  1.00  0.00    -0.471 OA 
ENDBRANCH  14  17
ENDBRANCH  11  14
ENDBRANCH   2  11
BRANCH   3  23
HETATM   23  C   UNL     3     -10.872   7.890  70.272  1.00  0.00    -0.241 C  
HETATM   24  O   UNL     3     -12.003   7.214  69.774  1.00  0.00    -0.514 OA 
HETATM   25  H   UNL     3     -11.660   6.639  69.100  1.00  0.00     0.000 HD 
BRANCH  23  26
HETATM   26  C   UNL     3      -9.974   8.223  68.995  1.00  0.00    -0.189 C  
HETATM   27  O   UNL     3      -8.748   8.645  69.537  1.00  0.00    -0.135 OA 
HETATM   28  H   UNL     3      -8.213   8.844  68.778  1.00  0.00     0.000 HD 
BRANCH  26  29
HETATM   29  C   UNL     3     -10.287   9.315  67.861  1.00  0.00    -0.227 C  
HETATM   30  C   UNL     3      -9.487  10.585  67.784  1.00  0.00    -0.149 C  
HETATM   31  O   UNL     3     -11.633   9.736  67.913  1.00  0.00    -0.523 OA 
HETATM   32  O   UNL     3      -9.554  11.493  68.774  1.00  0.00    -0.181 OA 
HETATM   33  O   UNL     3      -8.897  10.868  66.752  1.00  0.00    -0.140 OA 
HETATM   34  H   UNL     3     -11.818  10.383  67.241  1.00  0.00     0.000 HD 
ENDBRANCH  26  29
ENDBRANCH  23  26
ENDBRANCH   3  23
BRANCH   3  35
HETATM   35  C   UNL     3     -12.096  10.206  70.967  1.00  0.00    -0.377 C  
HETATM   36  O   UNL     3     -13.291  10.026  70.266  1.00  0.00    -0.573 OA 
HETATM   37  H   UNL     3     -13.687  10.850  70.007  1.00  0.00     0.000 HD 
ENDBRANCH   3  35
TORSDOF 8
ENDMDL
MODEL        6
REMARK 921   NORMALIZED FREE ENERGY PREDICTED BY IDOCK:   -6.33 KCAL/MOL
REMARK 922        TOTAL FREE ENERGY PREDICTED BY IDOCK:  -10.97 KCAL/MOL
REMARK 923 INTER-LIGAND FREE ENERGY PREDICTED BY IDOCK:   -9.18 KCAL/MOL
REMARK 924 INTRA-LIGAND FREE ENERGY PREDICTED BY IDOCK:   -1.80 KCAL/MOL
REMARK 927      BINDING AFFINITY PREDICTED BY RF-SCORE:    0.00 PKD
ROOT
HETATM    1 MN   UNL     1     -10.972  15.327  68.162  1.00  0.00    -0.235 Mn 
HETATM    2  C   UNL     2     -11.030   7.909  70.405  1.00  0.00    -0.249 C  
HETATM    3  C   UNL     3      -9.641  16.695  66.415  1.00  0.00    -0.285 C  
HETATM    4  H   UNL     3      -9.328  18.458  65.665  1.00  0.00     0.000 HD 
HETATM    5  H   UNL     2     -10.535   9.611  71.126  1.00  0.00     0.000 HD 
HETATM    6  O   UNL     2     -10.635   8.738  71.487  1.00  0.00    -0.255 OA 
HETATM    7  O   UNL     3      -8.800  17.691  65.858  1.00  0.00    -0.521 OA 
ENDROOT
BRANCH   2   8
HETATM    8  C   UNL     2     -11.193   6.492  70.990  1.00  0.00    -0.309 C  
HETATM    9  H   UNL     2     -11.813   5.626  72.660  1.00  0.00     0.000 HD 
HETATM   10  O   UNL     2     -11.712   6.500  72.300  1.00  0.00    -0.291 OA 
ENDBRANCH   2   8
BRANCH   2  11
HETATM   11  C   UNL     2      -9.964   8.045  69.247  1.00  0.00    -0.191 C  
HETATM   12  H   UNL     2      -8.564   6.935  68.406  1.00  0.00     0.000 HD 
HETATM   13  O   UNL     2      -9.205   6.854  69.103  1.00  0.00    -0.142 OA 
BRANCH  11  14
HETATM   14  C   UNL     2     -10.530   8.400  67.832  1.00  0.00    -0.193 C  
HETATM   15  H   UNL     2     -11.128   7.406  66.299  1.00  0.00     0.000 HD 
HETATM   16  O   UNL     2     -10.784   7.191  67.158  1.00  0.00    -0.307 OA 
BRANCH  14  17
HETATM   17  C   UNL     2      -9.607   9.264  66.942  1.00  0.00    -0.174 C  
HETATM   18  C   UNL     2      -9.795  10.746  67.220  1.00  0.00    -0.179 C  
HETATM   19  H   UNL     2      -9.333   9.548  65.044  1.00  0.00     0.000 HD 
HETATM   20  O   UNL     2      -9.900   9.017  65.591  1.00  0.00    -0.227 OA 
HETATM   21  O   UNL     2      -9.044  11.649  66.569  1.00  0.00    -0.187 OA 
HETATM   22  O   UNL     2     -10.571  11.142  68.089  1.00  0.00    -0.176 OA 
ENDBRANCH  14  17
ENDBRANCH  11  14
ENDBRANCH   2  11
BRANCH   3  23
HETATM   23  C   UNL     3     -10.852  16.554  65.409  1.00  0.00    -0.206 C  
HETATM   24  O   UNL     3     -10.983  17.831  64.829  1.00  0.00    -0.855 OA 
HETATM   25  H   UNL     3     -11.711  17.746  64.225  1.00  0.00     0.000 HD 
BRANCH  23  26
HETATM   26  C   UNL     3     -11.085  15.516  64.219  1.00  0.00     0.027 C  
HETATM   27  O   UNL     3     -12.260  15.969  63.592  1.00  0.00    -1.195 OA 
HETATM   28  H   UNL     3     -12.399  15.352  62.884  1.00  0.00     0.000 HD 
BRANCH  26  29
HETATM   29  C   UNL     3     -11.312  13.933  64.357  1.00  0.00    -0.341 C  
HETATM   30  C   UNL     3     -12.389  13.392  65.255  1.00  0.00    -0.469 C  
HETATM   31  O   UNL     3     -10.131  13.281  64.773  1.00  0.00    -0.520 OA 
HETATM   32  O   UNL     3     -12.317  13.568  66.586  1.00  0.00    -0.376 OA 
HETATM   33  O   UNL     3     -13.249  12.658  64.794  1.00  0.00    -0.846 OA 
HETATM   34  H   UNL     3     -10.265  12.344  64.855  1.00  0.00     0.000 HD 
ENDBRANCH  26  29
ENDBRANCH  23  26
ENDBRANCH   3  23
BRANCH   3  35
HETATM   35  C   UNL     3      -8.771  15.430  66.734  1.00  0.00    -0.269 C  
HETATM   36  O   UNL     3      -9.529  14.382  67.261  1.00  0.00    -0.204 OA 
HETATM   37  H   UNL     3      -9.001  13.615  67.454  1.00  0.00     0.000 HD 
ENDBRANCH   3  35
TORSDOF 8
ENDMDL
MODEL        7
REMARK 921   NORMALIZED FREE ENERGY PREDICTED BY IDOCK:   -6.31 KCAL/MOL
REMARK 922        TOTAL FREE ENERGY PREDICTED BY IDOCK:  -10.94 KCAL/MOL
REMARK 923 INTER-LIGAND FREE ENERGY PREDICTED BY IDOCK:   -8.25 KCAL/MOL
REMARK 924 INTRA-LIGAND FREE ENERGY PREDICTED BY IDOCK:   -2.69 KCAL/MOL
REMARK 927      BINDING AFFINITY PREDICTED BY RF-SCORE:    0.00 PKD
ROOT
HETATM    1 MN   UNL     1     -12.333   6.821  69.688  1.00  0.00    -0.557 Mn 
HETATM    2  C   UNL     2     -12.223  13.181  65.261  1.00  0.00    -0.455 C  
HETATM    3  C   UNL     3     -10.555   5.114  70.475  1.00  0.00    -0.151 C  
HETATM    4  H   UNL     3     -10.239   3.475  71.467  1.00  0.00     0.000 HD 
HETATM    5  H   UNL     2     -12.923  11.402  65.181  1.00  0.00     0.000 HD 
HETATM    6  O   UNL     2     -13.039  12.188  64.660  1.00  0.00    -0.673 OA 
HETATM    7  O   UNL     3      -9.888   3.881  70.683  1.00  0.00    -0.189 OA 
ENDROOT
BRANCH   2   8
HETATM    8  C   UNL     2     -12.411  14.457  64.417  1.00  0.00    -0.312 C  
HETATM    9  H   UNL     2     -12.685  14.970  62.523  1.00  0.00     0.000 HD 
HETATM   10  O   UNL     2     -12.568  14.184  63.044  1.00  0.00    -0.573 OA 
ENDBRANCH   2   8
BRANCH   2  11
HETATM   11  C   UNL     2     -10.742  12.637  65.345  1.00  0.00    -0.280 C  
HETATM   12  H   UNL     2      -8.943  13.185  64.743  1.00  0.00     0.000 HD 
HETATM   13  O   UNL     2      -9.834  13.512  64.693  1.00  0.00    -0.170 OA 
BRANCH  11  14
HETATM   14  C   UNL     2     -10.183  12.389  66.785  1.00  0.00    -0.219 C  
HETATM   15  H   UNL     2      -8.462  11.998  67.546  1.00  0.00     0.000 HD 
HETATM   16  O   UNL     2      -8.801  12.148  66.672  1.00  0.00    -0.202 OA 
BRANCH  14  17
HETATM   17  C   UNL     2     -10.818  11.206  67.552  1.00  0.00    -0.254 C  
HETATM   18  C   UNL     2     -11.802  11.689  68.604  1.00  0.00    -0.308 C  
HETATM   19  H   UNL     2     -10.196   9.738  68.656  1.00  0.00     0.000 HD 
HETATM   20  O   UNL     2      -9.806  10.465  68.185  1.00  0.00    -0.148 OA 
HETATM   21  O   UNL     2     -12.484  10.797  69.342  1.00  0.00    -0.333 OA 
HETATM   22  O   UNL     2     -12.050  12.885  68.749  1.00  0.00    -0.280 OA 
ENDBRANCH  14  17
ENDBRANCH  11  14
ENDBRANCH   2  11
BRANCH   3  23
HETATM   23  C   UNL     3     -10.446   5.889  71.849  1.00  0.00    -0.220 C  
HETATM   24  O   UNL     3      -9.337   6.743  71.687  1.00  0.00    -0.152 OA 
HETATM   25  H   UNL     3      -9.272   7.208  72.513  1.00  0.00     0.000 HD 
BRANCH  23  26
HETATM   26  C   UNL     3     -11.539   6.748  72.634  1.00  0.00    -0.137 C  
HETATM   27  O   UNL     3     -12.681   5.928  72.642  1.00  0.00    -0.514 OA 
HETATM   28  H   UNL     3     -13.331   6.439  73.109  1.00  0.00     0.000 HD 
BRANCH  26  29
HETATM   29  C   UNL     3     -12.107   8.191  72.216  1.00  0.00    -0.364 C  
HETATM   30  C   UNL     3     -13.587   8.420  72.091  1.00  0.00    -0.323 C  
HETATM   31  O   UNL     3     -11.567   8.615  70.982  1.00  0.00    -0.275 OA 
HETATM   32  O   UNL     3     -14.296   7.788  71.139  1.00  0.00    -0.332 OA 
HETATM   33  O   UNL     3     -14.121   9.299  72.751  1.00  0.00    -0.481 OA 
HETATM   34  H   UNL     3     -11.904   9.469  70.735  1.00  0.00     0.000 HD 
ENDBRANCH  26  29
ENDBRANCH  23  26
ENDBRANCH   3  23
BRANCH   3  35
HETATM   35  C   UNL     3      -9.975   5.783  69.181  1.00  0.00    -0.177 C  
HETATM   36  O   UNL     3     -10.104   7.174  69.197  1.00  0.00    -0.174 OA 
HETATM   37  H   UNL     3      -9.752   7.580  68.413  1.00  0.00     0.000 HD 
ENDBRANCH   3  35
TORSDOF 8
ENDMDL
MODEL        8
REMARK 921   NORMALIZED FREE ENERGY PREDICTED BY IDOCK:   -6.30 KCAL/MOL
REMARK 922        TOTAL FREE ENERGY PREDICTED BY IDOCK:  -10.91 KCAL/MOL
REMARK 923 INTER-LIGAND FREE ENERGY PREDICTED BY IDOCK:   -8.81 KCAL/MOL
REMARK 924 INTRA-LIGAND FREE ENERGY PREDICTED BY IDOCK:   -2.11 KCAL/MOL
REMARK 927      BINDING AFFINITY PREDICTED BY RF-SCORE:    0.00 PKD
ROOT
HETATM    1 MN   UNL     1     -10.704  12.627  64.630  1.00  0.00    -0.267 Mn 
HETATM    2  C   UNL     2     -10.121   7.636  70.530  1.00  0.00    -0.189 C  
HETATM    3  C   UNL     3     -12.109  14.750  64.167  1.00  0.00    -0.299 C  
HETATM    4  H   UNL     3     -12.543  16.131  62.874  1.00  0.00     0.000 HD 
HETATM    5  H   UNL     2     -10.753   7.638  68.724  1.00  0.00     0.000 HD 
HETATM    6  O   UNL     2     -10.593   6.963  69.373  1.00  0.00    -0.210 OA 
HETATM    7  O   UNL     3     -13.014  15.642  63.539  1.00  0.00    -0.073 OA 
ENDROOT
BRANCH   2   8
HETATM    8  C   UNL     2      -9.860   6.541  71.583  1.00  0.00    -0.167 C  
HETATM    9  H   UNL     2     -10.811   5.023  72.429  1.00  0.00     0.000 HD 
HETATM   10  O   UNL     2     -10.972   5.698  71.780  1.00  0.00    -0.256 OA 
ENDBRANCH   2   8
BRANCH   2  11
HETATM   11  C   UNL     2     -11.177   8.736  70.943  1.00  0.00    -0.270 C  
HETATM   12  H   UNL     2     -11.877   9.545  72.603  1.00  0.00     0.000 HD 
HETATM   13  O   UNL     2     -11.242   8.884  72.353  1.00  0.00    -0.286 OA 
BRANCH  11  14
HETATM   14  C   UNL     2     -10.951  10.163  70.344  1.00  0.00    -0.319 C  
HETATM   15  H   UNL     2     -11.659  11.921  70.668  1.00  0.00     0.000 HD 
HETATM   16  O   UNL     2     -11.795  11.054  71.032  1.00  0.00    -0.280 OA 
BRANCH  14  17
HETATM   17  C   UNL     2     -11.233  10.303  68.829  1.00  0.00    -0.206 C  
HETATM   18  C   UNL     2     -10.042  10.890  68.094  1.00  0.00    -0.173 C  
HETATM   19  H   UNL     2     -12.516  11.229  67.709  1.00  0.00     0.000 HD 
HETATM   20  O   UNL     2     -12.342  11.143  68.639  1.00  0.00    -0.549 OA 
HETATM   21  O   UNL     2     -10.089  11.045  66.760  1.00  0.00    -0.206 OA 
HETATM   22  O   UNL     2      -8.995  11.161  68.681  1.00  0.00    -0.166 OA 
ENDBRANCH  14  17
ENDBRANCH  11  14
ENDBRANCH   2  11
BRANCH   3  23
HETATM   23  C   UNL     3     -10.876  15.638  64.604  1.00  0.00    -0.243 C  
HETATM   24  O   UNL     3     -11.207  16.939  64.178  1.00  0.00    -1.386 OA 
HETATM   25  H   UNL     3     -10.466  17.473  64.440  1.00  0.00     0.000 HD 
BRANCH  23  26
HETATM   26  C   UNL     3     -10.193  15.817  66.036  1.00  0.00    -0.333 C  
HETATM   27  O   UNL     3      -9.095  16.661  65.790  1.00  0.00    -0.503 OA 
HETATM   28  H   UNL     3      -8.688  16.767  66.641  1.00  0.00     0.000 HD 
BRANCH  26  29
HETATM   29  C   UNL     3      -9.581  14.654  66.959  1.00  0.00    -0.240 C  
HETATM   30  C   UNL     3      -8.457  14.949  67.912  1.00  0.00    -0.153 C  
HETATM   31  O   UNL     3      -9.122  13.570  66.179  1.00  0.00    -0.471 OA 
HETATM   32  O   UNL     3      -7.248  15.311  67.447  1.00  0.00    -0.185 OA 
HETATM   33  O   UNL     3      -8.594  14.708  69.101  1.00  0.00    -0.133 OA 
HETATM   34  H   UNL     3      -8.760  12.882  66.726  1.00  0.00     0.000 HD 
ENDBRANCH  26  29
ENDBRANCH  23  26
ENDBRANCH   3  23
BRANCH   3  35
HETATM   35  C   UNL     3     -12.886  13.944  65.265  1.00  0.00    -0.398 C  
HETATM   36  O   UNL     3     -13.082  12.608  64.905  1.00  0.00    -0.850 OA 
HETATM   37  H   UNL     3     -13.552  12.119  65.571  1.00  0.00     0.000 HD 
ENDBRANCH   3  35
TORSDOF 8
ENDMDL
MODEL        9
REMARK 921   NORMALIZED FREE ENERGY PREDICTED BY IDOCK:   -6.29 KCAL/MOL
REMARK 922        TOTAL FREE ENERGY PREDICTED BY IDOCK:  -10.91 KCAL/MOL
REMARK 923 INTER-LIGAND FREE ENERGY PREDICTED BY IDOCK:   -7.71 KCAL/MOL
REMARK 924 INTRA-LIGAND FREE ENERGY PREDICTED BY IDOCK:   -3.20 KCAL/MOL
REMARK 927      BINDING AFFINITY PREDICTED BY RF-SCORE:    0.00 PKD
ROOT
HETATM    1 MN   UNL     1     -13.109  13.612  69.173  1.00  0.00    -0.228 Mn 
HETATM    2  C   UNL     2      -9.910   6.873  67.075  1.00  0.00    -0.174 C  
HETATM    3  C   UNL     3     -13.334  14.911  71.399  1.00  0.00    -0.413 C  
HETATM    4  H   UNL     3     -14.068  16.486  72.266  1.00  0.00     0.000 HD 
HETATM    5  H   UNL     2     -11.660   7.630  67.232  1.00  0.00     0.000 HD 
HETATM    6  O   UNL     2     -11.311   6.832  66.854  1.00  0.00    -0.318 OA 
HETATM    7  O   UNL     3     -13.923  15.577  72.503  1.00  0.00    -0.538 OA 
ENDROOT
BRANCH   2   8
HETATM    8  C   UNL     2      -9.344   5.577  66.461  1.00  0.00    -0.147 C  
HETATM    9  H   UNL     2      -9.760   3.641  66.407  1.00  0.00     0.000 HD 
HETATM   10  O   UNL     2     -10.109   4.440  66.785  1.00  0.00    -0.221 OA 
ENDBRANCH   2   8
BRANCH   2  11
HETATM   11  C   UNL     2      -9.646   7.061  68.621  1.00  0.00    -0.138 C  
HETATM   12  H   UNL     2      -8.251   6.591  69.938  1.00  0.00     0.000 HD 
HETATM   13  O   UNL     2      -8.411   6.478  69.008  1.00  0.00    -0.115 OA 
BRANCH  11  14
HETATM   14  C   UNL     2      -9.638   8.536  69.141  1.00  0.00    -0.167 C  
HETATM   15  H   UNL     2      -9.072   9.427  70.748  1.00  0.00     0.000 HD 
HETATM   16  O   UNL     2      -9.077   8.531  70.432  1.00  0.00    -0.143 OA 
BRANCH  14  17
HETATM   17  C   UNL     2     -11.021   9.224  69.218  1.00  0.00    -0.085 C  
HETATM   18  C   UNL     2     -10.975  10.630  68.645  1.00  0.00    -0.246 C  
HETATM   19  H   UNL     2     -12.281   9.717  70.606  1.00  0.00     0.000 HD 
HETATM   20  O   UNL     2     -11.432   9.294  70.559  1.00  0.00    -0.265 OA 
HETATM   21  O   UNL     2     -12.098  11.367  68.589  1.00  0.00    -0.518 OA 
HETATM   22  O   UNL     2      -9.944  11.091  68.158  1.00  0.00    -0.168 OA 
ENDBRANCH  14  17
ENDBRANCH  11  14
ENDBRANCH   2  11
BRANCH   3  23
HETATM   23  C   UNL     3     -12.092  15.798  70.985  1.00  0.00    -0.418 C  
HETATM   24  O   UNL     3     -11.037  15.331  71.793  1.00  0.00    -0.497 OA 
HETATM   25  H   UNL     3     -10.291  15.864  71.544  1.00  0.00     0.000 HD 
BRANCH  23  26
HETATM   26  C   UNL     3     -11.449  16.060  69.548  1.00  0.00    -0.326 C  
HETATM   27  O   UNL     3     -12.525  15.906  68.656  1.00  0.00    -0.354 OA 
HETATM   28  H   UNL     3     -12.143  16.061  67.801  1.00  0.00     0.000 HD 
BRANCH  26  29
HETATM   29  C   UNL     3     -10.262  15.226  68.862  1.00  0.00    -0.232 C  
HETATM   30  C   UNL     3     -10.159  15.134  67.365  1.00  0.00    -0.229 C  
HETATM   31  O   UNL     3     -10.252  13.887  69.309  1.00  0.00    -0.431 OA 
HETATM   32  O   UNL     3     -11.109  14.499  66.655  1.00  0.00    -0.318 OA 
HETATM   33  O   UNL     3      -9.137  15.499  66.805  1.00  0.00    -0.217 OA 
HETATM   34  H   UNL     3      -9.549  13.393  68.903  1.00  0.00     0.000 HD 
ENDBRANCH  26  29
ENDBRANCH  23  26
ENDBRANCH   3  23
BRANCH   3  35
HETATM   35  C   UNL     3     -13.095  13.412  71.791  1.00  0.00    -0.388 C  
HETATM   36  O   UNL     3     -12.058  12.829  71.058  1.00  0.00    -0.418 OA 
HETATM   37  H   UNL     3     -11.913  11.921  71.296  1.00  0.00     0.000 HD 
ENDBRANCH   3  35
TORSDOF 8
ENDMDL
MODEL       10
REMARK 921   NORMALIZED FREE ENERGY PREDICTED BY IDOCK:   -6.29 KCAL/MOL
REMARK 922        TOTAL FREE ENERGY PREDICTED BY IDOCK:  -10.91 KCAL/MOL
REMARK 923 INTER-LIGAND FREE ENERGY PREDICTED BY IDOCK:   -8.52 KCAL/MOL
REMARK 924 INTRA-LIGAND FREE ENERGY PREDICTED BY IDOCK:   -2.38 KCAL/MOL
REMARK 927      BINDING AFFINITY PREDICTED BY RF-SCORE:    0.00 PKD
ROOT
HETATM    1 MN   UNL     1      -9.267  13.893  69.931  1.00  0.00    -0.255 Mn 
HETATM    2  C   UNL     2      -8.709   6.551  72.349  1.00  0.00    -0.126 C  
HETATM    3  C   UNL     3     -10.413  15.075  67.935  1.00  0.00    -0.247 C  
HETATM    4  H   UNL     3     -10.701  16.767  67.028  1.00  0.00     0.000 HD 
HETATM    5  H   UNL     2      -7.564   7.903  71.626  1.00  0.00     0.000 HD 
HETATM    6  O   UNL     2      -7.423   7.051  72.021  1.00  0.00    -0.088 OA 
HETATM    7  O   UNL     3     -10.585  15.861  66.768  1.00  0.00    -0.314 OA 
ENDROOT
BRANCH   2   8
HETATM    8  C   UNL     2      -8.479   5.168  72.990  1.00  0.00    -0.111 C  
HETATM    9  H   UNL     2      -7.085   4.211  74.021  1.00  0.00     0.000 HD 
HETATM   10  O   UNL     2      -7.227   5.063  73.626  1.00  0.00    -0.079 OA 
ENDBRANCH   2   8
BRANCH   2  11
HETATM   11  C   UNL     2      -9.602   6.553  71.045  1.00  0.00    -0.175 C  
HETATM   12  H   UNL     2     -10.531   5.238  69.903  1.00  0.00     0.000 HD 
HETATM   13  O   UNL     2      -9.994   5.237  70.687  1.00  0.00    -0.189 OA 
BRANCH  11  14
HETATM   14  C   UNL     2     -10.904   7.418  71.108  1.00  0.00    -0.242 C  
HETATM   15  H   UNL     2     -12.677   7.292  70.373  1.00  0.00     0.000 HD 
HETATM   16  O   UNL     2     -11.886   6.768  70.336  1.00  0.00    -0.376 OA 
BRANCH  14  17
HETATM   17  C   UNL     2     -10.767   8.869  70.591  1.00  0.00    -0.234 C  
HETATM   18  C   UNL     2     -11.871   9.759  71.134  1.00  0.00    -0.382 C  
HETATM   19  H   UNL     2     -10.748   9.763  68.871  1.00  0.00     0.000 HD 
HETATM   20  O   UNL     2     -10.832   8.872  69.188  1.00  0.00    -0.182 OA 
HETATM   21  O   UNL     2     -11.889  11.067  70.826  1.00  0.00    -0.329 OA 
HETATM   22  O   UNL     2     -12.716   9.327  71.918  1.00  0.00    -0.340 OA 
ENDBRANCH  14  17
ENDBRANCH  11  14
ENDBRANCH   2  11
BRANCH   3  23
HETATM   23  C   UNL     3     -11.627  15.448  68.877  1.00  0.00    -0.354 C  
HETATM   24  O   UNL     3     -12.725  14.755  68.332  1.00  0.00    -0.256 OA 
HETATM   25  H   UNL     3     -13.454  14.979  68.899  1.00  0.00     0.000 HD 
BRANCH  23  26
HETATM   26  C   UNL     3     -11.778  15.315  70.461  1.00  0.00    -0.318 C  
HETATM   27  O   UNL     3     -11.676  13.933  70.701  1.00  0.00    -0.484 OA 
HETATM   28  H   UNL     3     -11.766  13.854  71.643  1.00  0.00     0.000 HD 
BRANCH  26  29
HETATM   29  C   UNL     3     -13.040  15.765  71.345  1.00  0.00    -0.377 C  
HETATM   30  C   UNL     3     -13.167  15.319  72.775  1.00  0.00    -0.482 C  
HETATM   31  O   UNL     3     -14.254  15.383  70.736  1.00  0.00    -0.844 OA 
HETATM   32  O   UNL     3     -13.337  14.017  73.069  1.00  0.00    -0.641 OA 
HETATM   33  O   UNL     3     -13.274  16.152  73.661  1.00  0.00    -0.638 OA 
HETATM   34  H   UNL     3     -15.001  15.649  71.260  1.00  0.00     0.000 HD 
ENDBRANCH  26  29
ENDBRANCH  23  26
ENDBRANCH   3  23
BRANCH   3  35
HETATM   35  C   UNL     3     -10.222  13.579  67.505  1.00  0.00    -0.234 C  
HETATM   36  O   UNL     3     -10.768  12.685  68.429  1.00  0.00    -0.227 OA 
HETATM   37  H   UNL     3     -10.653  11.779  68.169  1.00  0.00     0.000 HD 
ENDBRANCH   3  35
TORSDOF 8
ENDMDL
MODEL       11
REMARK 921   NORMALIZED FREE ENERGY PREDICTED BY IDOCK:   -6.29 KCAL/MOL
REMARK 922        TOTAL FREE ENERGY PREDICTED BY IDOCK:  -10.90 KCAL/MOL
REMARK 923 INTER-LIGAND FREE ENERGY PREDICTED BY IDOCK:   -8.39 KCAL/MOL
REMARK 924 INTRA-LIGAND FREE ENERGY PREDICTED BY IDOCK:   -2.51 KCAL/MOL
REMARK 927      BINDING AFFINITY PREDICTED BY RF-SCORE:    0.00 PKD
ROOT
HETATM    1 MN   UNL     1      -9.604  11.122  70.329  1.00  0.00    -0.331 Mn 
HETATM    2  C   UNL     2      -9.606  17.868  66.515  1.00  0.00    -0.313 C  
HETATM    3  C   UNL     3     -11.156   9.052  70.377  1.00  0.00    -0.244 C  
HETATM    4  H   UNL     3     -11.491   7.322  71.192  1.00  0.00     0.000 HD 
HETATM    5  H   UNL     2      -9.836  17.247  68.310  1.00  0.00     0.000 HD 
HETATM    6  O   UNL     2      -9.726  18.101  67.909  1.00  0.00    -0.280 OA 
HETATM    7  O   UNL     3     -12.021   8.042  70.869  1.00  0.00    -0.278 OA 
ENDROOT
BRANCH   2   8
HETATM    8  C   UNL     2      -9.427  19.254  65.865  1.00  0.00    -0.013 C  
HETATM    9  H   UNL     2      -9.035  21.119  66.403  1.00  0.00     0.000 HD 
HETATM   10  O   UNL     2      -9.146  20.265  66.804  1.00  0.00    -0.338 OA 
ENDBRANCH   2   8
BRANCH   2  11
HETATM   11  C   UNL     2     -10.866  17.049  66.028  1.00  0.00     0.005 C  
HETATM   12  H   UNL     2     -11.964  16.881  64.395  1.00  0.00     0.000 HD 
HETATM   13  O   UNL     2     -11.206  17.374  64.689  1.00  0.00    -0.992 OA 
BRANCH  11  14
HETATM   14  C   UNL     2     -10.741  15.491  66.102  1.00  0.00    -0.313 C  
HETATM   15  H   UNL     2      -9.400  14.243  66.686  1.00  0.00     0.000 HD 
HETATM   16  O   UNL     2      -9.477  15.189  66.640  1.00  0.00    -0.233 OA 
BRANCH  14  17
HETATM   17  C   UNL     2     -10.883  14.745  64.754  1.00  0.00    -0.376 C  
HETATM   18  C   UNL     2     -12.281  14.179  64.576  1.00  0.00    -0.445 C  
HETATM   19  H   UNL     2     -10.044  13.232  63.880  1.00  0.00     0.000 HD 
HETATM   20  O   UNL     2      -9.957  13.690  64.707  1.00  0.00    -0.285 OA 
HETATM   21  O   UNL     2     -12.602  13.534  63.443  1.00  0.00    -0.740 OA 
HETATM   22  O   UNL     2     -13.159  14.362  65.419  1.00  0.00    -0.604 OA 
ENDBRANCH  14  17
ENDBRANCH  11  14
ENDBRANCH   2  11
BRANCH   3  23
HETATM   23  C   UNL     3     -10.177   8.318  69.377  1.00  0.00    -0.204 C  
HETATM   24  O   UNL     3     -11.018   7.796  68.375  1.00  0.00    -0.424 OA 
HETATM   25  H   UNL     3     -10.430   7.355  67.774  1.00  0.00     0.000 HD 
BRANCH  23  26
HETATM   26  C   UNL     3      -8.887   8.866  68.611  1.00  0.00    -0.137 C  
HETATM   27  O   UNL     3      -8.225   9.651  69.572  1.00  0.00    -0.109 OA 
HETATM   28  H   UNL     3      -7.458   9.978  69.117  1.00  0.00     0.000 HD 
BRANCH  26  29
HETATM   29  C   UNL     3      -8.871   9.782  67.293  1.00  0.00    -0.132 C  
HETATM   30  C   UNL     3      -8.649  11.265  67.397  1.00  0.00    -0.136 C  
HETATM   31  O   UNL     3     -10.070   9.644  66.560  1.00  0.00    -0.227 OA 
HETATM   32  O   UNL     3      -9.554  12.047  68.013  1.00  0.00    -0.186 OA 
HETATM   33  O   UNL     3      -7.727  11.783  66.787  1.00  0.00    -0.149 OA 
HETATM   34  H   UNL     3     -10.060  10.187  65.779  1.00  0.00     0.000 HD 
ENDBRANCH  26  29
ENDBRANCH  23  26
ENDBRANCH   3  23
BRANCH   3  35
HETATM   35  C   UNL     3     -12.030  10.240  69.845  1.00  0.00    -0.150 C  
HETATM   36  O   UNL     3     -11.976  10.359  68.454  1.00  0.00    -0.759 OA 
HETATM   37  H   UNL     3     -12.506  11.079  68.131  1.00  0.00     0.000 HD 
ENDBRANCH   3  35
TORSDOF 8
ENDMDL
MODEL       12
REMARK 921   NORMALIZED FREE ENERGY PREDICTED BY IDOCK:   -6.29 KCAL/MOL
REMARK 922        TOTAL FREE ENERGY PREDICTED BY IDOCK:  -10.90 KCAL/MOL
REMARK 923 INTER-LIGAND FREE ENERGY PREDICTED BY IDOCK:   -8.56 KCAL/MOL
REMARK 924 INTRA-LIGAND FREE ENERGY PREDICTED BY IDOCK:   -2.34 KCAL/MOL
REMARK 927      BINDING AFFINITY PREDICTED BY RF-SCORE:    0.00 PKD
ROOT
HETATM    1 MN   UNL     1     -12.389  14.932  66.976  1.00  0.00    -0.371 Mn 
HETATM    2  C   UNL     2     -12.254   8.292  70.970  1.00  0.00    -0.174 C  
HETATM    3  C   UNL     3     -10.909  17.054  66.913  1.00  0.00    -0.013 C  
HETATM    4  H   UNL     3     -10.679  18.821  66.143  1.00  0.00     0.000 HD 
HETATM    5  H   UNL     2     -13.342   9.862  70.854  1.00  0.00     0.000 HD 
HETATM    6  O   UNL     2     -13.434   9.016  71.277  1.00  0.00    -0.301 OA 
HETATM    7  O   UNL     3     -10.524  18.416  66.988  1.00  0.00    -0.383 OA 
ENDROOT
BRANCH   2   8
HETATM    8  C   UNL     2     -12.404   6.920  71.657  1.00  0.00    -0.371 C  
HETATM    9  H   UNL     2     -11.395   5.227  71.852  1.00  0.00     0.000 HD 
HETATM   10  O   UNL     2     -11.303   6.072  71.428  1.00  0.00    -0.285 OA 
ENDBRANCH   2   8
BRANCH   2  11
HETATM   11  C   UNL     2     -11.003   9.143  71.426  1.00  0.00    -0.344 C  
HETATM   12  H   UNL     2      -9.692   9.149  72.902  1.00  0.00     0.000 HD 
HETATM   13  O   UNL     2     -10.445   8.637  72.628  1.00  0.00    -0.250 OA 
BRANCH  11  14
HETATM   14  C   UNL     2      -9.836   9.254  70.391  1.00  0.00    -0.241 C  
HETATM   15  H   UNL     2      -7.949   9.614  70.476  1.00  0.00     0.000 HD 
HETATM   16  O   UNL     2      -8.658   9.547  71.104  1.00  0.00    -0.269 OA 
BRANCH  14  17
HETATM   17  C   UNL     2     -10.016  10.331  69.295  1.00  0.00    -0.227 C  
HETATM   18  C   UNL     2     -10.480   9.719  67.985  1.00  0.00    -0.226 C  
HETATM   19  H   UNL     2      -8.902  11.646  68.407  1.00  0.00     0.000 HD 
HETATM   20  O   UNL     2      -8.791  10.985  69.080  1.00  0.00    -0.145 OA 
HETATM   21  O   UNL     2     -10.731  10.510  66.928  1.00  0.00    -0.253 OA 
HETATM   22  O   UNL     2     -10.707   8.513  67.885  1.00  0.00    -0.187 OA 
ENDBRANCH  14  17
ENDBRANCH  11  14
ENDBRANCH   2  11
BRANCH   3  23
HETATM   23  C   UNL     3     -10.168  16.476  65.641  1.00  0.00    -0.292 C  
HETATM   24  O   UNL     3      -9.032  15.823  66.159  1.00  0.00    -0.320 OA 
HETATM   25  H   UNL     3      -8.587  15.476  65.395  1.00  0.00     0.000 HD 
BRANCH  23  26
HETATM   26  C   UNL     3     -10.712  15.531  64.475  1.00  0.00     0.016 C  
HETATM   27  O   UNL     3     -11.879  16.175  64.026  1.00  0.00    -1.227 OA 
HETATM   28  H   UNL     3     -12.202  15.613  63.332  1.00  0.00     0.000 HD 
BRANCH  26  29
HETATM   29  C   UNL     3     -11.153  13.994  64.612  1.00  0.00    -0.382 C  
HETATM   30  C   UNL     3     -12.593  13.595  64.444  1.00  0.00    -0.166 C  
HETATM   31  O   UNL     3     -10.773  13.462  65.864  1.00  0.00    -0.275 OA 
HETATM   32  O   UNL     3     -13.522  14.013  65.322  1.00  0.00    -0.622 OA 
HETATM   33  O   UNL     3     -12.896  12.766  63.601  1.00  0.00    -0.701 OA 
HETATM   34  H   UNL     3     -11.035  12.552  65.945  1.00  0.00     0.000 HD 
ENDBRANCH  26  29
ENDBRANCH  23  26
ENDBRANCH   3  23
BRANCH   3  35
HETATM   35  C   UNL     3     -10.652  16.385  68.307  1.00  0.00    -0.318 C  
HETATM   36  O   UNL     3     -10.574  14.992  68.223  1.00  0.00    -0.239 OA 
HETATM   37  H   UNL     3     -10.417  14.587  69.068  1.00  0.00     0.000 HD 
ENDBRANCH   3  35
TORSDOF 8
ENDMDL
MODEL       13
REMARK 921   NORMALIZED FREE ENERGY PREDICTED BY IDOCK:   -6.28 KCAL/MOL
REMARK 922        TOTAL FREE ENERGY PREDICTED BY IDOCK:  -10.90 KCAL/MOL
REMARK 923 INTER-LIGAND FREE ENERGY PREDICTED BY IDOCK:   -9.72 KCAL/MOL
REMARK 924 INTRA-LIGAND FREE ENERGY PREDICTED BY IDOCK:   -1.18 KCAL/MOL
REMARK 927      BINDING AFFINITY PREDICTED BY RF-SCORE:    0.00 PKD
ROOT
HETATM    1 MN   UNL     1     -10.744  12.470  64.799  1.00  0.00    -0.261 Mn 
HETATM    2  C   UNL     2     -10.678   7.315  70.584  1.00  0.00    -0.235 C  
HETATM    3  C   UNL     3     -11.960  14.713  64.366  1.00  0.00    -0.437 C  
HETATM    4  H   UNL     3     -12.255  16.155  63.100  1.00  0.00     0.000 HD 
HETATM    5  H   UNL     2     -11.277   7.411  68.769  1.00  0.00     0.000 HD 
HETATM    6  O   UNL     2     -11.184   6.710  69.404  1.00  0.00    -0.306 OA 
HETATM    7  O   UNL     3     -12.776  15.692  63.746  1.00  0.00    -0.611 OA 
ENDROOT
BRANCH   2   8
HETATM    8  C   UNL     2     -10.527   6.178  71.615  1.00  0.00    -0.222 C  
HETATM    9  H   UNL     2     -10.033   4.260  71.665  1.00  0.00     0.000 HD 
HETATM   10  O   UNL     2     -10.127   4.961  71.030  1.00  0.00    -0.209 OA 
ENDBRANCH   2   8
BRANCH   2  11
HETATM   11  C   UNL     2     -11.646   8.489  71.008  1.00  0.00    -0.279 C  
HETATM   12  H   UNL     2     -12.336   9.291  72.676  1.00  0.00     0.000 HD 
HETATM   13  O   UNL     2     -11.754   8.584  72.420  1.00  0.00    -0.375 OA 
BRANCH  11  14
HETATM   14  C   UNL     2     -11.269   9.912  70.481  1.00  0.00    -0.330 C  
HETATM   15  H   UNL     2     -11.978  11.688  70.683  1.00  0.00     0.000 HD 
HETATM   16  O   UNL     2     -12.206  10.823  71.003  1.00  0.00    -0.342 OA 
BRANCH  14  17
HETATM   17  C   UNL     2     -11.246  10.070  68.942  1.00  0.00    -0.131 C  
HETATM   18  C   UNL     2      -9.846  10.364  68.434  1.00  0.00    -0.162 C  
HETATM   19  H   UNL     2     -12.080  11.224  67.626  1.00  0.00     0.000 HD 
HETATM   20  O   UNL     2     -12.094  11.127  68.571  1.00  0.00    -0.586 OA 
HETATM   21  O   UNL     2      -9.625  10.490  67.115  1.00  0.00    -0.164 OA 
HETATM   22  O   UNL     2      -8.883  10.415  69.199  1.00  0.00    -0.162 OA 
ENDBRANCH  14  17
ENDBRANCH  11  14
ENDBRANCH   2  11
BRANCH   3  23
HETATM   23  C   UNL     3     -10.665  15.485  64.843  1.00  0.00    -0.392 C  
HETATM   24  O   UNL     3     -10.864  16.812  64.413  1.00  0.00    -0.951 OA 
HETATM   25  H   UNL     3     -10.086  17.275  64.699  1.00  0.00     0.000 HD 
BRANCH  23  26
HETATM   26  C   UNL     3     -10.011  15.598  66.295  1.00  0.00    -0.295 C  
HETATM   27  O   UNL     3     -11.114  15.675  67.164  1.00  0.00    -0.304 OA 
HETATM   28  H   UNL     3     -10.725  15.742  68.028  1.00  0.00     0.000 HD 
BRANCH  26  29
HETATM   29  C   UNL     3      -9.031  16.758  66.818  1.00  0.00    -0.240 C  
HETATM   30  C   UNL     3      -9.566  17.892  67.648  1.00  0.00    -0.270 C  
HETATM   31  O   UNL     3      -8.355  17.379  65.746  1.00  0.00    -0.538 OA 
HETATM   32  O   UNL     3     -10.437  18.770  67.119  1.00  0.00    -0.386 OA 
HETATM   33  O   UNL     3      -9.093  18.109  68.752  1.00  0.00    -0.298 OA 
HETATM   34  H   UNL     3      -7.776  18.065  66.056  1.00  0.00     0.000 HD 
ENDBRANCH  26  29
ENDBRANCH  23  26
ENDBRANCH   3  23
BRANCH   3  35
HETATM   35  C   UNL     3     -12.819  13.949  65.432  1.00  0.00    -0.427 C  
HETATM   36  O   UNL     3     -13.139  12.651  65.027  1.00  0.00    -0.808 OA 
HETATM   37  H   UNL     3     -13.660  12.188  65.673  1.00  0.00     0.000 HD 
ENDBRANCH   3  35
TORSDOF 8
ENDMDL
MODEL       14
REMARK 921   NORMALIZED FREE ENERGY PREDICTED BY IDOCK:   -6.28 KCAL/MOL
REMARK 922        TOTAL FREE ENERGY PREDICTED BY IDOCK:  -10.89 KCAL/MOL
REMARK 923 INTER-LIGAND FREE ENERGY PREDICTED BY IDOCK:   -9.17 KCAL/MOL
REMARK 924 INTRA-LIGAND FREE ENERGY PREDICTED BY IDOCK:   -1.71 KCAL/MOL
REMARK 927      BINDING AFFINITY PREDICTED BY RF-SCORE:    0.00 PKD
ROOT
HETATM    1 MN   UNL     1     -10.273  11.761  65.187  1.00  0.00    -0.220 Mn 
HETATM    2  C   UNL     2     -11.064   6.690  70.993  1.00  0.00    -0.282 C  
HETATM    3  C   UNL     3     -11.706  13.700  64.249  1.00  0.00    -0.403 C  
HETATM    4  H   UNL     3     -11.856  15.057  62.869  1.00  0.00     0.000 HD 
HETATM    5  H   UNL     2     -11.043   6.672  69.080  1.00  0.00     0.000 HD 
HETATM    6  O   UNL     2     -11.023   6.002  69.753  1.00  0.00    -0.337 OA 
HETATM    7  O   UNL     3     -12.455  14.489  63.340  1.00  0.00    -0.649 OA 
ENDROOT
BRANCH   2   8
HETATM    8  C   UNL     2     -11.032   5.603  72.086  1.00  0.00    -0.250 C  
HETATM    9  H   UNL     2      -9.915   4.059  72.628  1.00  0.00     0.000 HD 
HETATM   10  O   UNL     2      -9.935   4.729  71.954  1.00  0.00    -0.175 OA 
ENDBRANCH   2   8
BRANCH   2  11
HETATM   11  C   UNL     2     -12.333   7.630  71.011  1.00  0.00    -0.208 C  
HETATM   12  H   UNL     2     -14.203   7.557  71.639  1.00  0.00     0.000 HD 
HETATM   13  O   UNL     2     -13.440   6.992  71.628  1.00  0.00    -0.365 OA 
BRANCH  11  14
HETATM   14  C   UNL     2     -12.151   9.014  71.717  1.00  0.00    -0.368 C  
HETATM   15  H   UNL     2     -12.657   9.774  73.409  1.00  0.00     0.000 HD 
HETATM   16  O   UNL     2     -12.767   8.933  72.980  1.00  0.00    -0.239 OA 
BRANCH  14  17
HETATM   17  C   UNL     2     -12.744  10.230  70.967  1.00  0.00    -0.396 C  
HETATM   18  C   UNL     2     -11.737  10.835  70.005  1.00  0.00    -0.336 C  
HETATM   19  H   UNL     2     -13.491  11.956  71.437  1.00  0.00     0.000 HD 
HETATM   20  O   UNL     2     -13.127  11.209  71.898  1.00  0.00    -0.488 OA 
HETATM   21  O   UNL     2     -12.091  11.876  69.233  1.00  0.00    -0.282 OA 
HETATM   22  O   UNL     2     -10.617  10.346  69.857  1.00  0.00    -0.263 OA 
ENDBRANCH  14  17
ENDBRANCH  11  14
ENDBRANCH   2  11
BRANCH   3  23
HETATM   23  C   UNL     3     -10.822  14.724  65.068  1.00  0.00    -0.425 C  
HETATM   24  O   UNL     3     -11.028  15.962  64.427  1.00  0.00    -0.849 OA 
HETATM   25  H   UNL     3     -10.496  16.577  64.919  1.00  0.00     0.000 HD 
BRANCH  23  26
HETATM   26  C   UNL     3     -10.804  15.047  66.631  1.00  0.00    -0.318 C  
HETATM   27  O   UNL     3     -10.669  16.446  66.691  1.00  0.00    -0.278 OA 
HETATM   28  H   UNL     3     -10.658  16.639  67.621  1.00  0.00     0.000 HD 
BRANCH  26  29
HETATM   29  C   UNL     3      -9.742  14.514  67.709  1.00  0.00    -0.216 C  
HETATM   30  C   UNL     3      -8.689  13.516  67.313  1.00  0.00    -0.225 C  
HETATM   31  O   UNL     3     -10.389  13.937  68.823  1.00  0.00    -0.237 OA 
HETATM   32  O   UNL     3      -9.038  12.272  66.938  1.00  0.00    -0.197 OA 
HETATM   33  O   UNL     3      -7.509  13.782  67.482  1.00  0.00    -0.165 OA 
HETATM   34  H   UNL     3      -9.759  13.621  69.461  1.00  0.00     0.000 HD 
ENDBRANCH  26  29
ENDBRANCH  23  26
ENDBRANCH   3  23
BRANCH   3  35
HETATM   35  C   UNL     3     -12.694  12.764  65.027  1.00  0.00    -0.380 C  
HETATM   36  O   UNL     3     -12.146  12.283  66.219  1.00  0.00    -0.626 OA 
HETATM   37  H   UNL     3     -12.745  11.716  66.691  1.00  0.00     0.000 HD 
ENDBRANCH   3  35
TORSDOF 8
ENDMDL
MODEL       15
REMARK 921   NORMALIZED FREE ENERGY PREDICTED BY IDOCK:   -6.27 KCAL/MOL
REMARK 922        TOTAL FREE ENERGY PREDICTED BY IDOCK:  -10.88 KCAL/MOL
REMARK 923 INTER-LIGAND FREE ENERGY PREDICTED BY IDOCK:   -7.86 KCAL/MOL
REMARK 924 INTRA-LIGAND FREE ENERGY PREDICTED BY IDOCK:   -3.02 KCAL/MOL
REMARK 927      BINDING AFFINITY PREDICTED BY RF-SCORE:    0.00 PKD
ROOT
HETATM    1 MN   UNL     1     -10.436   7.433  69.852  1.00  0.00    -0.194 Mn 
HETATM    2  C   UNL     2     -11.769  13.592  65.342  1.00  0.00    -0.332 C  
HETATM    3  C   UNL     3      -8.625   6.799  71.588  1.00  0.00    -0.125 C  
HETATM    4  H   UNL     3      -7.971   5.420  72.787  1.00  0.00     0.000 HD 
HETATM    5  H   UNL     2     -11.258  11.759  65.135  1.00  0.00     0.000 HD 
HETATM    6  O   UNL     2     -11.526  12.448  64.538  1.00  0.00    -0.312 OA 
HETATM    7  O   UNL     3      -7.583   6.084  72.230  1.00  0.00    -0.097 OA 
ENDROOT
BRANCH   2   8
HETATM    8  C   UNL     2     -12.204  14.709  64.373  1.00  0.00    -0.452 C  
HETATM    9  H   UNL     2     -12.916  14.901  62.535  1.00  0.00     0.000 HD 
HETATM   10  O   UNL     2     -12.648  14.213  63.131  1.00  0.00    -0.686 OA 
ENDBRANCH   2   8
BRANCH   2  11
HETATM   11  C   UNL     2     -10.473  13.899  66.191  1.00  0.00    -0.297 C  
HETATM   12  H   UNL     2      -9.537  15.479  66.917  1.00  0.00     0.000 HD 
HETATM   13  O   UNL     2     -10.316  15.294  66.406  1.00  0.00    -0.271 OA 
BRANCH  11  14
HETATM   14  C   UNL     2     -10.393  13.209  67.593  1.00  0.00    -0.223 C  
HETATM   15  H   UNL     2      -9.413  13.507  69.220  1.00  0.00     0.000 HD 
HETATM   16  O   UNL     2      -9.463  13.926  68.369  1.00  0.00    -0.213 OA 
BRANCH  14  17
HETATM   17  C   UNL     2      -9.968  11.722  67.581  1.00  0.00    -0.194 C  
HETATM   18  C   UNL     2     -11.095  10.818  68.048  1.00  0.00    -0.299 C  
HETATM   19  H   UNL     2      -8.603  10.634  68.425  1.00  0.00     0.000 HD 
HETATM   20  O   UNL     2      -8.864  11.547  68.432  1.00  0.00    -0.157 OA 
HETATM   21  O   UNL     2     -10.922   9.486  68.063  1.00  0.00    -0.203 OA 
HETATM   22  O   UNL     2     -12.200  11.272  68.345  1.00  0.00    -0.604 OA 
ENDBRANCH  14  17
ENDBRANCH  11  14
ENDBRANCH   2  11
BRANCH   3  23
HETATM   23  C   UNL     3      -9.603   7.250  72.745  1.00  0.00    -0.158 C  
HETATM   24  O   UNL     3      -9.157   8.538  73.104  1.00  0.00    -0.257 OA 
HETATM   25  H   UNL     3      -9.745   8.809  73.799  1.00  0.00     0.000 HD 
BRANCH  23  26
HETATM   26  C   UNL     3     -11.197   7.324  72.774  1.00  0.00    -0.304 C  
HETATM   27  O   UNL     3     -11.606   6.215  72.013  1.00  0.00    -0.302 OA 
HETATM   28  H   UNL     3     -12.555   6.258  72.030  1.00  0.00     0.000 HD 
BRANCH  26  29
HETATM   29  C   UNL     3     -12.112   8.523  72.226  1.00  0.00    -0.387 C  
HETATM   30  C   UNL     3     -13.595   8.337  72.061  1.00  0.00    -0.324 C  
HETATM   31  O   UNL     3     -11.661   8.977  70.968  1.00  0.00    -0.277 OA 
HETATM   32  O   UNL     3     -14.075   7.464  71.156  1.00  0.00    -0.345 OA 
HETATM   33  O   UNL     3     -14.367   9.089  72.634  1.00  0.00    -0.603 OA 
HETATM   34  H   UNL     3     -12.203   9.687  70.643  1.00  0.00     0.000 HD 
ENDBRANCH  26  29
ENDBRANCH  23  26
ENDBRANCH   3  23
BRANCH   3  35
HETATM   35  C   UNL     3      -7.984   7.896  70.669  1.00  0.00    -0.096 C  
HETATM   36  O   UNL     3      -8.887   8.910  70.340  1.00  0.00    -0.150 OA 
HETATM   37  H   UNL     3      -8.499   9.575  69.783  1.00  0.00     0.000 HD 
ENDBRANCH   3  35
TORSDOF 8
ENDMDL
MODEL       16
REMARK 921   NORMALIZED FREE ENERGY PREDICTED BY IDOCK:   -6.27 KCAL/MOL
REMARK 922        TOTAL FREE ENERGY PREDICTED BY IDOCK:  -10.88 KCAL/MOL
REMARK 923 INTER-LIGAND FREE ENERGY PREDICTED BY IDOCK:   -8.71 KCAL/MOL
REMARK 924 INTRA-LIGAND FREE ENERGY PREDICTED BY IDOCK:   -2.18 KCAL/MOL
REMARK 927      BINDING AFFINITY PREDICTED BY RF-SCORE:    0.00 PKD
ROOT
HETATM    1 MN   UNL     1     -12.450  13.511  68.936  1.00  0.00    -0.309 Mn 
HETATM    2  C   UNL     2     -10.970   6.382  71.589  1.00  0.00    -0.257 C  
HETATM    3  C   UNL     3     -11.000  15.495  68.125  1.00  0.00    -0.312 C  
HETATM    4  H   UNL     3     -11.009  17.329  67.490  1.00  0.00     0.000 HD 
HETATM    5  H   UNL     2     -11.664   8.035  72.259  1.00  0.00     0.000 HD 
HETATM    6  O   UNL     2     -11.613   7.148  72.596  1.00  0.00    -0.263 OA 
HETATM    7  O   UNL     3     -10.445  16.796  68.039  1.00  0.00    -0.304 OA 
ENDROOT
BRANCH   2   8
HETATM    8  C   UNL     2     -10.887   4.943  72.136  1.00  0.00    -0.066 C  
HETATM    9  H   UNL     2     -11.305   3.948  73.797  1.00  0.00     0.000 HD 
HETATM   10  O   UNL     2     -11.356   4.835  73.460  1.00  0.00    -0.332 OA 
ENDBRANCH   2   8
BRANCH   2  11
HETATM   11  C   UNL     2      -9.583   7.056  71.247  1.00  0.00    -0.164 C  
HETATM   12  H   UNL     2      -8.181   6.906  69.864  1.00  0.00     0.000 HD 
HETATM   13  O   UNL     2      -9.015   6.500  70.070  1.00  0.00    -0.142 OA 
BRANCH  11  14
HETATM   14  C   UNL     2      -9.605   8.609  71.054  1.00  0.00    -0.209 C  
HETATM   15  H   UNL     2      -9.398  10.141  72.196  1.00  0.00     0.000 HD 
HETATM   16  O   UNL     2      -9.385   9.198  72.313  1.00  0.00    -0.238 OA 
BRANCH  14  17
HETATM   17  C   UNL     2     -10.913   9.190  70.470  1.00  0.00    -0.258 C  
HETATM   18  C   UNL     2     -10.648  10.010  69.219  1.00  0.00    -0.227 C  
HETATM   19  H   UNL     2     -12.329  10.370  71.071  1.00  0.00     0.000 HD 
HETATM   20  O   UNL     2     -11.526  10.013  71.429  1.00  0.00    -0.360 OA 
HETATM   21  O   UNL     2     -11.674  10.560  68.549  1.00  0.00    -0.325 OA 
HETATM   22  O   UNL     2      -9.513  10.125  68.756  1.00  0.00    -0.156 OA 
ENDBRANCH  14  17
ENDBRANCH  11  14
ENDBRANCH   2  11
BRANCH   3  23
HETATM   23  C   UNL     3     -11.255  15.045  66.631  1.00  0.00    -0.311 C  
HETATM   24  O   UNL     3     -10.010  14.552  66.191  1.00  0.00    -0.283 OA 
HETATM   25  H   UNL     3     -10.164  14.283  65.293  1.00  0.00     0.000 HD 
BRANCH  23  26
HETATM   26  C   UNL     3     -12.348  14.049  66.028  1.00  0.00    -0.473 C  
HETATM   27  O   UNL     3     -11.983  12.790  66.537  1.00  0.00    -0.402 OA 
HETATM   28  H   UNL     3     -12.632  12.197  66.178  1.00  0.00     0.000 HD 
BRANCH  26  29
HETATM   29  C   UNL     3     -12.634  13.765  64.475  1.00  0.00    -0.202 C  
HETATM   30  C   UNL     3     -11.972  12.612  63.775  1.00  0.00    -0.510 C  
HETATM   31  O   UNL     3     -12.329  14.894  63.683  1.00  0.00    -1.035 OA 
HETATM   32  O   UNL     3     -10.638  12.596  63.603  1.00  0.00    -0.418 OA 
HETATM   33  O   UNL     3     -12.657  11.765  63.223  1.00  0.00    -0.561 OA 
HETATM   34  H   UNL     3     -12.499  14.726  62.764  1.00  0.00     0.000 HD 
ENDBRANCH  26  29
ENDBRANCH  23  26
ENDBRANCH   3  23
BRANCH   3  35
HETATM   35  C   UNL     3     -10.069  14.615  69.030  1.00  0.00    -0.209 C  
HETATM   36  O   UNL     3     -10.138  13.258  68.706  1.00  0.00    -0.379 OA 
HETATM   37  H   UNL     3      -9.574  12.725  69.254  1.00  0.00     0.000 HD 
ENDBRANCH   3  35
TORSDOF 8
ENDMDL
MODEL       17
REMARK 921   NORMALIZED FREE ENERGY PREDICTED BY IDOCK:   -6.22 KCAL/MOL
REMARK 922        TOTAL FREE ENERGY PREDICTED BY IDOCK:  -10.80 KCAL/MOL
REMARK 923 INTER-LIGAND FREE ENERGY PREDICTED BY IDOCK:   -7.86 KCAL/MOL
REMARK 924 INTRA-LIGAND FREE ENERGY PREDICTED BY IDOCK:   -2.94 KCAL/MOL
REMARK 927      BINDING AFFINITY PREDICTED BY RF-SCORE:    0.00 PKD
ROOT
HETATM    1 MN   UNL     1     -11.886   7.947  68.756  1.00  0.00    -0.262 Mn 
HETATM    2  C   UNL     2     -10.876  15.096  65.940  1.00  0.00    -0.339 C  
HETATM    3  C   UNL     3     -10.308   6.075  69.592  1.00  0.00    -0.232 C  
HETATM    4  H   UNL     3     -10.198   4.257  70.265  1.00  0.00     0.000 HD 
HETATM    5  H   UNL     2     -11.472  13.390  65.313  1.00  0.00     0.000 HD 
HETATM    6  O   UNL     2     -11.479  14.270  64.957  1.00  0.00    -0.333 OA 
HETATM    7  O   UNL     3      -9.673   4.812  69.699  1.00  0.00    -0.164 OA 
ENDROOT
BRANCH   2   8
HETATM    8  C   UNL     2     -10.888  16.525  65.363  1.00  0.00    -0.206 C  
HETATM    9  H   UNL     2     -11.520  17.480  63.747  1.00  0.00     0.000 HD 
HETATM   10  O   UNL     2     -11.512  16.599  64.103  1.00  0.00    -1.131 OA 
ENDBRANCH   2   8
BRANCH   2  11
HETATM   11  C   UNL     2      -9.446  14.516  66.282  1.00  0.00    -0.283 C  
HETATM   12  H   UNL     2      -7.625  15.204  66.609  1.00  0.00     0.000 HD 
HETATM   13  O   UNL     2      -8.484  15.553  66.403  1.00  0.00    -0.282 OA 
BRANCH  11  14
HETATM   14  C   UNL     2      -9.351  13.650  67.581  1.00  0.00    -0.215 C  
HETATM   15  H   UNL     2      -8.061  13.414  68.987  1.00  0.00     0.000 HD 
HETATM   16  O   UNL     2      -8.120  13.940  68.198  1.00  0.00    -0.130 OA 
BRANCH  14  17
HETATM   17  C   UNL     2      -9.436  12.120  67.370  1.00  0.00    -0.179 C  
HETATM   18  C   UNL     2     -10.842  11.602  67.620  1.00  0.00    -0.225 C  
HETATM   19  H   UNL     2      -8.606  10.539  68.126  1.00  0.00     0.000 HD 
HETATM   20  O   UNL     2      -8.554  11.478  68.255  1.00  0.00    -0.149 OA 
HETATM   21  O   UNL     2     -11.117  10.298  67.444  1.00  0.00    -0.291 OA 
HETATM   22  O   UNL     2     -11.764  12.364  67.911  1.00  0.00    -0.337 OA 
ENDBRANCH  14  17
ENDBRANCH  11  14
ENDBRANCH   2  11
BRANCH   3  23
HETATM   23  C   UNL     3     -10.576   6.539  71.080  1.00  0.00    -0.231 C  
HETATM   24  O   UNL     3      -9.346   7.073  71.512  1.00  0.00    -0.154 OA 
HETATM   25  H   UNL     3      -9.508   7.351  72.406  1.00  0.00     0.000 HD 
BRANCH  23  26
HETATM   26  C   UNL     3     -11.697   7.513  71.667  1.00  0.00    -0.282 C  
HETATM   27  O   UNL     3     -12.773   7.379  70.771  1.00  0.00    -0.570 OA 
HETATM   28  H   UNL     3     -13.439   7.959  71.120  1.00  0.00     0.000 HD 
BRANCH  26  29
HETATM   29  C   UNL     3     -11.573   9.100  71.880  1.00  0.00    -0.360 C  
HETATM   30  C   UNL     3     -12.647  10.023  71.377  1.00  0.00    -0.415 C  
HETATM   31  O   UNL     3     -10.375   9.599  71.324  1.00  0.00    -0.275 OA 
HETATM   32  O   UNL     3     -12.874  10.148  70.057  1.00  0.00    -0.045 OA 
HETATM   33  O   UNL     3     -13.209  10.778  72.155  1.00  0.00    -0.473 OA 
HETATM   34  H   UNL     3     -10.302  10.538  71.450  1.00  0.00     0.000 HD 
ENDBRANCH  26  29
ENDBRANCH  23  26
ENDBRANCH   3  23
BRANCH   3  35
HETATM   35  C   UNL     3      -9.443   6.990  68.659  1.00  0.00    -0.135 C  
HETATM   36  O   UNL     3      -9.721   8.348  68.837  1.00  0.00    -0.162 OA 
HETATM   37  H   UNL     3      -9.196   8.903  68.272  1.00  0.00     0.000 HD 
ENDBRANCH   3  35
TORSDOF 8
ENDMDL
MODEL       18
REMARK 921   NORMALIZED FREE ENERGY PREDICTED BY IDOCK:   -6.21 KCAL/MOL
REMARK 922        TOTAL FREE ENERGY PREDICTED BY IDOCK:  -10.79 KCAL/MOL
REMARK 923 INTER-LIGAND FREE ENERGY PREDICTED BY IDOCK:   -9.38 KCAL/MOL
REMARK 924 INTRA-LIGAND FREE ENERGY PREDICTED BY IDOCK:   -1.41 KCAL/MOL
REMARK 927      BINDING AFFINITY PREDICTED BY RF-SCORE:    0.00 PKD
ROOT
HETATM    1 MN   UNL     1      -9.940  12.519  65.859  1.00  0.00    -0.220 Mn 
HETATM    2  C   UNL     2     -11.514   6.958  71.022  1.00  0.00    -0.314 C  
HETATM    3  C   UNL     3     -11.210  14.585  64.958  1.00  0.00    -0.382 C  
HETATM    4  H   UNL     3     -11.168  16.069  63.707  1.00  0.00     0.000 HD 
HETATM    5  H   UNL     2     -11.272   7.118  69.131  1.00  0.00     0.000 HD 
HETATM    6  O   UNL     2     -11.347   6.388  69.734  1.00  0.00    -0.384 OA 
HETATM    7  O   UNL     3     -11.830  15.481  64.050  1.00  0.00    -0.467 OA 
ENDROOT
BRANCH   2   8
HETATM    8  C   UNL     2     -11.635   5.773  72.001  1.00  0.00    -0.162 C  
HETATM    9  H   UNL     2     -10.630   4.143  72.505  1.00  0.00     0.000 HD 
HETATM   10  O   UNL     2     -10.556   4.873  71.902  1.00  0.00    -0.191 OA 
ENDBRANCH   2   8
BRANCH   2  11
HETATM   11  C   UNL     2     -12.755   7.936  70.987  1.00  0.00    -0.055 C  
HETATM   12  H   UNL     2     -14.684   7.871  71.402  1.00  0.00     0.000 HD 
HETATM   13  O   UNL     2     -13.938   7.284  71.423  1.00  0.00    -0.398 OA 
BRANCH  11  14
HETATM   14  C   UNL     2     -12.619   9.247  71.828  1.00  0.00    -0.382 C  
HETATM   15  H   UNL     2     -13.389   9.927  73.453  1.00  0.00     0.000 HD 
HETATM   16  O   UNL     2     -13.472   9.131  72.942  1.00  0.00    -0.335 OA 
BRANCH  14  17
HETATM   17  C   UNL     2     -12.971  10.557  71.085  1.00  0.00    -0.411 C  
HETATM   18  C   UNL     2     -11.829  11.015  70.194  1.00  0.00    -0.357 C  
HETATM   19  H   UNL     2     -13.462  12.369  71.567  1.00  0.00     0.000 HD 
HETATM   20  O   UNL     2     -13.246  11.565  72.024  1.00  0.00    -0.509 OA 
HETATM   21  O   UNL     2     -11.971  12.115  69.437  1.00  0.00    -0.303 OA 
HETATM   22  O   UNL     2     -10.794  10.358  70.090  1.00  0.00    -0.283 OA 
ENDBRANCH  14  17
ENDBRANCH  11  14
ENDBRANCH   2  11
BRANCH   3  23
HETATM   23  C   UNL     3     -10.403  15.498  65.966  1.00  0.00    -0.326 C  
HETATM   24  O   UNL     3      -9.088  14.993  65.927  1.00  0.00    -0.477 OA 
HETATM   25  H   UNL     3      -8.604  15.542  66.533  1.00  0.00     0.000 HD 
BRANCH  23  26
HETATM   26  C   UNL     3     -10.252  17.086  66.021  1.00  0.00    -0.325 C  
HETATM   27  O   UNL     3      -8.874  17.306  65.849  1.00  0.00    -0.528 OA 
HETATM   28  H   UNL     3      -8.784  18.251  65.882  1.00  0.00     0.000 HD 
BRANCH  26  29
HETATM   29  C   UNL     3     -10.643  18.045  67.248  1.00  0.00    -0.346 C  
HETATM   30  C   UNL     3      -9.723  19.157  67.669  1.00  0.00    -0.321 C  
HETATM   31  O   UNL     3     -10.876  17.301  68.425  1.00  0.00    -0.354 OA 
HETATM   32  O   UNL     3      -8.510  18.880  68.181  1.00  0.00    -0.289 OA 
HETATM   33  O   UNL     3     -10.136  20.306  67.695  1.00  0.00    -0.404 OA 
HETATM   34  H   UNL     3     -11.107  17.869  69.151  1.00  0.00     0.000 HD 
ENDBRANCH  26  29
ENDBRANCH  23  26
ENDBRANCH   3  23
BRANCH   3  35
HETATM   35  C   UNL     3     -12.303  13.615  65.525  1.00  0.00    -0.482 C  
HETATM   36  O   UNL     3     -12.064  13.263  66.856  1.00  0.00    -0.380 OA 
HETATM   37  H   UNL     3     -12.727  12.675  67.200  1.00  0.00     0.000 HD 
ENDBRANCH   3  35
TORSDOF 8
ENDMDL
MODEL       19
REMARK 921   NORMALIZED FREE ENERGY PREDICTED BY IDOCK:   -6.18 KCAL/MOL
REMARK 922        TOTAL FREE ENERGY PREDICTED BY IDOCK:  -10.75 KCAL/MOL
REMARK 923 INTER-LIGAND FREE ENERGY PREDICTED BY IDOCK:   -9.06 KCAL/MOL
REMARK 924 INTRA-LIGAND FREE ENERGY PREDICTED BY IDOCK:   -1.70 KCAL/MOL
REMARK 927      BINDING AFFINITY PREDICTED BY RF-SCORE:    0.00 PKD
ROOT
HETATM    1 MN   UNL     1      -9.754  12.502  65.377  1.00  0.00    -0.237 Mn 
HETATM    2  C   UNL     2      -9.005   6.543  70.274  1.00  0.00    -0.155 C  
HETATM    3  C   UNL     3     -11.756  13.739  64.301  1.00  0.00    -0.395 C  
HETATM    4  H   UNL     3     -12.297  15.136  63.065  1.00  0.00     0.000 HD 
HETATM    5  H   UNL     2      -8.641   6.929  68.436  1.00  0.00     0.000 HD 
HETATM    6  O   UNL     2      -8.419   6.217  69.024  1.00  0.00    -0.117 OA 
HETATM    7  O   UNL     3     -12.619  14.277  63.313  1.00  0.00    -0.716 OA 
ENDROOT
BRANCH   2   8
HETATM    8  C   UNL     2      -8.645   5.386  71.228  1.00  0.00    -0.126 C  
HETATM    9  H   UNL     2      -8.634   4.998  73.171  1.00  0.00     0.000 HD 
HETATM   10  O   UNL     2      -8.855   5.711  72.583  1.00  0.00    -0.124 OA 
ENDBRANCH   2   8
BRANCH   2  11
HETATM   11  C   UNL     2     -10.551   6.788  70.062  1.00  0.00    -0.220 C  
HETATM   12  H   UNL     2     -12.251   5.867  70.464  1.00  0.00     0.000 HD 
HETATM   13  O   UNL     2     -11.321   5.720  70.591  1.00  0.00    -0.222 OA 
BRANCH  11  14
HETATM   14  C   UNL     2     -11.125   8.110  70.669  1.00  0.00    -0.254 C  
HETATM   15  H   UNL     2     -10.385   9.682  71.494  1.00  0.00     0.000 HD 
HETATM   16  O   UNL     2     -10.037   8.879  71.124  1.00  0.00    -0.222 OA 
BRANCH  14  17
HETATM   17  C   UNL     2     -12.114   7.930  71.845  1.00  0.00    -0.312 C  
HETATM   18  C   UNL     2     -13.156   9.035  71.869  1.00  0.00    -0.400 C  
HETATM   19  H   UNL     2     -12.011   7.840  73.779  1.00  0.00     0.000 HD 
HETATM   20  O   UNL     2     -11.404   7.950  73.057  1.00  0.00    -0.408 OA 
HETATM   21  O   UNL     2     -14.126   9.020  72.798  1.00  0.00    -0.524 OA 
HETATM   22  O   UNL     2     -13.180   9.912  71.007  1.00  0.00    -0.373 OA 
ENDBRANCH  14  17
ENDBRANCH  11  14
ENDBRANCH   2  11
BRANCH   3  23
HETATM   23  C   UNL     3     -11.637  14.858  65.411  1.00  0.00    -0.280 C  
HETATM   24  O   UNL     3     -10.568  14.437  66.226  1.00  0.00    -0.283 OA 
HETATM   25  H   UNL     3     -10.497  15.109  66.894  1.00  0.00     0.000 HD 
BRANCH  23  26
HETATM   26  C   UNL     3     -11.469  16.438  65.266  1.00  0.00     0.332 C  
HETATM   27  O   UNL     3     -11.067  16.620  63.930  1.00  0.00    -1.242 OA 
HETATM   28  H   UNL     3     -10.967  17.560  63.843  1.00  0.00     0.000 HD 
BRANCH  26  29
HETATM   29  C   UNL     3     -10.467  17.377  66.096  1.00  0.00    -0.284 C  
HETATM   30  C   UNL     3     -10.734  18.851  66.228  1.00  0.00    -0.287 C  
HETATM   31  O   UNL     3      -9.150  17.290  65.595  1.00  0.00    -0.487 OA 
HETATM   32  O   UNL     3     -10.694  19.648  65.145  1.00  0.00    -0.330 OA 
HETATM   33  O   UNL     3     -10.832  19.351  67.337  1.00  0.00    -0.490 OA 
HETATM   34  H   UNL     3      -8.556  17.846  66.087  1.00  0.00     0.000 HD 
ENDBRANCH  26  29
ENDBRANCH  23  26
ENDBRANCH   3  23
BRANCH   3  35
HETATM   35  C   UNL     3     -12.288  12.322  64.709  1.00  0.00    -0.339 C  
HETATM   36  O   UNL     3     -12.157  12.078  66.079  1.00  0.00    -0.561 OA 
HETATM   37  H   UNL     3     -12.479  11.219  66.326  1.00  0.00     0.000 HD 
ENDBRANCH   3  35
TORSDOF 8
ENDMDL
MODEL       20
REMARK 921   NORMALIZED FREE ENERGY PREDICTED BY IDOCK:   -6.12 KCAL/MOL
REMARK 922        TOTAL FREE ENERGY PREDICTED BY IDOCK:  -10.66 KCAL/MOL
REMARK 923 INTER-LIGAND FREE ENERGY PREDICTED BY IDOCK:   -8.29 KCAL/MOL
REMARK 924 INTRA-LIGAND FREE ENERGY PREDICTED BY IDOCK:   -2.37 KCAL/MOL
REMARK 927      BINDING AFFINITY PREDICTED BY RF-SCORE:    0.00 PKD
ROOT
HETATM    1 MN   UNL     1      -9.136  13.976  69.612  1.00  0.00    -0.365 Mn 
HETATM    2  C   UNL     2      -9.236   6.229  69.455  1.00  0.00    -0.138 C  
HETATM    3  C   UNL     3     -10.078  15.845  68.090  1.00  0.00    -0.229 C  
HETATM    4  H   UNL     3     -10.193  17.760  67.792  1.00  0.00     0.000 HD 
HETATM    5  H   UNL     2      -7.959   7.640  69.262  1.00  0.00     0.000 HD 
HETATM    6  O   UNL     2      -7.901   6.696  69.353  1.00  0.00    -0.108 OA 
HETATM    7  O   UNL     3     -10.126  16.984  67.248  1.00  0.00    -0.279 OA 
ENDROOT
BRANCH   2   8
HETATM    8  C   UNL     2      -9.141   4.697  69.604  1.00  0.00    -0.109 C  
HETATM    9  H   UNL     2      -8.808   3.103  68.477  1.00  0.00     0.000 HD 
HETATM   10  O   UNL     2      -8.867   4.046  68.385  1.00  0.00    -0.096 OA 
ENDBRANCH   2   8
BRANCH   2  11
HETATM   11  C   UNL     2     -10.049   6.737  68.199  1.00  0.00    -0.164 C  
HETATM   12  H   UNL     2     -11.889   6.612  67.494  1.00  0.00     0.000 HD 
HETATM   13  O   UNL     2     -11.400   6.305  68.249  1.00  0.00    -0.289 OA 
BRANCH  11  14
HETATM   14  C   UNL     2     -10.072   8.286  67.979  1.00  0.00    -0.198 C  
HETATM   15  H   UNL     2      -8.827   9.605  67.341  1.00  0.00     0.000 HD 
HETATM   16  O   UNL     2      -8.813   8.664  67.475  1.00  0.00    -0.133 OA 
BRANCH  14  17
HETATM   17  C   UNL     2     -10.362   9.135  69.240  1.00  0.00    -0.216 C  
HETATM   18  C   UNL     2     -11.192  10.362  68.904  1.00  0.00    -0.235 C  
HETATM   19  H   UNL     2      -9.326  10.072  70.583  1.00  0.00     0.000 HD 
HETATM   20  O   UNL     2      -9.148   9.551  69.810  1.00  0.00    -0.172 OA 
HETATM   21  O   UNL     2     -11.578  11.196  69.884  1.00  0.00    -0.282 OA 
HETATM   22  O   UNL     2     -11.588  10.575  67.759  1.00  0.00    -0.462 OA 
ENDBRANCH  14  17
ENDBRANCH  11  14
ENDBRANCH   2  11
BRANCH   3  23
HETATM   23  C   UNL     3     -11.315  15.988  69.064  1.00  0.00    -0.363 C  
HETATM   24  O   UNL     3     -12.406  15.480  68.330  1.00  0.00    -0.410 OA 
HETATM   25  H   UNL     3     -13.149  15.566  68.915  1.00  0.00     0.000 HD 
BRANCH  23  26
HETATM   26  C   UNL     3     -11.517  15.455  70.555  1.00  0.00    -0.327 C  
HETATM   27  O   UNL     3     -11.223  14.083  70.474  1.00  0.00    -0.494 OA 
HETATM   28  H   UNL     3     -11.343  13.766  71.361  1.00  0.00     0.000 HD 
BRANCH  26  29
HETATM   29  C   UNL     3     -12.871  15.505  71.417  1.00  0.00    -0.465 C  
HETATM   30  C   UNL     3     -13.186  14.418  72.407  1.00  0.00    -0.440 C  
HETATM   31  O   UNL     3     -14.007  15.575  70.581  1.00  0.00    -0.868 OA 
HETATM   32  O   UNL     3     -13.416  13.161  71.987  1.00  0.00    -0.469 OA 
HETATM   33  O   UNL     3     -13.387  14.705  73.576  1.00  0.00    -0.492 OA 
HETATM   34  H   UNL     3     -14.808  15.604  71.091  1.00  0.00     0.000 HD 
ENDBRANCH  26  29
ENDBRANCH  23  26
ENDBRANCH   3  23
BRANCH   3  35
HETATM   35  C   UNL     3      -9.968  14.565  67.192  1.00  0.00    -0.252 C  
HETATM   36  O   UNL     3     -10.540  13.441  67.792  1.00  0.00    -0.239 OA 
HETATM   37  H   UNL     3     -10.474  12.665  67.248  1.00  0.00     0.000 HD 
ENDBRANCH   3  35
TORSDOF 8
ENDMDL
MODEL       21
REMARK 921   NORMALIZED FREE ENERGY PREDICTED BY IDOCK:   -6.12 KCAL/MOL
REMARK 922        TOTAL FREE ENERGY PREDICTED BY IDOCK:  -10.66 KCAL/MOL
REMARK 923 INTER-LIGAND FREE ENERGY PREDICTED BY IDOCK:   -8.08 KCAL/MOL
REMARK 924 INTRA-LIGAND FREE ENERGY PREDICTED BY IDOCK:   -2.58 KCAL/MOL
REMARK 927      BINDING AFFINITY PREDICTED BY RF-SCORE:    0.00 PKD
ROOT
HETATM    1 MN   UNL     1     -12.737  13.679  68.610  1.00  0.00    -0.334 Mn 
HETATM    2  C   UNL     2      -9.985   6.665  66.796  1.00  0.00    -0.176 C  
HETATM    3  C   UNL     3     -12.682  15.170  70.724  1.00  0.00    -0.405 C  
HETATM    4  H   UNL     3     -13.271  16.840  71.520  1.00  0.00     0.000 HD 
HETATM    5  H   UNL     2     -11.685   7.501  67.068  1.00  0.00     0.000 HD 
HETATM    6  O   UNL     2     -11.402   6.660  66.727  1.00  0.00    -0.270 OA 
HETATM    7  O   UNL     3     -13.128  15.950  71.820  1.00  0.00    -0.462 OA 
ENDROOT
BRANCH   2   8
HETATM    8  C   UNL     2      -9.527   5.301  66.243  1.00  0.00    -0.156 C  
HETATM    9  H   UNL     2     -10.312   3.687  65.403  1.00  0.00     0.000 HD 
HETATM   10  O   UNL     2     -10.594   4.528  65.744  1.00  0.00    -0.285 OA 
ENDBRANCH   2   8
BRANCH   2  11
HETATM   11  C   UNL     2      -9.550   6.973  68.283  1.00  0.00    -0.134 C  
HETATM   12  H   UNL     2      -8.152   6.394  69.551  1.00  0.00     0.000 HD 
HETATM   13  O   UNL     2      -8.414   6.209  68.657  1.00  0.00    -0.113 OA 
BRANCH  11  14
HETATM   14  C   UNL     2      -9.222   8.468  68.605  1.00  0.00    -0.142 C  
HETATM   15  H   UNL     2      -8.088   9.391  69.854  1.00  0.00     0.000 HD 
HETATM   16  O   UNL     2      -8.288   8.483  69.658  1.00  0.00    -0.116 OA 
BRANCH  14  17
HETATM   17  C   UNL     2     -10.429   9.343  69.017  1.00  0.00    -0.217 C  
HETATM   18  C   UNL     2     -10.887  10.233  67.875  1.00  0.00    -0.284 C  
HETATM   19  H   UNL     2     -10.806  10.691  70.359  1.00  0.00     0.000 HD 
HETATM   20  O   UNL     2     -10.065  10.154  70.105  1.00  0.00    -0.246 OA 
HETATM   21  O   UNL     2     -11.953  11.033  68.036  1.00  0.00    -0.623 OA 
HETATM   22  O   UNL     2     -10.348  10.185  66.769  1.00  0.00    -0.223 OA 
ENDBRANCH  14  17
ENDBRANCH  11  14
ENDBRANCH   2  11
BRANCH   3  23
HETATM   23  C   UNL     3     -11.466  15.969  70.105  1.00  0.00    -0.344 C  
HETATM   24  O   UNL     3     -10.323  15.371  70.672  1.00  0.00    -0.439 OA 
HETATM   25  H   UNL     3      -9.593  15.852  70.300  1.00  0.00     0.000 HD 
BRANCH  23  26
HETATM   26  C   UNL     3     -11.091  16.252  68.580  1.00  0.00    -0.368 C  
HETATM   27  O   UNL     3     -10.712  14.993  68.080  1.00  0.00    -0.252 OA 
HETATM   28  H   UNL     3     -10.488  15.161  67.172  1.00  0.00     0.000 HD 
BRANCH  26  29
HETATM   29  C   UNL     3      -9.944  17.238  68.041  1.00  0.00    -0.304 C  
HETATM   30  C   UNL     3      -9.450  17.132  66.625  1.00  0.00    -0.264 C  
HETATM   31  O   UNL     3      -8.782  17.157  68.838  1.00  0.00    -0.259 OA 
HETATM   32  O   UNL     3      -8.794  16.032  66.214  1.00  0.00    -0.295 OA 
HETATM   33  O   UNL     3      -9.505  18.106  65.890  1.00  0.00    -0.518 OA 
HETATM   34  H   UNL     3      -8.104  17.740  68.519  1.00  0.00     0.000 HD 
ENDBRANCH  26  29
ENDBRANCH  23  26
ENDBRANCH   3  23
BRANCH   3  35
HETATM   35  C   UNL     3     -12.447  13.701  71.220  1.00  0.00    -0.326 C  
HETATM   36  O   UNL     3     -11.628  12.971  70.355  1.00  0.00    -0.525 OA 
HETATM   37  H   UNL     3     -11.485  12.081  70.656  1.00  0.00     0.000 HD 
ENDBRANCH   3  35
TORSDOF 8
ENDMDL
MODEL       22
REMARK 921   NORMALIZED FREE ENERGY PREDICTED BY IDOCK:   -6.10 KCAL/MOL
REMARK 922        TOTAL FREE ENERGY PREDICTED BY IDOCK:  -10.63 KCAL/MOL
REMARK 923 INTER-LIGAND FREE ENERGY PREDICTED BY IDOCK:   -8.48 KCAL/MOL
REMARK 924 INTRA-LIGAND FREE ENERGY PREDICTED BY IDOCK:   -2.14 KCAL/MOL
REMARK 927      BINDING AFFINITY PREDICTED BY RF-SCORE:    0.00 PKD
ROOT
HETATM    1 MN   UNL     1      -7.387  11.739  66.038  1.00  0.00    -0.296 Mn 
HETATM    2  C   UNL     2      -7.056  19.418  67.023  1.00  0.00    -0.206 C  
HETATM    3  C   UNL     3      -8.480   9.779  67.327  1.00  0.00    -0.125 C  
HETATM    4  H   UNL     3      -8.711   7.853  67.414  1.00  0.00     0.000 HD 
HETATM    5  H   UNL     2      -5.866  17.921  67.095  1.00  0.00     0.000 HD 
HETATM    6  O   UNL     2      -5.752  18.864  67.106  1.00  0.00    -0.156 OA 
HETATM    7  O   UNL     3      -8.618   8.562  68.041  1.00  0.00    -0.132 OA 
ENDROOT
BRANCH   2   8
HETATM    8  C   UNL     2      -6.870  20.948  67.041  1.00  0.00    -0.333 C  
HETATM    9  H   UNL     2      -5.484  22.281  67.515  1.00  0.00     0.000 HD 
HETATM   10  O   UNL     2      -5.598  21.338  67.504  1.00  0.00    -0.278 OA 
ENDBRANCH   2   8
BRANCH   2  11
HETATM   11  C   UNL     2      -7.934  18.829  68.196  1.00  0.00    -0.290 C  
HETATM   12  H   UNL     2      -8.244  19.179  70.114  1.00  0.00     0.000 HD 
HETATM   13  O   UNL     2      -7.715  19.533  69.409  1.00  0.00    -0.267 OA 
BRANCH  11  14
HETATM   14  C   UNL     2      -9.479  18.809  67.951  1.00  0.00    -0.304 C  
HETATM   15  H   UNL     2     -11.045  18.640  69.053  1.00  0.00     0.000 HD 
HETATM   16  O   UNL     2     -10.107  18.653  69.201  1.00  0.00    -0.355 OA 
BRANCH  14  17
HETATM   17  C   UNL     2      -9.992  17.693  67.011  1.00  0.00    -0.320 C  
HETATM   18  C   UNL     2     -10.580  18.268  65.735  1.00  0.00    -0.186 C  
HETATM   19  H   UNL     2     -11.297  16.262  67.093  1.00  0.00     0.000 HD 
HETATM   20  O   UNL     2     -10.982  16.947  67.671  1.00  0.00    -0.285 OA 
HETATM   21  O   UNL     2     -11.039  17.444  64.778  1.00  0.00    -0.973 OA 
HETATM   22  O   UNL     2     -10.582  19.480  65.518  1.00  0.00    -0.474 OA 
ENDBRANCH  14  17
ENDBRANCH  11  14
ENDBRANCH   2  11
BRANCH   3  23
HETATM   23  C   UNL     3      -9.692   9.813  66.312  1.00  0.00    -0.234 C  
HETATM   24  O   UNL     3     -10.718   9.100  66.962  1.00  0.00    -0.234 OA 
HETATM   25  H   UNL     3     -11.446   9.120  66.352  1.00  0.00     0.000 HD 
BRANCH  23  26
HETATM   26  C   UNL     3     -10.410  11.053  65.609  1.00  0.00    -0.251 C  
HETATM   27  O   UNL     3      -9.348  11.881  65.204  1.00  0.00    -0.420 OA 
HETATM   28  H   UNL     3      -9.774  12.619  64.786  1.00  0.00     0.000 HD 
BRANCH  26  29
HETATM   29  C   UNL     3     -11.450  12.070  66.287  1.00  0.00    -0.345 C  
HETATM   30  C   UNL     3     -11.097  13.521  66.460  1.00  0.00    -0.300 C  
HETATM   31  O   UNL     3     -11.829  11.632  67.575  1.00  0.00    -0.591 OA 
HETATM   32  O   UNL     3     -10.098  13.884  67.284  1.00  0.00    -0.238 OA 
HETATM   33  O   UNL     3     -11.815  14.381  65.975  1.00  0.00    -0.373 OA 
HETATM   34  H   UNL     3     -12.445  12.235  67.976  1.00  0.00     0.000 HD 
ENDBRANCH  26  29
ENDBRANCH  23  26
ENDBRANCH   3  23
BRANCH   3  35
HETATM   35  C   UNL     3      -8.325  10.948  68.360  1.00  0.00    -0.136 C  
HETATM   36  O   UNL     3      -9.494  11.168  69.093  1.00  0.00    -0.382 OA 
HETATM   37  H   UNL     3      -9.400  11.877  69.719  1.00  0.00     0.000 HD 
ENDBRANCH   3  35
TORSDOF 8
ENDMDL
MODEL       23
REMARK 921   NORMALIZED FREE ENERGY PREDICTED BY IDOCK:   -6.10 KCAL/MOL
REMARK 922        TOTAL FREE ENERGY PREDICTED BY IDOCK:  -10.63 KCAL/MOL
REMARK 923 INTER-LIGAND FREE ENERGY PREDICTED BY IDOCK:   -8.23 KCAL/MOL
REMARK 924 INTRA-LIGAND FREE ENERGY PREDICTED BY IDOCK:   -2.40 KCAL/MOL
REMARK 927      BINDING AFFINITY PREDICTED BY RF-SCORE:    0.00 PKD
ROOT
HETATM    1 MN   UNL     1     -12.301   6.846  69.752  1.00  0.00    -0.531 Mn 
HETATM    2  C   UNL     2     -12.169  13.168  65.273  1.00  0.00    -0.455 C  
HETATM    3  C   UNL     3     -10.520   5.168  70.594  1.00  0.00    -0.199 C  
HETATM    4  H   UNL     3     -10.206   3.542  71.607  1.00  0.00     0.000 HD 
HETATM    5  H   UNL     2     -12.846  11.380  65.193  1.00  0.00     0.000 HD 
HETATM    6  O   UNL     2     -12.960  12.161  64.663  1.00  0.00    -0.651 OA 
HETATM    7  O   UNL     3      -9.842   3.945  70.827  1.00  0.00    -0.194 OA 
ENDROOT
BRANCH   2   8
HETATM    8  C   UNL     2     -12.355  14.435  64.413  1.00  0.00    -0.403 C  
HETATM    9  H   UNL     2     -12.878  14.925  62.567  1.00  0.00     0.000 HD 
HETATM   10  O   UNL     2     -12.763  14.145  63.097  1.00  0.00    -0.627 OA 
ENDBRANCH   2   8
BRANCH   2  11
HETATM   11  C   UNL     2     -10.684  12.644  65.395  1.00  0.00    -0.280 C  
HETATM   12  H   UNL     2      -9.191  12.177  64.190  1.00  0.00     0.000 HD 
HETATM   13  O   UNL     2     -10.084  12.492  64.117  1.00  0.00    -0.337 OA 
BRANCH  11  14
HETATM   14  C   UNL     2      -9.715  13.523  66.253  1.00  0.00    -0.277 C  
HETATM   15  H   UNL     2      -8.180  13.198  67.362  1.00  0.00     0.000 HD 
HETATM   16  O   UNL     2      -8.768  12.665  66.841  1.00  0.00    -0.204 OA 
BRANCH  14  17
HETATM   17  C   UNL     2     -10.383  14.349  67.377  1.00  0.00    -0.252 C  
HETATM   18  C   UNL     2     -10.334  15.837  67.078  1.00  0.00    -0.292 C  
HETATM   19  H   UNL     2     -10.125  14.615  69.280  1.00  0.00     0.000 HD 
HETATM   20  O   UNL     2      -9.716  14.108  68.590  1.00  0.00    -0.223 OA 
HETATM   21  O   UNL     2     -10.905  16.709  67.926  1.00  0.00    -0.347 OA 
HETATM   22  O   UNL     2      -9.846  16.265  66.032  1.00  0.00    -0.305 OA 
ENDBRANCH  14  17
ENDBRANCH  11  14
ENDBRANCH   2  11
BRANCH   3  23
HETATM   23  C   UNL     3     -10.452   5.956  71.963  1.00  0.00    -0.214 C  
HETATM   24  O   UNL     3      -9.123   6.419  72.040  1.00  0.00    -0.142 OA 
HETATM   25  H   UNL     3      -9.082   6.892  72.862  1.00  0.00     0.000 HD 
BRANCH  23  26
HETATM   26  C   UNL     3     -11.356   7.155  72.506  1.00  0.00    -0.279 C  
HETATM   27  O   UNL     3     -12.613   6.932  71.916  1.00  0.00    -0.403 OA 
HETATM   28  H   UNL     3     -13.151   7.645  72.239  1.00  0.00     0.000 HD 
BRANCH  26  29
HETATM   29  C   UNL     3     -11.103   8.724  72.284  1.00  0.00    -0.270 C  
HETATM   30  C   UNL     3     -12.045   9.537  71.441  1.00  0.00    -0.378 C  
HETATM   31  O   UNL     3      -9.825   8.964  71.733  1.00  0.00    -0.298 OA 
HETATM   32  O   UNL     3     -12.158   9.298  70.122  1.00  0.00     0.067 OA 
HETATM   33  O   UNL     3     -12.593  10.518  71.920  1.00  0.00    -0.381 OA 
HETATM   34  H   UNL     3      -9.675   9.893  71.602  1.00  0.00     0.000 HD 
ENDBRANCH  26  29
ENDBRANCH  23  26
ENDBRANCH   3  23
BRANCH   3  35
HETATM   35  C   UNL     3      -9.919   5.833  69.308  1.00  0.00    -0.182 C  
HETATM   36  O   UNL     3     -10.160   7.209  69.257  1.00  0.00    -0.168 OA 
HETATM   37  H   UNL     3      -9.795   7.612  68.478  1.00  0.00     0.000 HD 
ENDBRANCH   3  35
TORSDOF 8
ENDMDL
MODEL       24
REMARK 921   NORMALIZED FREE ENERGY PREDICTED BY IDOCK:   -6.10 KCAL/MOL
REMARK 922        TOTAL FREE ENERGY PREDICTED BY IDOCK:  -10.62 KCAL/MOL
REMARK 923 INTER-LIGAND FREE ENERGY PREDICTED BY IDOCK:   -8.71 KCAL/MOL
REMARK 924 INTRA-LIGAND FREE ENERGY PREDICTED BY IDOCK:   -1.91 KCAL/MOL
REMARK 927      BINDING AFFINITY PREDICTED BY RF-SCORE:    0.00 PKD
ROOT
HETATM    1 MN   UNL     1     -12.057  14.325  67.302  1.00  0.00    -0.309 Mn 
HETATM    2  C   UNL     2     -11.812   7.763  71.418  1.00  0.00    -0.297 C  
HETATM    3  C   UNL     3     -10.854  16.612  67.440  1.00  0.00    -0.186 C  
HETATM    4  H   UNL     3     -10.710  18.392  66.679  1.00  0.00     0.000 HD 
HETATM    5  H   UNL     2     -13.045   9.188  71.081  1.00  0.00     0.000 HD 
HETATM    6  O   UNL     2     -13.106   8.338  71.502  1.00  0.00    -0.325 OA 
HETATM    7  O   UNL     3     -10.653  18.011  67.548  1.00  0.00    -0.395 OA 
ENDROOT
BRANCH   2   8
HETATM    8  C   UNL     2     -11.912   6.385  72.101  1.00  0.00    -0.298 C  
HETATM    9  H   UNL     2     -10.999   4.628  72.064  1.00  0.00     0.000 HD 
HETATM   10  O   UNL     2     -10.938   5.477  71.643  1.00  0.00    -0.238 OA 
ENDBRANCH   2   8
BRANCH   2  11
HETATM   11  C   UNL     2     -10.770   8.762  72.058  1.00  0.00    -0.347 C  
HETATM   12  H   UNL     2      -9.357   8.722  73.437  1.00  0.00     0.000 HD 
HETATM   13  O   UNL     2      -9.984   8.121  73.052  1.00  0.00    -0.285 OA 
BRANCH  11  14
HETATM   14  C   UNL     2      -9.777   9.449  71.063  1.00  0.00    -0.223 C  
HETATM   15  H   UNL     2      -9.939  10.593  69.527  1.00  0.00     0.000 HD 
HETATM   16  O   UNL     2     -10.542  10.176  70.132  1.00  0.00    -0.272 OA 
BRANCH  14  17
HETATM   17  C   UNL     2      -8.847   8.492  70.282  1.00  0.00    -0.148 C  
HETATM   18  C   UNL     2      -7.410   8.984  70.289  1.00  0.00    -0.076 C  
HETATM   19  H   UNL     2      -8.716   7.810  68.472  1.00  0.00     0.000 HD 
HETATM   20  O   UNL     2      -9.287   8.398  68.951  1.00  0.00    -0.147 OA 
HETATM   21  O   UNL     2      -6.450   8.257  69.694  1.00  0.00    -0.036 OA 
HETATM   22  O   UNL     2      -7.085  10.005  70.895  1.00  0.00    -0.337 OA 
ENDBRANCH  14  17
ENDBRANCH  11  14
ENDBRANCH   2  11
BRANCH   3  23
HETATM   23  C   UNL     3      -9.842  16.125  66.327  1.00  0.00    -0.307 C  
HETATM   24  O   UNL     3      -8.881  15.370  67.027  1.00  0.00    -0.197 OA 
HETATM   25  H   UNL     3      -8.273  15.078  66.358  1.00  0.00     0.000 HD 
BRANCH  23  26
HETATM   26  C   UNL     3     -10.111  15.327  64.971  1.00  0.00    -0.215 C  
HETATM   27  O   UNL     3     -11.018  16.139  64.268  1.00  0.00    -1.016 OA 
HETATM   28  H   UNL     3     -11.178  15.664  63.461  1.00  0.00     0.000 HD 
BRANCH  26  29
HETATM   29  C   UNL     3     -10.731  13.853  64.833  1.00  0.00    -0.410 C  
HETATM   30  C   UNL     3     -12.185  13.665  64.502  1.00  0.00    -0.401 C  
HETATM   31  O   UNL     3     -10.525  13.098  66.008  1.00  0.00    -0.274 OA 
HETATM   32  O   UNL     3     -13.136  14.059  65.368  1.00  0.00    -0.763 OA 
HETATM   33  O   UNL     3     -12.503  13.013  63.520  1.00  0.00    -0.694 OA 
HETATM   34  H   UNL     3     -10.892  12.225  65.926  1.00  0.00     0.000 HD 
ENDBRANCH  26  29
ENDBRANCH  23  26
ENDBRANCH   3  23
BRANCH   3  35
HETATM   35  C   UNL     3     -10.761  15.983  68.873  1.00  0.00    -0.275 C  
HETATM   36  O   UNL     3     -10.723  14.587  68.841  1.00  0.00    -0.241 OA 
HETATM   37  H   UNL     3     -10.666  14.206  69.710  1.00  0.00     0.000 HD 
ENDBRANCH   3  35
TORSDOF 8
ENDMDL
MODEL       25
REMARK 921   NORMALIZED FREE ENERGY PREDICTED BY IDOCK:   -6.08 KCAL/MOL
REMARK 922        TOTAL FREE ENERGY PREDICTED BY IDOCK:  -10.60 KCAL/MOL
REMARK 923 INTER-LIGAND FREE ENERGY PREDICTED BY IDOCK:   -8.13 KCAL/MOL
REMARK 924 INTRA-LIGAND FREE ENERGY PREDICTED BY IDOCK:   -2.47 KCAL/MOL
REMARK 927      BINDING AFFINITY PREDICTED BY RF-SCORE:    0.00 PKD
ROOT
HETATM    1 MN   UNL     1      -9.216  12.660  65.005  1.00  0.00    -0.415 Mn 
HETATM    2  C   UNL     2      -6.353  19.828  64.310  1.00  0.00    -0.038 C  
HETATM    3  C   UNL     3     -10.044  11.209  66.982  1.00  0.00    -0.200 C  
HETATM    4  H   UNL     3     -10.724   9.471  67.515  1.00  0.00     0.000 HD 
HETATM    5  H   UNL     2      -5.741  18.025  64.117  1.00  0.00     0.000 HD 
HETATM    6  O   UNL     2      -5.381  18.878  63.903  1.00  0.00    -0.237 OA 
HETATM    7  O   UNL     3     -10.149  10.128  67.892  1.00  0.00    -0.163 OA 
ENDROOT
BRANCH   2   8
HETATM    8  C   UNL     2      -5.769  21.212  63.962  1.00  0.00    -0.245 C  
HETATM    9  H   UNL     2      -5.163  22.222  62.370  1.00  0.00     0.000 HD 
HETATM   10  O   UNL     2      -5.523  21.369  62.584  1.00  0.00    -0.205 OA 
ENDBRANCH   2   8
BRANCH   2  11
HETATM   11  C   UNL     2      -6.681  19.596  65.838  1.00  0.00    -0.249 C  
HETATM   12  H   UNL     2      -6.070  20.276  67.588  1.00  0.00     0.000 HD 
HETATM   13  O   UNL     2      -5.873  20.415  66.669  1.00  0.00    -0.172 OA 
BRANCH  11  14
HETATM   14  C   UNL     2      -8.167  19.836  66.264  1.00  0.00    -0.350 C  
HETATM   15  H   UNL     2      -9.134  21.237  67.158  1.00  0.00     0.000 HD 
HETATM   16  O   UNL     2      -8.232  21.091  66.898  1.00  0.00    -0.045 OA 
BRANCH  14  17
HETATM   17  C   UNL     2      -8.765  18.779  67.222  1.00  0.00    -0.274 C  
HETATM   18  C   UNL     2     -10.125  18.302  66.744  1.00  0.00    -0.364 C  
HETATM   19  H   UNL     2      -9.274  18.690  69.091  1.00  0.00     0.000 HD 
HETATM   20  O   UNL     2      -8.906  19.339  68.503  1.00  0.00    -0.348 OA 
HETATM   21  O   UNL     2     -10.780  17.349  67.429  1.00  0.00    -0.333 OA 
HETATM   22  O   UNL     2     -10.616  18.714  65.693  1.00  0.00    -0.610 OA 
ENDBRANCH  14  17
ENDBRANCH  11  14
ENDBRANCH   2  11
BRANCH   3  23
HETATM   23  C   UNL     3     -11.532  11.611  66.629  1.00  0.00    -0.206 C  
HETATM   24  O   UNL     3     -12.079  12.053  67.849  1.00  0.00    -0.531 OA 
HETATM   25  H   UNL     3     -12.973  12.294  67.636  1.00  0.00     0.000 HD 
BRANCH  23  26
HETATM   26  C   UNL     3     -12.091  12.612  65.519  1.00  0.00    -0.458 C  
HETATM   27  O   UNL     3     -11.335  12.312  64.372  1.00  0.00    -0.307 OA 
HETATM   28  H   UNL     3     -11.667  12.908  63.711  1.00  0.00     0.000 HD 
BRANCH  26  29
HETATM   29  C   UNL     3     -12.073  14.217  65.578  1.00  0.00    -0.414 C  
HETATM   30  C   UNL     3     -11.200  15.005  64.643  1.00  0.00    -0.332 C  
HETATM   31  O   UNL     3     -11.733  14.677  66.868  1.00  0.00    -0.375 OA 
HETATM   32  O   UNL     3      -9.861  14.918  64.726  1.00  0.00    -0.110 OA 
HETATM   33  O   UNL     3     -11.701  15.844  63.910  1.00  0.00    -0.571 OA 
HETATM   34  H   UNL     3     -11.722  15.627  66.903  1.00  0.00     0.000 HD 
ENDBRANCH  26  29
ENDBRANCH  23  26
ENDBRANCH   3  23
BRANCH   3  35
HETATM   35  C   UNL     3      -9.096  12.292  67.603  1.00  0.00    -0.184 C  
HETATM   36  O   UNL     3      -9.500  12.684  68.882  1.00  0.00    -0.397 OA 
HETATM   37  H   UNL     3      -8.925  13.341  69.258  1.00  0.00     0.000 HD 
ENDBRANCH   3  35
TORSDOF 8
ENDMDL
MODEL       26
REMARK 921   NORMALIZED FREE ENERGY PREDICTED BY IDOCK:   -6.06 KCAL/MOL
REMARK 922        TOTAL FREE ENERGY PREDICTED BY IDOCK:  -10.57 KCAL/MOL
REMARK 923 INTER-LIGAND FREE ENERGY PREDICTED BY IDOCK:   -8.83 KCAL/MOL
REMARK 924 INTRA-LIGAND FREE ENERGY PREDICTED BY IDOCK:   -1.73 KCAL/MOL
REMARK 927      BINDING AFFINITY PREDICTED BY RF-SCORE:    0.00 PKD
ROOT
HETATM    1 MN   UNL     1     -12.211  13.527  67.014  1.00  0.00    -0.315 Mn 
HETATM    2  C   UNL     2     -10.619   7.312  71.361  1.00  0.00    -0.211 C  
HETATM    3  C   UNL     3     -10.792  15.328  65.815  1.00  0.00    -0.358 C  
HETATM    4  H   UNL     3     -10.833  16.956  64.758  1.00  0.00     0.000 HD 
HETATM    5  H   UNL     2     -11.408   9.041  71.583  1.00  0.00     0.000 HD 
HETATM    6  O   UNL     2     -11.343   8.264  72.125  1.00  0.00    -0.301 OA 
HETATM    7  O   UNL     3     -10.281  16.596  65.443  1.00  0.00    -0.585 OA 
ENDROOT
BRANCH   2   8
HETATM    8  C   UNL     2     -10.515   6.050  72.240  1.00  0.00    -0.205 C  
HETATM    9  H   UNL     2     -10.477   5.563  74.159  1.00  0.00     0.000 HD 
HETATM   10  O   UNL     2     -10.541   6.341  73.618  1.00  0.00    -0.257 OA 
ENDBRANCH   2   8
BRANCH   2  11
HETATM   11  C   UNL     2      -9.241   7.951  70.927  1.00  0.00    -0.152 C  
HETATM   12  H   UNL     2      -7.358   7.388  70.742  1.00  0.00     0.000 HD 
HETATM   13  O   UNL     2      -8.187   7.004  71.003  1.00  0.00    -0.115 OA 
BRANCH  11  14
HETATM   14  C   UNL     2      -9.195   8.572  69.492  1.00  0.00    -0.150 C  
HETATM   15  H   UNL     2      -7.819   9.216  68.314  1.00  0.00     0.000 HD 
HETATM   16  O   UNL     2      -7.848   8.838  69.185  1.00  0.00    -0.094 OA 
BRANCH  14  17
HETATM   17  C   UNL     2     -10.001   9.879  69.305  1.00  0.00    -0.207 C  
HETATM   18  C   UNL     2     -10.875   9.821  68.064  1.00  0.00    -0.223 C  
HETATM   19  H   UNL     2      -9.606  11.762  69.066  1.00  0.00     0.000 HD 
HETATM   20  O   UNL     2      -9.112  10.960  69.182  1.00  0.00    -0.142 OA 
HETATM   21  O   UNL     2     -11.680  10.853  67.763  1.00  0.00    -0.569 OA 
HETATM   22  O   UNL     2     -10.922   8.812  67.360  1.00  0.00    -0.119 OA 
ENDBRANCH  14  17
ENDBRANCH  11  14
ENDBRANCH   2  11
BRANCH   3  23
HETATM   23  C   UNL     3     -10.950  14.524  64.462  1.00  0.00    -0.249 C  
HETATM   24  O   UNL     3      -9.720  13.856  64.300  1.00  0.00    -0.553 OA 
HETATM   25  H   UNL     3      -9.815  13.374  63.487  1.00  0.00     0.000 HD 
BRANCH  23  26
HETATM   26  C   UNL     3     -12.069  13.478  64.012  1.00  0.00    -0.441 C  
HETATM   27  O   UNL     3     -13.076  13.612  64.984  1.00  0.00    -0.742 OA 
HETATM   28  H   UNL     3     -13.742  12.990  64.716  1.00  0.00     0.000 HD 
BRANCH  26  29
HETATM   29  C   UNL     3     -11.892  11.890  63.862  1.00  0.00    -0.411 C  
HETATM   30  C   UNL     3     -10.523  11.283  63.735  1.00  0.00    -0.399 C  
HETATM   31  O   UNL     3     -12.612  11.397  62.751  1.00  0.00    -0.952 OA 
HETATM   32  O   UNL     3      -9.762  11.539  62.656  1.00  0.00    -0.263 OA 
HETATM   33  O   UNL     3     -10.162  10.433  64.534  1.00  0.00    -0.342 OA 
HETATM   34  H   UNL     3     -12.507  10.457  62.662  1.00  0.00     0.000 HD 
ENDBRANCH  26  29
ENDBRANCH  23  26
ENDBRANCH   3  23
BRANCH   3  35
HETATM   35  C   UNL     3      -9.880  14.734  66.944  1.00  0.00    -0.243 C  
HETATM   36  O   UNL     3     -10.002  13.347  67.053  1.00  0.00    -0.238 OA 
HETATM   37  H   UNL     3      -9.450  12.987  67.737  1.00  0.00     0.000 HD 
ENDBRANCH   3  35
TORSDOF 8
ENDMDL
MODEL       27
REMARK 921   NORMALIZED FREE ENERGY PREDICTED BY IDOCK:   -6.04 KCAL/MOL
REMARK 922        TOTAL FREE ENERGY PREDICTED BY IDOCK:  -10.55 KCAL/MOL
REMARK 923 INTER-LIGAND FREE ENERGY PREDICTED BY IDOCK:   -8.76 KCAL/MOL
REMARK 924 INTRA-LIGAND FREE ENERGY PREDICTED BY IDOCK:   -1.79 KCAL/MOL
REMARK 927      BINDING AFFINITY PREDICTED BY RF-SCORE:    0.00 PKD
ROOT
HETATM    1 MN   UNL     1      -9.653  11.149  70.425  1.00  0.00    -0.245 Mn 
HETATM    2  C   UNL     2      -8.892  18.056  66.996  1.00  0.00    -0.254 C  
HETATM    3  C   UNL     3     -11.529   9.372  70.554  1.00  0.00    -0.262 C  
HETATM    4  H   UNL     3     -12.070   7.669  71.312  1.00  0.00     0.000 HD 
HETATM    5  H   UNL     2      -9.027  17.355  68.771  1.00  0.00     0.000 HD 
HETATM    6  O   UNL     2      -8.814  18.205  68.405  1.00  0.00    -0.283 OA 
HETATM    7  O   UNL     3     -12.498   8.489  71.094  1.00  0.00    -0.273 OA 
ENDROOT
BRANCH   2   8
HETATM    8  C   UNL     2      -8.545  19.436  66.401  1.00  0.00    -0.354 C  
HETATM    9  H   UNL     2      -8.992  21.344  66.690  1.00  0.00     0.000 HD 
HETATM   10  O   UNL     2      -9.205  20.494  67.056  1.00  0.00    -0.361 OA 
ENDBRANCH   2   8
BRANCH   2  11
HETATM   11  C   UNL     2     -10.322  17.498  66.623  1.00  0.00    -0.319 C  
HETATM   12  H   UNL     2     -11.528  17.484  65.060  1.00  0.00     0.000 HD 
HETATM   13  O   UNL     2     -10.668  17.820  65.285  1.00  0.00    -0.649 OA 
BRANCH  11  14
HETATM   14  C   UNL     2     -10.520  15.955  66.788  1.00  0.00    -0.309 C  
HETATM   15  H   UNL     2      -9.372  14.445  67.099  1.00  0.00     0.000 HD 
HETATM   16  O   UNL     2      -9.252  15.382  66.999  1.00  0.00    -0.206 OA 
BRANCH  14  17
HETATM   17  C   UNL     2     -11.182  15.236  65.589  1.00  0.00    -0.256 C  
HETATM   18  C   UNL     2     -12.169  14.178  66.052  1.00  0.00    -0.443 C  
HETATM   19  H   UNL     2     -10.595  14.177  64.075  1.00  0.00     0.000 HD 
HETATM   20  O   UNL     2     -10.189  14.619  64.811  1.00  0.00    -0.367 OA 
HETATM   21  O   UNL     2     -12.873  13.478  65.147  1.00  0.00    -0.681 OA 
HETATM   22  O   UNL     2     -12.399  13.995  67.247  1.00  0.00    -0.351 OA 
ENDBRANCH  14  17
ENDBRANCH  11  14
ENDBRANCH   2  11
BRANCH   3  23
HETATM   23  C   UNL     3     -10.810   8.557  69.405  1.00  0.00    -0.091 C  
HETATM   24  O   UNL     3      -9.587   9.227  69.207  1.00  0.00    -0.154 OA 
HETATM   25  H   UNL     3      -9.155   8.738  68.517  1.00  0.00     0.000 HD 
BRANCH  23  26
HETATM   26  C   UNL     3     -10.469   7.001  69.306  1.00  0.00    -0.210 C  
HETATM   27  O   UNL     3     -11.727   6.375  69.268  1.00  0.00    -0.608 OA 
HETATM   28  H   UNL     3     -11.524   5.449  69.209  1.00  0.00     0.000 HD 
BRANCH  26  29
HETATM   29  C   UNL     3      -9.641   6.131  70.372  1.00  0.00    -0.164 C  
HETATM   30  C   UNL     3     -10.350   5.177  71.292  1.00  0.00    -0.205 C  
HETATM   31  O   UNL     3      -8.876   6.957  71.223  1.00  0.00    -0.134 OA 
HETATM   32  O   UNL     3     -11.202   5.637  72.225  1.00  0.00    -0.266 OA 
HETATM   33  O   UNL     3     -10.035   3.997  71.298  1.00  0.00    -0.185 OA 
HETATM   34  H   UNL     3      -8.387   6.442  71.854  1.00  0.00     0.000 HD 
ENDBRANCH  26  29
ENDBRANCH  23  26
ENDBRANCH   3  23
BRANCH   3  35
HETATM   35  C   UNL     3     -12.234  10.725  70.194  1.00  0.00    -0.346 C  
HETATM   36  O   UNL     3     -12.287  10.948  68.816  1.00  0.00    -0.783 OA 
HETATM   37  H   UNL     3     -12.715  11.768  68.597  1.00  0.00     0.000 HD 
ENDBRANCH   3  35
TORSDOF 8
ENDMDL
MODEL       28
REMARK 921   NORMALIZED FREE ENERGY PREDICTED BY IDOCK:   -6.04 KCAL/MOL
REMARK 922        TOTAL FREE ENERGY PREDICTED BY IDOCK:  -10.54 KCAL/MOL
REMARK 923 INTER-LIGAND FREE ENERGY PREDICTED BY IDOCK:   -8.41 KCAL/MOL
REMARK 924 INTRA-LIGAND FREE ENERGY PREDICTED BY IDOCK:   -2.13 KCAL/MOL
REMARK 927      BINDING AFFINITY PREDICTED BY RF-SCORE:    0.00 PKD
ROOT
HETATM    1 MN   UNL     1      -8.969  13.939  65.750  1.00  0.00    -0.417 Mn 
HETATM    2  C   UNL     2      -9.640   7.469  69.963  1.00  0.00    -0.164 C  
HETATM    3  C   UNL     3     -10.568  15.863  65.093  1.00  0.00    -0.397 C  
HETATM    4  H   UNL     3     -10.764  17.504  64.074  1.00  0.00     0.000 HD 
HETATM    5  H   UNL     2      -9.384   7.954  68.130  1.00  0.00     0.000 HD 
HETATM    6  O   UNL     2      -9.340   7.139  68.616  1.00  0.00    -0.136 OA 
HETATM    7  O   UNL     3     -11.317  16.764  64.295  1.00  0.00    -1.170 OA 
ENDROOT
BRANCH   2   8
HETATM    8  C   UNL     2      -9.568   6.147  70.752  1.00  0.00    -0.169 C  
HETATM    9  H   UNL     2      -8.400   5.262  72.085  1.00  0.00     0.000 HD 
HETATM   10  O   UNL     2      -8.444   6.077  71.598  1.00  0.00    -0.126 OA 
ENDBRANCH   2   8
BRANCH   2  11
HETATM   11  C   UNL     2     -11.035   8.209  70.007  1.00  0.00    -0.199 C  
HETATM   12  H   UNL     2     -12.592   8.332  71.215  1.00  0.00     0.000 HD 
HETATM   13  O   UNL     2     -11.753   7.887  71.188  1.00  0.00    -0.281 OA 
BRANCH  11  14
HETATM   14  C   UNL     2     -10.987   9.769  69.911  1.00  0.00    -0.264 C  
HETATM   15  H   UNL     2     -12.008  11.226  70.641  1.00  0.00     0.000 HD 
HETATM   16  O   UNL     2     -12.037  10.278  70.699  1.00  0.00    -0.291 OA 
BRANCH  14  17
HETATM   17  C   UNL     2     -11.126  10.355  68.486  1.00  0.00    -0.266 C  
HETATM   18  C   UNL     2      -9.851  11.053  68.045  1.00  0.00    -0.171 C  
HETATM   19  H   UNL     2     -12.267  11.641  67.589  1.00  0.00     0.000 HD 
HETATM   20  O   UNL     2     -12.181  11.282  68.464  1.00  0.00    -0.588 OA 
HETATM   21  O   UNL     2      -9.772  11.588  66.815  1.00  0.00    -0.194 OA 
HETATM   22  O   UNL     2      -8.853  11.079  68.764  1.00  0.00    -0.161 OA 
ENDBRANCH  14  17
ENDBRANCH  11  14
ENDBRANCH   2  11
BRANCH   3  23
HETATM   23  C   UNL     3      -9.965  16.739  66.263  1.00  0.00    -0.320 C  
HETATM   24  O   UNL     3      -8.927  15.950  66.798  1.00  0.00    -0.211 OA 
HETATM   25  H   UNL     3      -8.565  16.476  67.501  1.00  0.00     0.000 HD 
BRANCH  23  26
HETATM   26  C   UNL     3      -9.402  18.232  66.245  1.00  0.00    -0.213 C  
HETATM   27  O   UNL     3      -8.152  18.121  65.609  1.00  0.00    -0.488 OA 
HETATM   28  H   UNL     3      -7.817  19.010  65.599  1.00  0.00     0.000 HD 
BRANCH  26  29
HETATM   29  C   UNL     3      -9.100  19.160  67.520  1.00  0.00    -0.294 C  
HETATM   30  C   UNL     3      -7.880  18.921  68.366  1.00  0.00    -0.325 C  
HETATM   31  O   UNL     3     -10.181  19.147  68.429  1.00  0.00    -0.387 OA 
HETATM   32  O   UNL     3      -7.756  17.785  69.075  1.00  0.00    -0.232 OA 
HETATM   33  O   UNL     3      -7.075  19.823  68.534  1.00  0.00    -0.301 OA 
HETATM   34  H   UNL     3     -10.002  19.696  69.184  1.00  0.00     0.000 HD 
ENDBRANCH  26  29
ENDBRANCH  23  26
ENDBRANCH   3  23
BRANCH   3  35
HETATM   35  C   UNL     3     -11.482  14.642  65.457  1.00  0.00    -0.341 C  
HETATM   36  O   UNL     3     -11.276  14.193  66.764  1.00  0.00    -0.306 OA 
HETATM   37  H   UNL     3     -11.829  13.453  66.984  1.00  0.00     0.000 HD 
ENDBRANCH   3  35
TORSDOF 8
ENDMDL
MODEL       29
REMARK 921   NORMALIZED FREE ENERGY PREDICTED BY IDOCK:   -6.04 KCAL/MOL
REMARK 922        TOTAL FREE ENERGY PREDICTED BY IDOCK:  -10.54 KCAL/MOL
REMARK 923 INTER-LIGAND FREE ENERGY PREDICTED BY IDOCK:   -8.31 KCAL/MOL
REMARK 924 INTRA-LIGAND FREE ENERGY PREDICTED BY IDOCK:   -2.23 KCAL/MOL
REMARK 927      BINDING AFFINITY PREDICTED BY RF-SCORE:    0.00 PKD
ROOT
HETATM    1 MN   UNL     1     -12.065   6.853  68.899  1.00  0.00    -0.518 Mn 
HETATM    2  C   UNL     2     -11.569  13.768  65.437  1.00  0.00    -0.320 C  
HETATM    3  C   UNL     3     -10.546   5.498  70.496  1.00  0.00    -0.269 C  
HETATM    4  H   UNL     3     -10.321   3.825  71.455  1.00  0.00     0.000 HD 
HETATM    5  H   UNL     2     -11.553  11.921  64.937  1.00  0.00     0.000 HD 
HETATM    6  O   UNL     2     -11.610  12.741  64.460  1.00  0.00    -0.317 OA 
HETATM    7  O   UNL     3      -9.752   4.441  71.007  1.00  0.00    -0.165 OA 
ENDROOT
BRANCH   2   8
HETATM    8  C   UNL     2     -11.660  15.098  64.662  1.00  0.00    -0.357 C  
HETATM    9  H   UNL     2     -12.711  15.900  63.187  1.00  0.00     0.000 HD 
HETATM   10  O   UNL     2     -12.654  15.080  63.664  1.00  0.00    -0.680 OA 
ENDBRANCH   2   8
BRANCH   2  11
HETATM   11  C   UNL     2     -10.268  13.584  66.314  1.00  0.00    -0.299 C  
HETATM   12  H   UNL     2      -8.573  14.542  66.641  1.00  0.00     0.000 HD 
HETATM   13  O   UNL     2      -9.355  14.653  66.114  1.00  0.00    -0.285 OA 
BRANCH  11  14
HETATM   14  C   UNL     2     -10.493  13.457  67.856  1.00  0.00    -0.240 C  
HETATM   15  H   UNL     2     -11.360  12.199  69.023  1.00  0.00     0.000 HD 
HETATM   16  O   UNL     2     -11.223  12.276  68.086  1.00  0.00    -0.232 OA 
BRANCH  14  17
HETATM   17  C   UNL     2     -11.252  14.631  68.519  1.00  0.00    -0.271 C  
HETATM   18  C   UNL     2     -10.327  15.483  69.369  1.00  0.00    -0.258 C  
HETATM   19  H   UNL     2     -12.742  14.841  69.742  1.00  0.00     0.000 HD 
HETATM   20  O   UNL     2     -12.275  14.121  69.335  1.00  0.00    -0.331 OA 
HETATM   21  O   UNL     2     -10.804  16.576  69.988  1.00  0.00    -0.344 OA 
HETATM   22  O   UNL     2      -9.122  15.241  69.446  1.00  0.00    -0.244 OA 
ENDBRANCH  14  17
ENDBRANCH  11  14
ENDBRANCH   2  11
BRANCH   3  23
HETATM   23  C   UNL     3     -11.408   6.007  71.719  1.00  0.00    -0.265 C  
HETATM   24  O   UNL     3     -10.519   5.991  72.811  1.00  0.00    -0.199 OA 
HETATM   25  H   UNL     3     -11.038   6.297  73.546  1.00  0.00     0.000 HD 
BRANCH  23  26
HETATM   26  C   UNL     3     -12.269   7.342  71.885  1.00  0.00    -0.313 C  
HETATM   27  O   UNL     3     -13.127   7.339  70.771  1.00  0.00    -0.603 OA 
HETATM   28  H   UNL     3     -13.639   8.133  70.870  1.00  0.00     0.000 HD 
BRANCH  26  29
HETATM   29  C   UNL     3     -11.709   8.845  71.932  1.00  0.00    -0.369 C  
HETATM   30  C   UNL     3     -11.835   9.744  70.734  1.00  0.00    -0.319 C  
HETATM   31  O   UNL     3     -10.336   8.870  72.263  1.00  0.00    -0.302 OA 
HETATM   32  O   UNL     3     -11.174   9.459  69.598  1.00  0.00    -0.189 OA 
HETATM   33  O   UNL     3     -12.410  10.816  70.840  1.00  0.00    -0.328 OA 
HETATM   34  H   UNL     3     -10.005   9.760  72.290  1.00  0.00     0.000 HD 
ENDBRANCH  26  29
ENDBRANCH  23  26
ENDBRANCH   3  23
BRANCH   3  35
HETATM   35  C   UNL     3      -9.607   6.514  69.758  1.00  0.00    -0.152 C  
HETATM   36  O   UNL     3      -8.751   7.183  70.636  1.00  0.00    -0.145 OA 
HETATM   37  H   UNL     3      -8.182   7.799  70.188  1.00  0.00     0.000 HD 
ENDBRANCH   3  35
TORSDOF 8
ENDMDL
MODEL       30
REMARK 921   NORMALIZED FREE ENERGY PREDICTED BY IDOCK:   -6.02 KCAL/MOL
REMARK 922        TOTAL FREE ENERGY PREDICTED BY IDOCK:  -10.52 KCAL/MOL
REMARK 923 INTER-LIGAND FREE ENERGY PREDICTED BY IDOCK:   -8.32 KCAL/MOL
REMARK 924 INTRA-LIGAND FREE ENERGY PREDICTED BY IDOCK:   -2.20 KCAL/MOL
REMARK 927      BINDING AFFINITY PREDICTED BY RF-SCORE:    0.00 PKD
ROOT
HETATM    1 MN   UNL     1      -9.520   9.114  71.149  1.00  0.00    -0.154 Mn 
HETATM    2  C   UNL     2     -11.029  14.819  66.127  1.00  0.00    -0.332 C  
HETATM    3  C   UNL     3     -10.789   7.007  71.953  1.00  0.00    -0.224 C  
HETATM    4  H   UNL     3     -10.761   5.484  73.157  1.00  0.00     0.000 HD 
HETATM    5  H   UNL     2     -10.832  14.602  68.017  1.00  0.00     0.000 HD 
HETATM    6  O   UNL     2     -10.900  15.350  67.436  1.00  0.00    -0.298 OA 
HETATM    7  O   UNL     3     -11.421   6.077  72.816  1.00  0.00    -0.267 OA 
ENDROOT
BRANCH   2   8
HETATM    8  C   UNL     2     -11.138  16.034  65.183  1.00  0.00    -0.283 C  
HETATM    9  H   UNL     2     -10.226  17.761  64.857  1.00  0.00     0.000 HD 
HETATM   10  O   UNL     2     -10.159  17.013  65.439  1.00  0.00    -0.581 OA 
ENDBRANCH   2   8
BRANCH   2  11
HETATM   11  C   UNL     2     -12.259  13.828  66.100  1.00  0.00    -0.459 C  
HETATM   12  H   UNL     2     -13.955  13.623  65.110  1.00  0.00     0.000 HD 
HETATM   13  O   UNL     2     -13.215  14.219  65.126  1.00  0.00    -0.686 OA 
BRANCH  11  14
HETATM   14  C   UNL     2     -11.922  12.325  65.832  1.00  0.00    -0.287 C  
HETATM   15  H   UNL     2     -11.717  10.746  66.911  1.00  0.00     0.000 HD 
HETATM   16  O   UNL     2     -11.922  11.660  67.073  1.00  0.00    -0.593 OA 
BRANCH  14  17
HETATM   17  C   UNL     2     -10.564  12.058  65.141  1.00  0.00    -0.288 C  
HETATM   18  C   UNL     2     -10.708  12.017  63.630  1.00  0.00    -0.449 C  
HETATM   19  H   UNL     2      -9.219  10.662  65.157  1.00  0.00     0.000 HD 
HETATM   20  O   UNL     2     -10.052  10.826  65.581  1.00  0.00    -0.244 OA 
HETATM   21  O   UNL     2      -9.622  11.838  62.859  1.00  0.00    -0.355 OA 
HETATM   22  O   UNL     2     -11.791  12.221  63.083  1.00  0.00    -0.389 OA 
ENDBRANCH  14  17
ENDBRANCH  11  14
ENDBRANCH   2  11
BRANCH   3  23
HETATM   23  C   UNL     3      -9.947   6.136  70.937  1.00  0.00    -0.185 C  
HETATM   24  O   UNL     3     -10.894   5.288  70.327  1.00  0.00    -0.225 OA 
HETATM   25  H   UNL     3     -10.388   4.765  69.717  1.00  0.00     0.000 HD 
BRANCH  23  26
HETATM   26  C   UNL     3      -8.960   6.588  69.767  1.00  0.00    -0.142 C  
HETATM   27  O   UNL     3      -8.034   7.431  70.406  1.00  0.00    -0.100 OA 
HETATM   28  H   UNL     3      -7.446   7.701  69.710  1.00  0.00     0.000 HD 
BRANCH  26  29
HETATM   29  C   UNL     3      -9.354   7.392  68.435  1.00  0.00    -0.144 C  
HETATM   30  C   UNL     3      -8.841   8.786  68.206  1.00  0.00    -0.141 C  
HETATM   31  O   UNL     3     -10.755   7.493  68.294  1.00  0.00    -0.347 OA 
HETATM   32  O   UNL     3      -9.224   9.793  69.011  1.00  0.00    -0.150 OA 
HETATM   33  O   UNL     3      -8.201   9.037  67.197  1.00  0.00    -0.109 OA 
HETATM   34  H   UNL     3     -10.989   7.969  67.506  1.00  0.00     0.000 HD 
ENDBRANCH  26  29
ENDBRANCH  23  26
ENDBRANCH   3  23
BRANCH   3  35
HETATM   35  C   UNL     3     -11.878   7.983  71.389  1.00  0.00    -0.295 C  
HETATM   36  O   UNL     3     -12.795   7.336  70.558  1.00  0.00    -0.590 OA 
HETATM   37  H   UNL     3     -13.456   7.928  70.216  1.00  0.00     0.000 HD 
ENDBRANCH   3  35
TORSDOF 8
ENDMDL
MODEL       31
REMARK 921   NORMALIZED FREE ENERGY PREDICTED BY IDOCK:   -6.01 KCAL/MOL
REMARK 922        TOTAL FREE ENERGY PREDICTED BY IDOCK:  -10.49 KCAL/MOL
REMARK 923 INTER-LIGAND FREE ENERGY PREDICTED BY IDOCK:   -8.29 KCAL/MOL
REMARK 924 INTRA-LIGAND FREE ENERGY PREDICTED BY IDOCK:   -2.20 KCAL/MOL
REMARK 927      BINDING AFFINITY PREDICTED BY RF-SCORE:    0.00 PKD
ROOT
HETATM    1 MN   UNL     1     -11.892  11.049  68.194  1.00  0.00    -0.244 Mn 
HETATM    2  C   UNL     2     -10.482  18.469  66.459  1.00  0.00    -0.398 C  
HETATM    3  C   UNL     3     -10.536   9.144  69.304  1.00  0.00    -0.216 C  
HETATM    4  H   UNL     3     -10.532   7.272  69.816  1.00  0.00     0.000 HD 
HETATM    5  H   UNL     2     -10.766  16.819  65.533  1.00  0.00     0.000 HD 
HETATM    6  O   UNL     2     -10.715  17.731  65.270  1.00  0.00    -0.649 OA 
HETATM    7  O   UNL     3      -9.894   7.895  69.488  1.00  0.00    -0.172 OA 
ENDROOT
BRANCH   2   8
HETATM    8  C   UNL     2     -10.399  19.948  66.034  1.00  0.00    -0.486 C  
HETATM    9  H   UNL     2     -11.219  21.171  64.709  1.00  0.00     0.000 HD 
HETATM   10  O   UNL     2     -11.270  20.259  64.971  1.00  0.00    -0.104 OA 
ENDBRANCH   2   8
BRANCH   2  11
HETATM   11  C   UNL     2      -9.191  17.896  67.168  1.00  0.00    -0.258 C  
HETATM   12  H   UNL     2      -7.695  18.576  68.262  1.00  0.00     0.000 HD 
HETATM   13  O   UNL     2      -8.471  18.920  67.835  1.00  0.00    -0.278 OA 
BRANCH  11  14
HETATM   14  C   UNL     2      -9.432  16.753  68.209  1.00  0.00    -0.240 C  
HETATM   15  H   UNL     2      -8.371  15.855  69.537  1.00  0.00     0.000 HD 
HETATM   16  O   UNL     2      -8.225  16.549  68.905  1.00  0.00    -0.231 OA 
BRANCH  14  17
HETATM   17  C   UNL     2      -9.884  15.397  67.619  1.00  0.00    -0.220 C  
HETATM   18  C   UNL     2     -11.323  15.082  67.988  1.00  0.00    -0.327 C  
HETATM   19  H   UNL     2      -9.334  13.543  67.750  1.00  0.00     0.000 HD 
HETATM   20  O   UNL     2      -9.056  14.375  68.112  1.00  0.00    -0.180 OA 
HETATM   21  O   UNL     2     -11.903  13.962  67.527  1.00  0.00    -0.356 OA 
HETATM   22  O   UNL     2     -12.004  15.871  68.644  1.00  0.00    -0.338 OA 
ENDBRANCH  14  17
ENDBRANCH  11  14
ENDBRANCH   2  11
BRANCH   3  23
HETATM   23  C   UNL     3     -11.265   9.450  70.674  1.00  0.00    -0.284 C  
HETATM   24  O   UNL     3     -12.511   9.991  70.300  1.00  0.00    -0.488 OA 
HETATM   25  H   UNL     3     -12.948  10.174  71.123  1.00  0.00     0.000 HD 
BRANCH  23  26
HETATM   26  C   UNL     3     -11.568   8.491  71.913  1.00  0.00    -0.341 C  
HETATM   27  O   UNL     3     -10.308   8.283  72.503  1.00  0.00    -0.303 OA 
HETATM   28  H   UNL     3     -10.488   7.712  73.241  1.00  0.00     0.000 HD 
BRANCH  26  29
HETATM   29  C   UNL     3     -12.210   7.021  71.855  1.00  0.00    -0.327 C  
HETATM   30  C   UNL     3     -11.404   5.820  72.264  1.00  0.00    -0.278 C  
HETATM   31  O   UNL     3     -12.680   6.719  70.559  1.00  0.00    -0.502 OA 
HETATM   32  O   UNL     3     -10.323   5.452  71.554  1.00  0.00    -0.211 OA 
HETATM   33  O   UNL     3     -11.819   5.086  73.148  1.00  0.00    -0.279 OA 
HETATM   34  H   UNL     3     -13.060   5.849  70.524  1.00  0.00     0.000 HD 
ENDBRANCH  26  29
ENDBRANCH  23  26
ENDBRANCH   3  23
BRANCH   3  35
HETATM   35  C   UNL     3      -9.483  10.172  68.763  1.00  0.00    -0.171 C  
HETATM   36  O   UNL     3      -9.786  11.487  69.125  1.00  0.00    -0.410 OA 
HETATM   37  H   UNL     3      -9.147  12.109  68.798  1.00  0.00     0.000 HD 
ENDBRANCH   3  35
TORSDOF 8
ENDMDL
MODEL       32
REMARK 921   NORMALIZED FREE ENERGY PREDICTED BY IDOCK:   -5.99 KCAL/MOL
REMARK 922        TOTAL FREE ENERGY PREDICTED BY IDOCK:  -10.47 KCAL/MOL
REMARK 923 INTER-LIGAND FREE ENERGY PREDICTED BY IDOCK:   -9.12 KCAL/MOL
REMARK 924 INTRA-LIGAND FREE ENERGY PREDICTED BY IDOCK:   -1.36 KCAL/MOL
REMARK 927      BINDING AFFINITY PREDICTED BY RF-SCORE:    0.00 PKD
ROOT
HETATM    1 MN   UNL     1     -10.775  10.609  71.338  1.00  0.00    -0.236 Mn 
HETATM    2  C   UNL     2      -8.639  16.440  66.703  1.00  0.00    -0.260 C  
HETATM    3  C   UNL     3     -13.023   9.464  71.914  1.00  0.00    -0.417 C  
HETATM    4  H   UNL     3     -13.898   8.112  72.997  1.00  0.00     0.000 HD 
HETATM    5  H   UNL     2      -8.743  16.077  68.579  1.00  0.00     0.000 HD 
HETATM    6  O   UNL     2      -8.359  16.770  68.054  1.00  0.00    -0.191 OA 
HETATM    7  O   UNL     3     -14.118   8.976  72.670  1.00  0.00    -0.516 OA 
ENDROOT
BRANCH   2   8
HETATM    8  C   UNL     2      -8.016  17.564  65.852  1.00  0.00    -0.036 C  
HETATM    9  H   UNL     2      -7.405  19.437  66.063  1.00  0.00     0.000 HD 
HETATM   10  O   UNL     2      -7.790  18.744  66.587  1.00  0.00    -0.244 OA 
ENDBRANCH   2   8
BRANCH   2  11
HETATM   11  C   UNL     2     -10.199  16.254  66.540  1.00  0.00    -0.300 C  
HETATM   12  H   UNL     2     -11.829  17.363  66.655  1.00  0.00     0.000 HD 
HETATM   13  O   UNL     2     -10.890  17.475  66.754  1.00  0.00    -0.169 OA 
BRANCH  11  14
HETATM   14  C   UNL     2     -10.682  15.690  65.162  1.00  0.00    -0.443 C  
HETATM   15  H   UNL     2     -11.348  16.443  63.524  1.00  0.00     0.000 HD 
HETATM   16  O   UNL     2     -11.055  16.785  64.361  1.00  0.00    -1.072 OA 
BRANCH  14  17
HETATM   17  C   UNL     2     -11.874  14.707  65.224  1.00  0.00    -0.324 C  
HETATM   18  C   UNL     2     -11.403  13.268  65.334  1.00  0.00    -0.295 C  
HETATM   19  H   UNL     2     -13.382  14.240  64.098  1.00  0.00     0.000 HD 
HETATM   20  O   UNL     2     -12.649  14.843  64.061  1.00  0.00    -0.832 OA 
HETATM   21  O   UNL     2     -12.303  12.276  65.442  1.00  0.00    -0.582 OA 
HETATM   22  O   UNL     2     -10.207  12.988  65.403  1.00  0.00    -0.292 OA 
ENDBRANCH  14  17
ENDBRANCH  11  14
ENDBRANCH   2  11
BRANCH   3  23
HETATM   23  C   UNL     3     -12.684   8.320  70.876  1.00  0.00     0.110 C  
HETATM   24  O   UNL     3     -11.581   8.814  70.152  1.00  0.00    -0.458 OA 
HETATM   25  H   UNL     3     -11.379   8.126  69.528  1.00  0.00     0.000 HD 
BRANCH  23  26
HETATM   26  C   UNL     3     -12.382   6.771  71.115  1.00  0.00    -0.333 C  
HETATM   27  O   UNL     3     -13.223   6.418  72.186  1.00  0.00    -0.474 OA 
HETATM   28  H   UNL     3     -13.043   5.496  72.329  1.00  0.00     0.000 HD 
BRANCH  26  29
HETATM   29  C   UNL     3     -10.969   6.118  71.508  1.00  0.00    -0.273 C  
HETATM   30  C   UNL     3     -10.905   4.937  72.435  1.00  0.00    -0.137 C  
HETATM   31  O   UNL     3     -10.104   7.076  72.080  1.00  0.00    -0.180 OA 
HETATM   32  O   UNL     3     -11.285   5.059  73.720  1.00  0.00    -0.287 OA 
HETATM   33  O   UNL     3     -10.363   3.907  72.067  1.00  0.00    -0.140 OA 
HETATM   34  H   UNL     3      -9.268   6.690  72.313  1.00  0.00     0.000 HD 
ENDBRANCH  26  29
ENDBRANCH  23  26
ENDBRANCH   3  23
BRANCH   3  35
HETATM   35  C   UNL     3     -13.385  10.891  71.375  1.00  0.00    -0.121 C  
HETATM   36  O   UNL     3     -13.429  11.849  72.390  1.00  0.00    -0.611 OA 
HETATM   37  H   UNL     3     -13.649  12.714  72.063  1.00  0.00     0.000 HD 
ENDBRANCH   3  35
TORSDOF 8
ENDMDL
MODEL       33
REMARK 921   NORMALIZED FREE ENERGY PREDICTED BY IDOCK:   -5.99 KCAL/MOL
REMARK 922        TOTAL FREE ENERGY PREDICTED BY IDOCK:  -10.46 KCAL/MOL
REMARK 923 INTER-LIGAND FREE ENERGY PREDICTED BY IDOCK:   -9.29 KCAL/MOL
REMARK 924 INTRA-LIGAND FREE ENERGY PREDICTED BY IDOCK:   -1.18 KCAL/MOL
REMARK 927      BINDING AFFINITY PREDICTED BY RF-SCORE:    0.00 PKD
ROOT
HETATM    1 MN   UNL     1     -11.826  14.827  67.878  1.00  0.00    -0.273 Mn 
HETATM    2  C   UNL     2     -10.256   7.985  71.161  1.00  0.00    -0.193 C  
HETATM    3  C   UNL     3     -10.644  16.328  66.133  1.00  0.00    -0.267 C  
HETATM    4  H   UNL     3     -10.697  18.017  65.177  1.00  0.00     0.000 HD 
HETATM    5  H   UNL     2     -10.361   9.823  71.681  1.00  0.00     0.000 HD 
HETATM    6  O   UNL     2     -10.280   9.001  72.151  1.00  0.00    -0.300 OA 
HETATM    7  O   UNL     3     -10.022  17.459  65.547  1.00  0.00    -0.555 OA 
ENDROOT
BRANCH   2   8
HETATM    8  C   UNL     2     -10.126   6.651  71.923  1.00  0.00    -0.181 C  
HETATM    9  H   UNL     2     -11.178   5.537  73.179  1.00  0.00     0.000 HD 
HETATM   10  O   UNL     2     -11.258   6.359  72.709  1.00  0.00    -0.255 OA 
ENDBRANCH   2   8
BRANCH   2  11
HETATM   11  C   UNL     2      -9.091   8.298  70.141  1.00  0.00    -0.147 C  
HETATM   12  H   UNL     2      -7.956   7.309  68.863  1.00  0.00     0.000 HD 
HETATM   13  O   UNL     2      -8.656   7.121  69.477  1.00  0.00    -0.133 OA 
BRANCH  11  14
HETATM   14  C   UNL     2      -9.416   9.354  69.033  1.00  0.00    -0.160 C  
HETATM   15  H   UNL     2     -10.960   9.824  67.989  1.00  0.00     0.000 HD 
HETATM   16  O   UNL     2     -10.762   9.183  68.661  1.00  0.00    -0.197 OA 
BRANCH  14  17
HETATM   17  C   UNL     2      -8.547   9.269  67.756  1.00  0.00    -0.117 C  
HETATM   18  C   UNL     2      -8.001  10.631  67.364  1.00  0.00    -0.111 C  
HETATM   19  H   UNL     2      -8.792   8.719  65.913  1.00  0.00     0.000 HD 
HETATM   20  O   UNL     2      -9.325   8.771  66.697  1.00  0.00    -0.162 OA 
HETATM   21  O   UNL     2      -7.188  10.745  66.300  1.00  0.00    -0.131 OA 
HETATM   22  O   UNL     2      -8.225  11.632  68.044  1.00  0.00    -0.131 OA 
ENDBRANCH  14  17
ENDBRANCH  11  14
ENDBRANCH   2  11
BRANCH   3  23
HETATM   23  C   UNL     3     -11.591  15.739  65.013  1.00  0.00    -0.011 C  
HETATM   24  O   UNL     3     -11.305  16.507  63.866  1.00  0.00    -1.557 OA 
HETATM   25  H   UNL     3     -11.875  16.153  63.194  1.00  0.00     0.000 HD 
BRANCH  23  26
HETATM   26  C   UNL     3     -11.761  14.239  64.493  1.00  0.00    -0.418 C  
HETATM   27  O   UNL     3     -12.525  14.366  63.319  1.00  0.00    -1.099 OA 
HETATM   28  H   UNL     3     -12.627  13.474  63.010  1.00  0.00     0.000 HD 
BRANCH  26  29
HETATM   29  C   UNL     3     -12.464  13.027  65.276  1.00  0.00    -0.499 C  
HETATM   30  C   UNL     3     -11.642  12.061  66.082  1.00  0.00    -0.304 C  
HETATM   31  O   UNL     3     -13.217  12.218  64.397  1.00  0.00    -0.806 OA 
HETATM   32  O   UNL     3     -10.758  11.248  65.476  1.00  0.00    -0.267 OA 
HETATM   33  O   UNL     3     -11.886  11.901  67.268  1.00  0.00    -0.576 OA 
HETATM   34  H   UNL     3     -13.632  11.500  64.861  1.00  0.00     0.000 HD 
ENDBRANCH  26  29
ENDBRANCH  23  26
ENDBRANCH   3  23
BRANCH   3  35
HETATM   35  C   UNL     3      -9.531  15.407  66.742  1.00  0.00    -0.241 C  
HETATM   36  O   UNL     3      -8.331  16.091  66.954  1.00  0.00    -0.195 OA 
HETATM   37  H   UNL     3      -7.656  15.532  67.323  1.00  0.00     0.000 HD 
ENDBRANCH   3  35
TORSDOF 8
ENDMDL
MODEL       34
REMARK 921   NORMALIZED FREE ENERGY PREDICTED BY IDOCK:   -5.97 KCAL/MOL
REMARK 922        TOTAL FREE ENERGY PREDICTED BY IDOCK:  -10.44 KCAL/MOL
REMARK 923 INTER-LIGAND FREE ENERGY PREDICTED BY IDOCK:   -8.58 KCAL/MOL
REMARK 924 INTRA-LIGAND FREE ENERGY PREDICTED BY IDOCK:   -1.87 KCAL/MOL
REMARK 927      BINDING AFFINITY PREDICTED BY RF-SCORE:    0.00 PKD
ROOT
HETATM    1 MN   UNL     1     -12.032   6.383  68.692  1.00  0.00    -0.509 Mn 
HETATM    2  C   UNL     2     -12.088  13.355  65.309  1.00  0.00    -0.413 C  
HETATM    3  C   UNL     3     -10.222   4.913  69.814  1.00  0.00    -0.214 C  
HETATM    4  H   UNL     3      -9.845   3.206  70.658  1.00  0.00     0.000 HD 
HETATM    5  H   UNL     2     -12.305  11.523  64.800  1.00  0.00     0.000 HD 
HETATM    6  O   UNL     2     -12.440  12.357  64.364  1.00  0.00    -0.457 OA 
HETATM    7  O   UNL     3      -9.381   3.805  70.084  1.00  0.00    -0.139 OA 
ENDROOT
BRANCH   2   8
HETATM    8  C   UNL     2     -12.308  14.707  64.603  1.00  0.00    -0.375 C  
HETATM    9  H   UNL     2     -12.845  15.396  62.825  1.00  0.00     0.000 HD 
HETATM   10  O   UNL     2     -12.709  14.563  63.260  1.00  0.00    -0.453 OA 
ENDBRANCH   2   8
BRANCH   2  11
HETATM   11  C   UNL     2     -10.614  13.083  65.809  1.00  0.00    -0.277 C  
HETATM   12  H   UNL     2      -8.936  14.097  66.043  1.00  0.00     0.000 HD 
HETATM   13  O   UNL     2      -9.822  14.260  65.743  1.00  0.00    -0.313 OA 
BRANCH  11  14
HETATM   14  C   UNL     2     -10.476  12.520  67.261  1.00  0.00    -0.220 C  
HETATM   15  H   UNL     2     -10.108  10.802  68.043  1.00  0.00     0.000 HD 
HETATM   16  O   UNL     2     -10.193  11.145  67.161  1.00  0.00    -0.189 OA 
BRANCH  14  17
HETATM   17  C   UNL     2     -11.719  12.692  68.165  1.00  0.00    -0.347 C  
HETATM   18  C   UNL     2     -11.538  13.836  69.148  1.00  0.00    -0.317 C  
HETATM   19  H   UNL     2     -12.701  11.612  69.441  1.00  0.00     0.000 HD 
HETATM   20  O   UNL     2     -11.938  11.506  68.886  1.00  0.00    -0.333 OA 
HETATM   21  O   UNL     2     -12.535  14.162  69.987  1.00  0.00    -0.340 OA 
HETATM   22  O   UNL     2     -10.521  14.529  69.145  1.00  0.00    -0.242 OA 
ENDBRANCH  14  17
ENDBRANCH  11  14
ENDBRANCH   2  11
BRANCH   3  23
HETATM   23  C   UNL     3     -10.704   5.432  71.228  1.00  0.00    -0.179 C  
HETATM   24  O   UNL     3      -9.573   6.068  71.776  1.00  0.00    -0.152 OA 
HETATM   25  H   UNL     3      -9.863   6.379  72.626  1.00  0.00     0.000 HD 
BRANCH  23  26
HETATM   26  C   UNL     3     -11.947   6.356  71.615  1.00  0.00    -0.291 C  
HETATM   27  O   UNL     3     -12.491   6.737  70.376  1.00  0.00    -0.574 OA 
HETATM   28  H   UNL     3     -13.231   7.287  70.606  1.00  0.00     0.000 HD 
BRANCH  26  29
HETATM   29  C   UNL     3     -11.899   7.727  72.450  1.00  0.00    -0.321 C  
HETATM   30  C   UNL     3     -11.365   8.984  71.822  1.00  0.00    -0.377 C  
HETATM   31  O   UNL     3     -11.161   7.574  73.643  1.00  0.00    -0.583 OA 
HETATM   32  O   UNL     3     -10.069   9.071  71.472  1.00  0.00    -0.301 OA 
HETATM   33  O   UNL     3     -12.067   9.982  71.773  1.00  0.00    -0.373 OA 
HETATM   34  H   UNL     3     -11.133   8.386  74.137  1.00  0.00     0.000 HD 
ENDBRANCH  26  29
ENDBRANCH  23  26
ENDBRANCH   3  23
BRANCH   3  35
HETATM   35  C   UNL     3      -9.457   5.901  68.867  1.00  0.00    -0.126 C  
HETATM   36  O   UNL     3      -9.801   7.235  69.099  1.00  0.00    -0.162 OA 
HETATM   37  H   UNL     3      -9.337   7.833  68.525  1.00  0.00     0.000 HD 
ENDBRANCH   3  35
TORSDOF 8
ENDMDL
MODEL       35
REMARK 921   NORMALIZED FREE ENERGY PREDICTED BY IDOCK:   -5.96 KCAL/MOL
REMARK 922        TOTAL FREE ENERGY PREDICTED BY IDOCK:  -10.42 KCAL/MOL
REMARK 923 INTER-LIGAND FREE ENERGY PREDICTED BY IDOCK:   -9.12 KCAL/MOL
REMARK 924 INTRA-LIGAND FREE ENERGY PREDICTED BY IDOCK:   -1.31 KCAL/MOL
REMARK 927      BINDING AFFINITY PREDICTED BY RF-SCORE:    0.00 PKD
ROOT
HETATM    1 MN   UNL     1     -10.201  11.570  64.782  1.00  0.00    -0.216 Mn 
HETATM    2  C   UNL     2     -10.501   6.195  70.356  1.00  0.00    -0.230 C  
HETATM    3  C   UNL     3     -11.503  13.749  64.276  1.00  0.00    -0.340 C  
HETATM    4  H   UNL     3     -11.737  15.220  63.031  1.00  0.00     0.000 HD 
HETATM    5  H   UNL     2     -10.877   6.328  68.485  1.00  0.00     0.000 HD 
HETATM    6  O   UNL     2     -10.816   5.609  69.103  1.00  0.00    -0.284 OA 
HETATM    7  O   UNL     3     -12.301  14.699  63.591  1.00  0.00    -0.674 OA 
ENDROOT
BRANCH   2   8
HETATM    8  C   UNL     2     -10.402   5.028  71.359  1.00  0.00    -0.181 C  
HETATM    9  H   UNL     2      -9.311   4.488  72.922  1.00  0.00     0.000 HD 
HETATM   10  O   UNL     2      -9.372   5.207  72.304  1.00  0.00    -0.137 OA 
ENDBRANCH   2   8
BRANCH   2  11
HETATM   11  C   UNL     2     -11.590   7.287  70.694  1.00  0.00    -0.290 C  
HETATM   12  H   UNL     2     -13.048   7.549  72.000  1.00  0.00     0.000 HD 
HETATM   13  O   UNL     2     -12.393   6.892  71.796  1.00  0.00    -0.337 OA 
BRANCH  11  14
HETATM   14  C   UNL     2     -11.048   8.719  71.014  1.00  0.00    -0.270 C  
HETATM   15  H   UNL     2     -10.493   9.660  72.597  1.00  0.00     0.000 HD 
HETATM   16  O   UNL     2     -10.822   8.791  72.402  1.00  0.00    -0.320 OA 
BRANCH  14  17
HETATM   17  C   UNL     2     -11.979   9.889  70.616  1.00  0.00    -0.277 C  
HETATM   18  C   UNL     2     -11.256  10.903  69.747  1.00  0.00    -0.281 C  
HETATM   19  H   UNL     2     -13.009  11.252  71.532  1.00  0.00     0.000 HD 
HETATM   20  O   UNL     2     -12.438  10.534  71.776  1.00  0.00    -0.373 OA 
HETATM   21  O   UNL     2     -11.920  11.969  69.268  1.00  0.00    -0.302 OA 
HETATM   22  O   UNL     2     -10.086  10.735  69.402  1.00  0.00    -0.212 OA 
ENDBRANCH  14  17
ENDBRANCH  11  14
ENDBRANCH   2  11
BRANCH   3  23
HETATM   23  C   UNL     3     -10.331  14.580  64.936  1.00  0.00    -0.371 C  
HETATM   24  O   UNL     3     -10.734  15.924  64.808  1.00  0.00    -0.642 OA 
HETATM   25  H   UNL     3     -10.029  16.423  65.204  1.00  0.00     0.000 HD 
BRANCH  23  26
HETATM   26  C   UNL     3      -9.680  14.464  66.389  1.00  0.00    -0.302 C  
HETATM   27  O   UNL     3      -8.921  13.281  66.332  1.00  0.00    -0.442 OA 
HETATM   28  H   UNL     3      -8.534  13.212  67.197  1.00  0.00     0.000 HD 
BRANCH  26  29
HETATM   29  C   UNL     3     -10.464  14.348  67.785  1.00  0.00    -0.245 C  
HETATM   30  C   UNL     3     -10.905  15.584  68.517  1.00  0.00    -0.272 C  
HETATM   31  O   UNL     3      -9.717  13.612  68.732  1.00  0.00    -0.375 OA 
HETATM   32  O   UNL     3      -9.996  16.439  69.019  1.00  0.00    -0.242 OA 
HETATM   33  O   UNL     3     -12.085  15.735  68.794  1.00  0.00    -0.314 OA 
HETATM   34  H   UNL     3     -10.181  13.544  69.558  1.00  0.00     0.000 HD 
ENDBRANCH  26  29
ENDBRANCH  23  26
ENDBRANCH   3  23
BRANCH   3  35
HETATM   35  C   UNL     3     -12.434  12.889  65.199  1.00  0.00    -0.501 C  
HETATM   36  O   UNL     3     -13.442  12.239  64.483  1.00  0.00    -0.686 OA 
HETATM   37  H   UNL     3     -14.006  11.718  65.043  1.00  0.00     0.000 HD 
ENDBRANCH   3  35
TORSDOF 8
ENDMDL
MODEL       36
REMARK 921   NORMALIZED FREE ENERGY PREDICTED BY IDOCK:   -5.95 KCAL/MOL
REMARK 922        TOTAL FREE ENERGY PREDICTED BY IDOCK:  -10.41 KCAL/MOL
REMARK 923 INTER-LIGAND FREE ENERGY PREDICTED BY IDOCK:   -8.31 KCAL/MOL
REMARK 924 INTRA-LIGAND FREE ENERGY PREDICTED BY IDOCK:   -2.10 KCAL/MOL
REMARK 927      BINDING AFFINITY PREDICTED BY RF-SCORE:    0.00 PKD
ROOT
HETATM    1 MN   UNL     1      -9.056  11.270  69.922  1.00  0.00    -0.378 Mn 
HETATM    2  C   UNL     2      -8.868  18.301  66.669  1.00  0.00    -0.284 C  
HETATM    3  C   UNL     3     -10.795   9.357  70.035  1.00  0.00    -0.241 C  
HETATM    4  H   UNL     3     -11.196   7.599  70.756  1.00  0.00     0.000 HD 
HETATM    5  H   UNL     2      -8.917  17.546  68.427  1.00  0.00     0.000 HD 
HETATM    6  O   UNL     2      -8.774  18.419  68.080  1.00  0.00    -0.285 OA 
HETATM    7  O   UNL     3     -11.686   8.392  70.567  1.00  0.00    -0.208 OA 
ENDROOT
BRANCH   2   8
HETATM    8  C   UNL     2      -8.634  19.717  66.107  1.00  0.00    -0.338 C  
HETATM    9  H   UNL     2      -7.811  21.431  66.663  1.00  0.00     0.000 HD 
HETATM   10  O   UNL     2      -7.955  20.558  67.010  1.00  0.00    -0.323 OA 
ENDBRANCH   2   8
BRANCH   2  11
HETATM   11  C   UNL     2     -10.260  17.649  66.306  1.00  0.00    -0.362 C  
HETATM   12  H   UNL     2     -11.739  17.963  65.036  1.00  0.00     0.000 HD 
HETATM   13  O   UNL     2     -10.902  18.355  65.255  1.00  0.00    -0.624 OA 
BRANCH  11  14
HETATM   14  C   UNL     2     -10.224  16.142  65.890  1.00  0.00    -0.360 C  
HETATM   15  H   UNL     2     -10.892  15.104  64.416  1.00  0.00     0.000 HD 
HETATM   16  O   UNL     2     -10.913  16.019  64.669  1.00  0.00    -0.590 OA 
BRANCH  14  17
HETATM   17  C   UNL     2     -10.853  15.155  66.901  1.00  0.00    -0.317 C  
HETATM   18  C   UNL     2      -9.838  14.134  67.387  1.00  0.00    -0.239 C  
HETATM   19  H   UNL     2     -12.306  13.871  66.909  1.00  0.00     0.000 HD 
HETATM   20  O   UNL     2     -11.919  14.477  66.288  1.00  0.00    -0.382 OA 
HETATM   21  O   UNL     2     -10.195  13.220  68.304  1.00  0.00    -0.239 OA 
HETATM   22  O   UNL     2      -8.666  14.169  67.014  1.00  0.00    -0.214 OA 
ENDBRANCH  14  17
ENDBRANCH  11  14
ENDBRANCH   2  11
BRANCH   3  23
HETATM   23  C   UNL     3     -10.042   8.627  68.851  1.00  0.00    -0.202 C  
HETATM   24  O   UNL     3     -11.071   8.111  68.040  1.00  0.00    -0.451 OA 
HETATM   25  H   UNL     3     -10.617   7.673  67.329  1.00  0.00     0.000 HD 
BRANCH  23  26
HETATM   26  C   UNL     3      -8.935   9.179  67.842  1.00  0.00    -0.128 C  
HETATM   27  O   UNL     3      -9.406  10.453  67.477  1.00  0.00    -0.147 OA 
HETATM   28  H   UNL     3      -8.748  10.781  66.877  1.00  0.00     0.000 HD 
BRANCH  26  29
HETATM   29  C   UNL     3      -8.496   8.520  66.446  1.00  0.00    -0.117 C  
HETATM   30  C   UNL     3      -7.736   9.324  65.428  1.00  0.00    -0.099 C  
HETATM   31  O   UNL     3      -9.612   8.010  65.747  1.00  0.00    -0.430 OA 
HETATM   32  O   UNL     3      -8.312  10.381  64.828  1.00  0.00    -0.166 OA 
HETATM   33  O   UNL     3      -6.652   8.927  65.030  1.00  0.00    -0.068 OA 
HETATM   34  H   UNL     3      -9.351   7.621  64.920  1.00  0.00     0.000 HD 
ENDBRANCH  26  29
ENDBRANCH  23  26
ENDBRANCH   3  23
BRANCH   3  35
HETATM   35  C   UNL     3     -11.604  10.663  69.724  1.00  0.00    -0.309 C  
HETATM   36  O   UNL     3     -12.143  10.663  68.435  1.00  0.00    -0.813 OA 
HETATM   37  H   UNL     3     -12.633  11.455  68.246  1.00  0.00     0.000 HD 
ENDBRANCH   3  35
TORSDOF 8
ENDMDL
MODEL       37
REMARK 921   NORMALIZED FREE ENERGY PREDICTED BY IDOCK:   -5.95 KCAL/MOL
REMARK 922        TOTAL FREE ENERGY PREDICTED BY IDOCK:  -10.41 KCAL/MOL
REMARK 923 INTER-LIGAND FREE ENERGY PREDICTED BY IDOCK:   -9.40 KCAL/MOL
REMARK 924 INTRA-LIGAND FREE ENERGY PREDICTED BY IDOCK:   -1.01 KCAL/MOL
REMARK 927      BINDING AFFINITY PREDICTED BY RF-SCORE:    0.00 PKD
ROOT
HETATM    1 MN   UNL     1     -12.087  16.384  68.524  1.00  0.00    -0.358 Mn 
HETATM    2  C   UNL     2     -13.524   9.364  71.475  1.00  0.00    -0.373 C  
HETATM    3  C   UNL     3     -10.119  17.451  67.227  1.00  0.00    -0.310 C  
HETATM    4  H   UNL     3      -9.421  19.080  66.434  1.00  0.00     0.000 HD 
HETATM    5  H   UNL     2     -13.184  11.135  72.115  1.00  0.00     0.000 HD 
HETATM    6  O   UNL     2     -13.475  10.325  72.518  1.00  0.00    -0.195 OA 
HETATM    7  O   UNL     3      -9.059  18.333  66.896  1.00  0.00    -0.267 OA 
ENDROOT
BRANCH   2   8
HETATM    8  C   UNL     2     -13.996   8.050  72.129  1.00  0.00    -0.222 C  
HETATM    9  H   UNL     2     -14.312   6.160  71.628  1.00  0.00     0.000 HD 
HETATM   10  O   UNL     2     -14.022   6.970  71.225  1.00  0.00    -0.292 OA 
ENDBRANCH   2   8
BRANCH   2  11
HETATM   11  C   UNL     2     -12.109   9.302  70.775  1.00  0.00    -0.171 C  
HETATM   12  H   UNL     2     -10.808  10.560  69.985  1.00  0.00     0.000 HD 
HETATM   13  O   UNL     2     -11.659  10.597  70.406  1.00  0.00    -0.306 OA 
BRANCH  11  14
HETATM   14  C   UNL     2     -10.962   8.638  71.605  1.00  0.00    -0.308 C  
HETATM   15  H   UNL     2      -9.089   8.974  71.879  1.00  0.00     0.000 HD 
HETATM   16  O   UNL     2      -9.786   9.377  71.375  1.00  0.00    -0.236 OA 
BRANCH  14  17
HETATM   17  C   UNL     2     -10.672   7.155  71.276  1.00  0.00    -0.226 C  
HETATM   18  C   UNL     2     -10.592   6.311  72.537  1.00  0.00    -0.212 C  
HETATM   19  H   UNL     2      -9.273   6.150  70.387  1.00  0.00     0.000 HD 
HETATM   20  O   UNL     2      -9.451   7.060  70.589  1.00  0.00    -0.165 OA 
HETATM   21  O   UNL     2     -10.388   4.987  72.444  1.00  0.00    -0.193 OA 
HETATM   22  O   UNL     2     -10.784   6.801  73.649  1.00  0.00    -0.316 OA 
ENDBRANCH  14  17
ENDBRANCH  11  14
ENDBRANCH   2  11
BRANCH   3  23
HETATM   23  C   UNL     3     -10.901  17.205  65.876  1.00  0.00    -0.017 C  
HETATM   24  O   UNL     3     -10.687  18.377  65.123  1.00  0.00    -0.562 OA 
HETATM   25  H   UNL     3     -11.158  18.229  64.311  1.00  0.00     0.000 HD 
BRANCH  23  26
HETATM   26  C   UNL     3     -10.799  16.001  64.833  1.00  0.00    -0.372 C  
HETATM   27  O   UNL     3     -11.622  16.401  63.764  1.00  0.00    -1.605 OA 
HETATM   28  H   UNL     3     -11.561  15.684  63.143  1.00  0.00     0.000 HD 
BRANCH  26  29
HETATM   29  C   UNL     3     -11.220  14.473  65.087  1.00  0.00    -0.367 C  
HETATM   30  C   UNL     3     -11.605  13.586  63.936  1.00  0.00    -0.306 C  
HETATM   31  O   UNL     3     -12.300  14.383  65.992  1.00  0.00    -0.394 OA 
HETATM   32  O   UNL     3     -12.713  13.844  63.219  1.00  0.00    -0.775 OA 
HETATM   33  O   UNL     3     -11.000  12.541  63.749  1.00  0.00    -0.388 OA 
HETATM   34  H   UNL     3     -12.549  13.478  66.142  1.00  0.00     0.000 HD 
ENDBRANCH  26  29
ENDBRANCH  23  26
ENDBRANCH   3  23
BRANCH   3  35
HETATM   35  C   UNL     3      -9.522  16.218  67.990  1.00  0.00    -0.223 C  
HETATM   36  O   UNL     3      -9.859  16.216  69.346  1.00  0.00    -0.242 OA 
HETATM   37  H   UNL     3      -9.497  15.468  69.808  1.00  0.00     0.000 HD 
ENDBRANCH   3  35
TORSDOF 8
ENDMDL
MODEL       38
REMARK 921   NORMALIZED FREE ENERGY PREDICTED BY IDOCK:   -5.95 KCAL/MOL
REMARK 922        TOTAL FREE ENERGY PREDICTED BY IDOCK:  -10.40 KCAL/MOL
REMARK 923 INTER-LIGAND FREE ENERGY PREDICTED BY IDOCK:   -8.03 KCAL/MOL
REMARK 924 INTRA-LIGAND FREE ENERGY PREDICTED BY IDOCK:   -2.38 KCAL/MOL
REMARK 927      BINDING AFFINITY PREDICTED BY RF-SCORE:    0.00 PKD
ROOT
HETATM    1 MN   UNL     1      -9.605  14.030  70.055  1.00  0.00    -0.317 Mn 
HETATM    2  C   UNL     2      -9.463   6.669  72.476  1.00  0.00    -0.147 C  
HETATM    3  C   UNL     3     -10.065  15.199  67.793  1.00  0.00    -0.230 C  
HETATM    4  H   UNL     3     -10.127  16.896  66.853  1.00  0.00     0.000 HD 
HETATM    5  H   UNL     2      -8.225   8.102  72.200  1.00  0.00     0.000 HD 
HETATM    6  O   UNL     2      -8.175   7.248  72.615  1.00  0.00    -0.104 OA 
HETATM    7  O   UNL     3      -9.873  16.005  66.643  1.00  0.00    -0.240 OA 
ENDROOT
BRANCH   2   8
HETATM    8  C   UNL     2      -9.383   5.285  73.149  1.00  0.00    -0.135 C  
HETATM    9  H   UNL     2      -8.058   4.154  74.091  1.00  0.00     0.000 HD 
HETATM   10  O   UNL     2      -8.107   5.007  73.676  1.00  0.00    -0.105 OA 
ENDBRANCH   2   8
BRANCH   2  11
HETATM   11  C   UNL     2      -9.851   6.656  70.944  1.00  0.00    -0.183 C  
HETATM   12  H   UNL     2     -10.359   5.330  69.572  1.00  0.00     0.000 HD 
HETATM   13  O   UNL     2     -10.125   5.339  70.493  1.00  0.00    -0.209 OA 
BRANCH  11  14
HETATM   14  C   UNL     2     -11.076   7.542  70.540  1.00  0.00    -0.259 C  
HETATM   15  H   UNL     2     -11.451   8.824  69.158  1.00  0.00     0.000 HD 
HETATM   16  O   UNL     2     -10.708   8.286  69.404  1.00  0.00    -0.221 OA 
BRANCH  14  17
HETATM   17  C   UNL     2     -11.573   8.528  71.623  1.00  0.00    -0.299 C  
HETATM   18  C   UNL     2     -13.062   8.371  71.876  1.00  0.00    -0.358 C  
HETATM   19  H   UNL     2     -11.626  10.450  71.870  1.00  0.00     0.000 HD 
HETATM   20  O   UNL     2     -11.320   9.844  71.205  1.00  0.00    -0.357 OA 
HETATM   21  O   UNL     2     -13.664   9.117  72.817  1.00  0.00    -0.434 OA 
HETATM   22  O   UNL     2     -13.726   7.518  71.288  1.00  0.00    -0.339 OA 
ENDBRANCH  14  17
ENDBRANCH  11  14
ENDBRANCH   2  11
BRANCH   3  23
HETATM   23  C   UNL     3     -11.549  15.479  68.262  1.00  0.00    -0.334 C  
HETATM   24  O   UNL     3     -12.318  14.491  67.615  1.00  0.00    -0.617 OA 
HETATM   25  H   UNL     3     -13.209  14.659  67.897  1.00  0.00     0.000 HD 
BRANCH  23  26
HETATM   26  C   UNL     3     -12.158  15.602  69.732  1.00  0.00    -0.326 C  
HETATM   27  O   UNL     3     -11.073  16.031  70.518  1.00  0.00    -0.345 OA 
HETATM   28  H   UNL     3     -11.435  16.104  71.393  1.00  0.00     0.000 HD 
BRANCH  26  29
HETATM   29  C   UNL     3     -12.816  14.423  70.600  1.00  0.00    -0.328 C  
HETATM   30  C   UNL     3     -13.167  14.644  72.045  1.00  0.00    -0.351 C  
HETATM   31  O   UNL     3     -12.003  13.269  70.596  1.00  0.00    -0.492 OA 
HETATM   32  O   UNL     3     -12.200  14.867  72.953  1.00  0.00    -0.329 OA 
HETATM   33  O   UNL     3     -14.314  14.465  72.423  1.00  0.00    -0.505 OA 
HETATM   34  H   UNL     3     -12.392  12.571  71.110  1.00  0.00     0.000 HD 
ENDBRANCH  26  29
ENDBRANCH  23  26
ENDBRANCH   3  23
BRANCH   3  35
HETATM   35  C   UNL     3      -9.647  13.728  67.447  1.00  0.00    -0.229 C  
HETATM   36  O   UNL     3     -10.264  12.789  68.277  1.00  0.00    -0.233 OA 
HETATM   37  H   UNL     3     -10.010  11.898  68.067  1.00  0.00     0.000 HD 
ENDBRANCH   3  35
TORSDOF 8
ENDMDL
MODEL       39
REMARK 921   NORMALIZED FREE ENERGY PREDICTED BY IDOCK:   -5.92 KCAL/MOL
REMARK 922        TOTAL FREE ENERGY PREDICTED BY IDOCK:  -10.36 KCAL/MOL
REMARK 923 INTER-LIGAND FREE ENERGY PREDICTED BY IDOCK:   -8.63 KCAL/MOL
REMARK 924 INTRA-LIGAND FREE ENERGY PREDICTED BY IDOCK:   -1.73 KCAL/MOL
REMARK 927      BINDING AFFINITY PREDICTED BY RF-SCORE:    0.00 PKD
ROOT
HETATM    1 MN   UNL     1      -9.371   8.662  70.637  1.00  0.00    -0.138 Mn 
HETATM    2  C   UNL     2     -10.447  16.024  68.468  1.00  0.00    -0.258 C  
HETATM    3  C   UNL     3     -10.890   6.803  71.602  1.00  0.00    -0.229 C  
HETATM    4  H   UNL     3     -10.960   4.985  72.279  1.00  0.00     0.000 HD 
HETATM    5  H   UNL     2      -9.534  15.065  69.850  1.00  0.00     0.000 HD 
HETATM    6  O   UNL     2      -9.538  15.969  69.555  1.00  0.00    -0.254 OA 
HETATM    7  O   UNL     3     -11.390   5.808  72.480  1.00  0.00    -0.282 OA 
ENDROOT
BRANCH   2   8
HETATM    8  C   UNL     2     -10.452  17.489  67.990  1.00  0.00    -0.387 C  
HETATM    9  H   UNL     2      -9.841  19.267  68.612  1.00  0.00     0.000 HD 
HETATM   10  O   UNL     2      -9.837  18.364  68.907  1.00  0.00    -0.363 OA 
ENDBRANCH   2   8
BRANCH   2  11
HETATM   11  C   UNL     2     -11.844  15.462  68.945  1.00  0.00    -0.329 C  
HETATM   12  H   UNL     2     -13.081  14.002  68.460  1.00  0.00     0.000 HD 
HETATM   13  O   UNL     2     -12.241  14.340  68.173  1.00  0.00    -0.284 OA 
BRANCH  11  14
HETATM   14  C   UNL     2     -11.935  15.038  70.448  1.00  0.00    -0.323 C  
HETATM   15  H   UNL     2     -12.172  13.385  71.400  1.00  0.00     0.000 HD 
HETATM   16  O   UNL     2     -12.116  13.643  70.488  1.00  0.00    -0.338 OA 
BRANCH  14  17
HETATM   17  C   UNL     2     -13.075  15.696  71.260  1.00  0.00    -0.473 C  
HETATM   18  C   UNL     2     -12.773  15.691  72.748  1.00  0.00    -0.436 C  
HETATM   19  H   UNL     2     -14.971  15.397  71.536  1.00  0.00     0.000 HD 
HETATM   20  O   UNL     2     -14.270  14.993  71.038  1.00  0.00    -0.345 OA 
HETATM   21  O   UNL     2     -13.634  16.261  73.608  1.00  0.00    -0.618 OA 
HETATM   22  O   UNL     2     -11.715  15.240  73.186  1.00  0.00    -0.431 OA 
ENDBRANCH  14  17
ENDBRANCH  11  14
ENDBRANCH   2  11
BRANCH   3  23
HETATM   23  C   UNL     3     -11.040   6.198  70.149  1.00  0.00    -0.378 C  
HETATM   24  O   UNL     3     -12.364   6.500  69.774  1.00  0.00    -0.342 OA 
HETATM   25  H   UNL     3     -12.454   6.136  68.901  1.00  0.00     0.000 HD 
BRANCH  23  26
HETATM   26  C   UNL     3     -10.158   6.436  68.840  1.00  0.00    -0.162 C  
HETATM   27  O   UNL     3     -10.199   7.829  68.646  1.00  0.00    -0.192 OA 
HETATM   28  H   UNL     3      -9.674   7.970  67.867  1.00  0.00     0.000 HD 
BRANCH  26  29
HETATM   29  C   UNL     3     -10.435   5.839  67.376  1.00  0.00    -0.254 C  
HETATM   30  C   UNL     3      -9.348   5.830  66.338  1.00  0.00    -0.156 C  
HETATM   31  O   UNL     3     -11.524   6.488  66.755  1.00  0.00    -0.774 OA 
HETATM   32  O   UNL     3      -8.863   6.986  65.850  1.00  0.00    -0.154 OA 
HETATM   33  O   UNL     3      -9.013   4.776  65.821  1.00  0.00    -0.128 OA 
HETATM   34  H   UNL     3     -11.687   6.135  65.888  1.00  0.00     0.000 HD 
ENDBRANCH  26  29
ENDBRANCH  23  26
ENDBRANCH   3  23
BRANCH   3  35
HETATM   35  C   UNL     3     -11.600   8.161  71.933  1.00  0.00    -0.306 C  
HETATM   36  O   UNL     3     -11.722   8.985  70.811  1.00  0.00    -0.289 OA 
HETATM   37  H   UNL     3     -12.152   9.809  71.011  1.00  0.00     0.000 HD 
ENDBRANCH   3  35
TORSDOF 8
ENDMDL
MODEL       40
REMARK 921   NORMALIZED FREE ENERGY PREDICTED BY IDOCK:   -5.91 KCAL/MOL
REMARK 922        TOTAL FREE ENERGY PREDICTED BY IDOCK:  -10.34 KCAL/MOL
REMARK 923 INTER-LIGAND FREE ENERGY PREDICTED BY IDOCK:   -9.24 KCAL/MOL
REMARK 924 INTRA-LIGAND FREE ENERGY PREDICTED BY IDOCK:   -1.10 KCAL/MOL
REMARK 927      BINDING AFFINITY PREDICTED BY RF-SCORE:    0.00 PKD
ROOT
HETATM    1 MN   UNL     1     -11.756  14.678  67.772  1.00  0.00    -0.267 Mn 
HETATM    2  C   UNL     2     -10.652   7.633  70.807  1.00  0.00    -0.221 C  
HETATM    3  C   UNL     3     -10.523  16.121  66.013  1.00  0.00    -0.338 C  
HETATM    4  H   UNL     3     -10.469  17.835  65.103  1.00  0.00     0.000 HD 
HETATM    5  H   UNL     2     -10.573   9.458  71.377  1.00  0.00     0.000 HD 
HETATM    6  O   UNL     2     -10.544   8.619  71.822  1.00  0.00    -0.270 OA 
HETATM    7  O   UNL     3      -9.831  17.210  65.427  1.00  0.00    -0.490 OA 
ENDROOT
BRANCH   2   8
HETATM    8  C   UNL     2     -10.607   6.271  71.528  1.00  0.00    -0.237 C  
HETATM    9  H   UNL     2     -11.765   5.149  72.678  1.00  0.00     0.000 HD 
HETATM   10  O   UNL     2     -11.793   5.988  72.233  1.00  0.00    -0.319 OA 
ENDBRANCH   2   8
BRANCH   2  11
HETATM   11  C   UNL     2      -9.510   7.874  69.742  1.00  0.00    -0.163 C  
HETATM   12  H   UNL     2      -7.631   8.478  69.720  1.00  0.00     0.000 HD 
HETATM   13  O   UNL     2      -8.318   8.334  70.360  1.00  0.00    -0.113 OA 
BRANCH  11  14
HETATM   14  C   UNL     2      -9.122   6.640  68.863  1.00  0.00    -0.132 C  
HETATM   15  H   UNL     2      -7.506   5.972  68.063  1.00  0.00     0.000 HD 
HETATM   16  O   UNL     2      -7.742   6.721  68.597  1.00  0.00    -0.108 OA 
BRANCH  14  17
HETATM   17  C   UNL     2      -9.867   6.522  67.512  1.00  0.00    -0.124 C  
HETATM   18  C   UNL     2     -10.079   5.070  67.119  1.00  0.00    -0.199 C  
HETATM   19  H   UNL     2      -9.574   7.086  65.681  1.00  0.00     0.000 HD 
HETATM   20  O   UNL     2      -9.117   7.158  66.510  1.00  0.00    -0.144 OA 
HETATM   21  O   UNL     2     -10.749   4.773  65.993  1.00  0.00    -0.319 OA 
HETATM   22  O   UNL     2      -9.716   4.149  67.849  1.00  0.00    -0.160 OA 
ENDBRANCH  14  17
ENDBRANCH  11  14
ENDBRANCH   2  11
BRANCH   3  23
HETATM   23  C   UNL     3     -11.567  15.649  64.922  1.00  0.00    -0.156 C  
HETATM   24  O   UNL     3     -11.317  16.478  63.811  1.00  0.00    -1.553 OA 
HETATM   25  H   UNL     3     -11.945  16.194  63.156  1.00  0.00     0.000 HD 
BRANCH  23  26
HETATM   26  C   UNL     3     -11.841  14.196  64.322  1.00  0.00    -0.397 C  
HETATM   27  O   UNL     3     -12.704  14.429  63.236  1.00  0.00    -0.897 OA 
HETATM   28  H   UNL     3     -12.867  13.565  62.879  1.00  0.00     0.000 HD 
BRANCH  26  29
HETATM   29  C   UNL     3     -12.513  12.954  65.084  1.00  0.00    -0.501 C  
HETATM   30  C   UNL     3     -11.734  12.174  66.107  1.00  0.00    -0.315 C  
HETATM   31  O   UNL     3     -12.984  11.986  64.170  1.00  0.00    -0.581 OA 
HETATM   32  O   UNL     3     -10.658  11.455  65.739  1.00  0.00    -0.255 OA 
HETATM   33  O   UNL     3     -12.168  12.064  67.243  1.00  0.00    -0.496 OA 
HETATM   34  H   UNL     3     -13.382  11.251  64.622  1.00  0.00     0.000 HD 
ENDBRANCH  26  29
ENDBRANCH  23  26
ENDBRANCH   3  23
BRANCH   3  35
HETATM   35  C   UNL     3      -9.470  15.090  66.547  1.00  0.00    -0.282 C  
HETATM   36  O   UNL     3      -9.557  14.907  67.929  1.00  0.00    -0.202 OA 
HETATM   37  H   UNL     3      -8.918  14.281  68.252  1.00  0.00     0.000 HD 
ENDBRANCH   3  35
TORSDOF 8
ENDMDL
MODEL       41
REMARK 921   NORMALIZED FREE ENERGY PREDICTED BY IDOCK:   -5.89 KCAL/MOL
REMARK 922        TOTAL FREE ENERGY PREDICTED BY IDOCK:  -10.32 KCAL/MOL
REMARK 923 INTER-LIGAND FREE ENERGY PREDICTED BY IDOCK:   -8.39 KCAL/MOL
REMARK 924 INTRA-LIGAND FREE ENERGY PREDICTED BY IDOCK:   -1.92 KCAL/MOL
REMARK 927      BINDING AFFINITY PREDICTED BY RF-SCORE:    0.00 PKD
ROOT
HETATM    1 MN   UNL     1     -12.283   6.801  69.640  1.00  0.00    -0.513 Mn 
HETATM    2  C   UNL     2     -12.290  13.225  65.306  1.00  0.00    -0.476 C  
HETATM    3  C   UNL     3     -10.476   5.107  70.390  1.00  0.00    -0.216 C  
HETATM    4  H   UNL     3     -10.131   3.459  71.356  1.00  0.00     0.000 HD 
HETATM    5  H   UNL     2     -12.966  11.438  65.204  1.00  0.00     0.000 HD 
HETATM    6  O   UNL     2     -13.097  12.230  64.696  1.00  0.00    -0.770 OA 
HETATM    7  O   UNL     3      -9.790   3.881  70.576  1.00  0.00    -0.190 OA 
ENDROOT
BRANCH   2   8
HETATM    8  C   UNL     2     -12.502  14.510  64.482  1.00  0.00    -0.324 C  
HETATM    9  H   UNL     2     -12.853  15.043  62.607  1.00  0.00     0.000 HD 
HETATM   10  O   UNL     2     -12.723  14.251  63.115  1.00  0.00    -0.539 OA 
ENDBRANCH   2   8
BRANCH   2  11
HETATM   11  C   UNL     2     -10.801  12.701  65.372  1.00  0.00    -0.287 C  
HETATM   12  H   UNL     2      -9.044  13.352  65.994  1.00  0.00     0.000 HD 
HETATM   13  O   UNL     2      -9.940  13.668  65.954  1.00  0.00    -0.299 OA 
BRANCH  11  14
HETATM   14  C   UNL     2     -10.580  11.363  66.151  1.00  0.00    -0.265 C  
HETATM   15  H   UNL     2     -11.355  10.526  67.698  1.00  0.00     0.000 HD 
HETATM   16  O   UNL     2     -11.489  11.338  67.225  1.00  0.00    -0.464 OA 
BRANCH  14  17
HETATM   17  C   UNL     2      -9.157  11.149  66.719  1.00  0.00    -0.166 C  
HETATM   18  C   UNL     2      -8.641   9.754  66.415  1.00  0.00    -0.124 C  
HETATM   19  H   UNL     2      -8.306  11.199  68.460  1.00  0.00     0.000 HD 
HETATM   20  O   UNL     2      -9.179  11.330  68.112  1.00  0.00    -0.157 OA 
HETATM   21  O   UNL     2      -7.401   9.400  66.795  1.00  0.00    -0.085 OA 
HETATM   22  O   UNL     2      -9.305   8.953  65.757  1.00  0.00    -0.229 OA 
ENDBRANCH  14  17
ENDBRANCH  11  14
ENDBRANCH   2  11
BRANCH   3  23
HETATM   23  C   UNL     3     -10.369   5.864  71.774  1.00  0.00    -0.216 C  
HETATM   24  O   UNL     3      -9.272   6.735  71.618  1.00  0.00    -0.145 OA 
HETATM   25  H   UNL     3      -9.208   7.190  72.450  1.00  0.00     0.000 HD 
BRANCH  23  26
HETATM   26  C   UNL     3     -11.467   6.697  72.580  1.00  0.00    -0.231 C  
HETATM   27  O   UNL     3     -12.585   5.844  72.619  1.00  0.00    -0.530 OA 
HETATM   28  H   UNL     3     -13.239   6.339  73.098  1.00  0.00     0.000 HD 
BRANCH  26  29
HETATM   29  C   UNL     3     -12.087   8.119  72.166  1.00  0.00    -0.357 C  
HETATM   30  C   UNL     3     -13.574   8.293  72.033  1.00  0.00    -0.324 C  
HETATM   31  O   UNL     3     -11.556   8.571  70.938  1.00  0.00    -0.276 OA 
HETATM   32  O   UNL     3     -14.252   7.640  71.072  1.00  0.00    -0.253 OA 
HETATM   33  O   UNL     3     -14.144   9.147  72.694  1.00  0.00    -0.512 OA 
HETATM   34  H   UNL     3     -11.923   9.412  70.694  1.00  0.00     0.000 HD 
ENDBRANCH  26  29
ENDBRANCH  23  26
ENDBRANCH   3  23
BRANCH   3  35
HETATM   35  C   UNL     3      -9.914   5.803  69.103  1.00  0.00    -0.177 C  
HETATM   36  O   UNL     3     -10.886   5.954  68.111  1.00  0.00    -0.271 OA 
HETATM   37  H   UNL     3     -10.545   6.376  67.330  1.00  0.00     0.000 HD 
ENDBRANCH   3  35
TORSDOF 8
ENDMDL
MODEL       42
REMARK 921   NORMALIZED FREE ENERGY PREDICTED BY IDOCK:   -5.88 KCAL/MOL
REMARK 922        TOTAL FREE ENERGY PREDICTED BY IDOCK:  -10.30 KCAL/MOL
REMARK 923 INTER-LIGAND FREE ENERGY PREDICTED BY IDOCK:   -7.45 KCAL/MOL
REMARK 924 INTRA-LIGAND FREE ENERGY PREDICTED BY IDOCK:   -2.85 KCAL/MOL
REMARK 927      BINDING AFFINITY PREDICTED BY RF-SCORE:    0.00 PKD
ROOT
HETATM    1 MN   UNL     1     -11.751   9.324  68.291  1.00  0.00    -0.480 Mn 
HETATM    2  C   UNL     2     -10.054  16.683  66.552  1.00  0.00    -0.305 C  
HETATM    3  C   UNL     3     -10.393   7.128  68.455  1.00  0.00    -0.194 C  
HETATM    4  H   UNL     3     -10.477   5.215  68.778  1.00  0.00     0.000 HD 
HETATM    5  H   UNL     2     -11.038  15.231  65.789  1.00  0.00     0.000 HD 
HETATM    6  O   UNL     2     -10.958  16.157  65.594  1.00  0.00    -0.253 OA 
HETATM    7  O   UNL     3      -9.976   5.794  68.215  1.00  0.00    -0.131 OA 
ENDROOT
BRANCH   2   8
HETATM    8  C   UNL     2      -9.924  18.186  66.236  1.00  0.00    -0.342 C  
HETATM    9  H   UNL     2     -10.793  19.556  65.099  1.00  0.00     0.000 HD 
HETATM   10  O   UNL     2     -10.873  18.629  65.293  1.00  0.00    -0.591 OA 
ENDBRANCH   2   8
BRANCH   2  11
HETATM   11  C   UNL     2      -8.708  15.859  66.486  1.00  0.00    -0.315 C  
HETATM   12  H   UNL     2      -6.768  16.205  66.619  1.00  0.00     0.000 HD 
HETATM   13  O   UNL     2      -7.578  16.701  66.659  1.00  0.00    -0.223 OA 
BRANCH  11  14
HETATM   14  C   UNL     2      -8.568  14.690  67.515  1.00  0.00    -0.187 C  
HETATM   15  H   UNL     2      -7.135  13.920  68.539  1.00  0.00     0.000 HD 
HETATM   16  O   UNL     2      -7.220  14.630  67.914  1.00  0.00    -0.125 OA 
BRANCH  14  17
HETATM   17  C   UNL     2      -8.981  13.292  66.997  1.00  0.00    -0.228 C  
HETATM   18  C   UNL     2     -10.146  12.726  67.790  1.00  0.00    -0.224 C  
HETATM   19  H   UNL     2      -8.143  11.556  66.788  1.00  0.00     0.000 HD 
HETATM   20  O   UNL     2      -7.890  12.414  67.106  1.00  0.00    -0.170 OA 
HETATM   21  O   UNL     2     -10.669  11.535  67.455  1.00  0.00    -0.210 OA 
HETATM   22  O   UNL     2     -10.678  13.369  68.695  1.00  0.00    -0.248 OA 
ENDBRANCH  14  17
ENDBRANCH  11  14
ENDBRANCH   2  11
BRANCH   3  23
HETATM   23  C   UNL     3     -10.304   7.323  70.021  1.00  0.00    -0.213 C  
HETATM   24  O   UNL     3      -8.989   7.773  70.249  1.00  0.00    -0.146 OA 
HETATM   25  H   UNL     3      -8.935   7.890  71.190  1.00  0.00     0.000 HD 
BRANCH  23  26
HETATM   26  C   UNL     3     -11.226   8.176  71.006  1.00  0.00    -0.258 C  
HETATM   27  O   UNL     3     -12.537   7.814  70.650  1.00  0.00    -0.518 OA 
HETATM   28  H   UNL     3     -13.086   8.322  71.235  1.00  0.00     0.000 HD 
BRANCH  26  29
HETATM   29  C   UNL     3     -11.288   9.777  71.115  1.00  0.00    -0.389 C  
HETATM   30  C   UNL     3     -12.592  10.503  70.936  1.00  0.00    -0.398 C  
HETATM   31  O   UNL     3     -10.403  10.387  70.201  1.00  0.00    -0.418 OA 
HETATM   32  O   UNL     3     -13.219  10.491  69.746  1.00  0.00     0.007 OA 
HETATM   33  O   UNL     3     -13.004  11.235  71.822  1.00  0.00    -0.453 OA 
HETATM   34  H   UNL     3     -10.440  11.335  70.266  1.00  0.00     0.000 HD 
ENDBRANCH  26  29
ENDBRANCH  23  26
ENDBRANCH   3  23
BRANCH   3  35
HETATM   35  C   UNL     3      -9.567   8.083  67.526  1.00  0.00    -0.153 C  
HETATM   36  O   UNL     3     -10.360   8.701  66.556  1.00  0.00    -0.282 OA 
HETATM   37  H   UNL     3      -9.859   9.280  65.994  1.00  0.00     0.000 HD 
ENDBRANCH   3  35
TORSDOF 8
ENDMDL
MODEL       43
REMARK 921   NORMALIZED FREE ENERGY PREDICTED BY IDOCK:   -5.87 KCAL/MOL
REMARK 922        TOTAL FREE ENERGY PREDICTED BY IDOCK:  -10.29 KCAL/MOL
REMARK 923 INTER-LIGAND FREE ENERGY PREDICTED BY IDOCK:   -9.32 KCAL/MOL
REMARK 924 INTRA-LIGAND FREE ENERGY PREDICTED BY IDOCK:   -0.97 KCAL/MOL
REMARK 927      BINDING AFFINITY PREDICTED BY RF-SCORE:    0.00 PKD
ROOT
HETATM    1 MN   UNL     1      -9.621  11.925  67.171  1.00  0.00    -0.171 Mn 
HETATM    2  C   UNL     2     -10.358   6.948  73.066  1.00  0.00    -0.244 C  
HETATM    3  C   UNL     3     -10.388  11.954  64.700  1.00  0.00    -0.284 C  
HETATM    4  H   UNL     3     -10.341  12.928  63.022  1.00  0.00     0.000 HD 
HETATM    5  H   UNL     2      -8.966   7.629  71.942  1.00  0.00     0.000 HD 
HETATM    6  O   UNL     2      -8.987   7.105  72.735  1.00  0.00    -0.130 OA 
HETATM    7  O   UNL     3     -10.332  12.015  63.285  1.00  0.00    -0.434 OA 
ENDROOT
BRANCH   2   8
HETATM    8  C   UNL     2     -10.391   6.100  74.353  1.00  0.00    -0.261 C  
HETATM    9  H   UNL     2     -10.446   4.193  74.885  1.00  0.00     0.000 HD 
HETATM   10  O   UNL     2     -10.425   4.716  74.093  1.00  0.00    -0.230 OA 
ENDBRANCH   2   8
BRANCH   2  11
HETATM   11  C   UNL     2     -11.111   6.326  71.825  1.00  0.00    -0.273 C  
HETATM   12  H   UNL     2     -12.936   6.317  71.071  1.00  0.00     0.000 HD 
HETATM   13  O   UNL     2     -12.483   6.691  71.818  1.00  0.00    -0.352 OA 
BRANCH  11  14
HETATM   14  C   UNL     2     -10.534   6.692  70.418  1.00  0.00    -0.211 C  
HETATM   15  H   UNL     2     -10.802   8.108  69.145  1.00  0.00     0.000 HD 
HETATM   16  O   UNL     2     -11.152   7.885  70.000  1.00  0.00    -0.241 OA 
BRANCH  14  17
HETATM   17  C   UNL     2     -10.740   5.628  69.314  1.00  0.00    -0.280 C  
HETATM   18  C   UNL     2      -9.605   4.619  69.296  1.00  0.00    -0.181 C  
HETATM   19  H   UNL     2     -10.930   5.610  67.385  1.00  0.00     0.000 HD 
HETATM   20  O   UNL     2     -10.803   6.263  68.063  1.00  0.00    -0.272 OA 
HETATM   21  O   UNL     2      -9.635   3.594  68.428  1.00  0.00    -0.163 OA 
HETATM   22  O   UNL     2      -8.686   4.673  70.112  1.00  0.00    -0.079 OA 
ENDBRANCH  14  17
ENDBRANCH  11  14
ENDBRANCH   2  11
BRANCH   3  23
HETATM   23  C   UNL     3     -11.620  12.854  65.113  1.00  0.00    -0.332 C  
HETATM   24  O   UNL     3     -11.690  12.738  66.516  1.00  0.00    -0.361 OA 
HETATM   25  H   UNL     3     -12.431  13.279  66.764  1.00  0.00     0.000 HD 
BRANCH  23  26
HETATM   26  C   UNL     3     -11.926  14.388  64.794  1.00  0.00    -0.447 C  
HETATM   27  O   UNL     3     -12.501  14.364  63.511  1.00  0.00    -1.102 OA 
HETATM   28  H   UNL     3     -12.683  15.277  63.320  1.00  0.00     0.000 HD 
BRANCH  26  29
HETATM   29  C   UNL     3     -10.857  15.583  64.711  1.00  0.00    -0.363 C  
HETATM   30  C   UNL     3     -10.118  16.032  65.941  1.00  0.00    -0.353 C  
HETATM   31  O   UNL     3     -11.441  16.757  64.188  1.00  0.00    -1.369 OA 
HETATM   32  O   UNL     3     -10.781  16.604  66.962  1.00  0.00    -0.278 OA 
HETATM   33  O   UNL     3      -8.897  16.023  65.950  1.00  0.00    -0.311 OA 
HETATM   34  H   UNL     3     -10.807  17.464  64.140  1.00  0.00     0.000 HD 
ENDBRANCH  26  29
ENDBRANCH  23  26
ENDBRANCH   3  23
BRANCH   3  35
HETATM   35  C   UNL     3     -10.373  10.448  65.135  1.00  0.00    -0.190 C  
HETATM   36  O   UNL     3      -9.462   9.688  64.396  1.00  0.00    -0.408 OA 
HETATM   37  H   UNL     3      -9.453   8.775  64.660  1.00  0.00     0.000 HD 
ENDBRANCH   3  35
TORSDOF 8
ENDMDL
MODEL       44
REMARK 921   NORMALIZED FREE ENERGY PREDICTED BY IDOCK:   -5.84 KCAL/MOL
REMARK 922        TOTAL FREE ENERGY PREDICTED BY IDOCK:  -10.25 KCAL/MOL
REMARK 923 INTER-LIGAND FREE ENERGY PREDICTED BY IDOCK:   -8.68 KCAL/MOL
REMARK 924 INTRA-LIGAND FREE ENERGY PREDICTED BY IDOCK:   -1.57 KCAL/MOL
REMARK 927      BINDING AFFINITY PREDICTED BY RF-SCORE:    0.00 PKD
ROOT
HETATM    1 MN   UNL     1      -9.674  12.148  64.593  1.00  0.00    -0.235 Mn 
HETATM    2  C   UNL     2      -8.479   5.646  68.637  1.00  0.00    -0.105 C  
HETATM    3  C   UNL     3     -11.669  13.766  64.287  1.00  0.00    -0.395 C  
HETATM    4  H   UNL     3     -12.318  15.352  63.374  1.00  0.00     0.000 HD 
HETATM    5  H   UNL     2      -8.636   6.174  66.804  1.00  0.00     0.000 HD 
HETATM    6  O   UNL     2      -8.369   5.378  67.248  1.00  0.00    -0.108 OA 
HETATM    7  O   UNL     3     -12.689  14.525  63.661  1.00  0.00    -0.754 OA 
ENDROOT
BRANCH   2   8
HETATM    8  C   UNL     2      -8.046   4.353  69.356  1.00  0.00    -0.060 C  
HETATM    9  H   UNL     2      -7.176   3.804  71.049  1.00  0.00     0.000 HD 
HETATM   10  O   UNL     2      -7.443   4.600  70.605  1.00  0.00    -0.051 OA 
ENDBRANCH   2   8
BRANCH   2  11
HETATM   11  C   UNL     2      -9.951   6.130  68.944  1.00  0.00    -0.152 C  
HETATM   12  H   UNL     2     -11.559   5.444  69.862  1.00  0.00     0.000 HD 
HETATM   13  O   UNL     2     -10.674   5.152  69.677  1.00  0.00    -0.212 OA 
BRANCH  11  14
HETATM   14  C   UNL     2     -10.079   7.477  69.730  1.00  0.00    -0.194 C  
HETATM   15  H   UNL     2     -10.682   9.256  69.324  1.00  0.00     0.000 HD 
HETATM   16  O   UNL     2     -10.604   8.438  68.847  1.00  0.00    -0.212 OA 
BRANCH  14  17
HETATM   17  C   UNL     2      -8.762   8.032  70.321  1.00  0.00    -0.134 C  
HETATM   18  C   UNL     2      -8.965   8.561  71.730  1.00  0.00    -0.220 C  
HETATM   19  H   UNL     2      -7.483   9.418  69.871  1.00  0.00     0.000 HD 
HETATM   20  O   UNL     2      -8.291   9.076  69.508  1.00  0.00    -0.109 OA 
HETATM   21  O   UNL     2      -7.918   9.046  72.420  1.00  0.00    -0.344 OA 
HETATM   22  O   UNL     2     -10.058   8.490  72.291  1.00  0.00    -0.293 OA 
ENDBRANCH  14  17
ENDBRANCH  11  14
ENDBRANCH   2  11
BRANCH   3  23
HETATM   23  C   UNL     3     -11.028  14.729  65.365  1.00  0.00    -0.359 C  
HETATM   24  O   UNL     3      -9.649  14.445  65.320  1.00  0.00    -0.533 OA 
HETATM   25  H   UNL     3      -9.265  15.023  65.968  1.00  0.00     0.000 HD 
BRANCH  23  26
HETATM   26  C   UNL     3     -11.134  16.315  65.521  1.00  0.00    -0.033 C  
HETATM   27  O   UNL     3     -11.104  16.793  64.198  1.00  0.00    -1.346 OA 
HETATM   28  H   UNL     3     -11.167  17.736  64.291  1.00  0.00     0.000 HD 
BRANCH  26  29
HETATM   29  C   UNL     3     -10.107  17.273  66.297  1.00  0.00    -0.316 C  
HETATM   30  C   UNL     3     -10.502  18.676  66.666  1.00  0.00    -0.413 C  
HETATM   31  O   UNL     3      -8.897  17.413  65.582  1.00  0.00    -0.448 OA 
HETATM   32  O   UNL     3     -10.740  19.590  65.708  1.00  0.00    -0.503 OA 
HETATM   33  O   UNL     3     -10.456  19.030  67.834  1.00  0.00    -0.392 OA 
HETATM   34  H   UNL     3      -8.290  17.981  66.042  1.00  0.00     0.000 HD 
ENDBRANCH  26  29
ENDBRANCH  23  26
ENDBRANCH   3  23
BRANCH   3  35
HETATM   35  C   UNL     3     -12.282  12.403  64.761  1.00  0.00    -0.423 C  
HETATM   36  O   UNL     3     -11.899  11.335  63.946  1.00  0.00    -0.329 OA 
HETATM   37  H   UNL     3     -12.270  10.509  64.233  1.00  0.00     0.000 HD 
ENDBRANCH   3  35
TORSDOF 8
ENDMDL
MODEL       45
REMARK 921   NORMALIZED FREE ENERGY PREDICTED BY IDOCK:   -5.83 KCAL/MOL
REMARK 922        TOTAL FREE ENERGY PREDICTED BY IDOCK:  -10.23 KCAL/MOL
REMARK 923 INTER-LIGAND FREE ENERGY PREDICTED BY IDOCK:   -8.19 KCAL/MOL
REMARK 924 INTRA-LIGAND FREE ENERGY PREDICTED BY IDOCK:   -2.05 KCAL/MOL
REMARK 927      BINDING AFFINITY PREDICTED BY RF-SCORE:    0.00 PKD
ROOT
HETATM    1 MN   UNL     1     -12.454  12.957  69.137  1.00  0.00    -0.280 Mn 
HETATM    2  C   UNL     2      -9.878   5.705  70.045  1.00  0.00    -0.186 C  
HETATM    3  C   UNL     3     -13.195  14.845  70.744  1.00  0.00    -0.329 C  
HETATM    4  H   UNL     3     -13.910  16.646  70.875  1.00  0.00     0.000 HD 
HETATM    5  H   UNL     2     -11.433   6.589  69.365  1.00  0.00     0.000 HD 
HETATM    6  O   UNL     2     -11.112   5.695  69.345  1.00  0.00    -0.294 OA 
HETATM    7  O   UNL     3     -14.002  15.834  71.361  1.00  0.00    -0.512 OA 
ENDROOT
BRANCH   2   8
HETATM    8  C   UNL     2      -9.357   4.254  70.012  1.00  0.00    -0.164 C  
HETATM    9  H   UNL     2      -7.720   3.264  69.500  1.00  0.00     0.000 HD 
HETATM   10  O   UNL     2      -8.041   4.158  69.520  1.00  0.00    -0.059 OA 
ENDBRANCH   2   8
BRANCH   2  11
HETATM   11  C   UNL     2     -10.117   6.306  71.487  1.00  0.00    -0.190 C  
HETATM   12  H   UNL     2      -9.206   6.320  73.238  1.00  0.00     0.000 HD 
HETATM   13  O   UNL     2      -9.063   5.958  72.372  1.00  0.00    -0.141 OA 
BRANCH  11  14
HETATM   14  C   UNL     2     -10.285   7.859  71.562  1.00  0.00    -0.190 C  
HETATM   15  H   UNL     2      -9.774   9.240  72.798  1.00  0.00     0.000 HD 
HETATM   16  O   UNL     2      -9.672   8.297  72.751  1.00  0.00    -0.269 OA 
BRANCH  14  17
HETATM   17  C   UNL     2     -11.743   8.374  71.553  1.00  0.00    -0.290 C  
HETATM   18  C   UNL     2     -11.846   9.739  70.896  1.00  0.00    -0.336 C  
HETATM   19  H   UNL     2     -13.107   8.786  72.867  1.00  0.00     0.000 HD 
HETATM   20  O   UNL     2     -12.211   8.470  72.873  1.00  0.00    -0.270 OA 
HETATM   21  O   UNL     2     -13.046  10.327  70.758  1.00  0.00    -0.381 OA 
HETATM   22  O   UNL     2     -10.860  10.295  70.413  1.00  0.00    -0.294 OA 
ENDBRANCH  14  17
ENDBRANCH  11  14
ENDBRANCH   2  11
BRANCH   3  23
HETATM   23  C   UNL     3     -11.759  15.495  70.610  1.00  0.00    -0.357 C  
HETATM   24  O   UNL     3     -10.983  14.844  71.588  1.00  0.00    -0.540 OA 
HETATM   25  H   UNL     3     -10.121  15.235  71.508  1.00  0.00     0.000 HD 
BRANCH  23  26
HETATM   26  C   UNL     3     -10.810  15.640  69.335  1.00  0.00    -0.264 C  
HETATM   27  O   UNL     3     -11.618  16.277  68.375  1.00  0.00    -0.327 OA 
HETATM   28  H   UNL     3     -11.053  16.363  67.616  1.00  0.00     0.000 HD 
BRANCH  26  29
HETATM   29  C   UNL     3     -10.114  14.447  68.517  1.00  0.00    -0.244 C  
HETATM   30  C   UNL     3     -10.603  14.076  67.144  1.00  0.00    -0.274 C  
HETATM   31  O   UNL     3     -10.139  13.241  69.250  1.00  0.00    -0.399 OA 
HETATM   32  O   UNL     3     -11.836  13.565  66.976  1.00  0.00    -0.365 OA 
HETATM   33  O   UNL     3      -9.827  14.091  66.201  1.00  0.00    -0.292 OA 
HETATM   34  H   UNL     3      -9.727  12.535  68.765  1.00  0.00     0.000 HD 
ENDBRANCH  26  29
ENDBRANCH  23  26
ENDBRANCH   3  23
BRANCH   3  35
HETATM   35  C   UNL     3     -13.346  13.507  71.545  1.00  0.00    -0.285 C  
HETATM   36  O   UNL     3     -13.523  13.722  72.914  1.00  0.00    -0.652 OA 
HETATM   37  H   UNL     3     -13.615  12.910  73.400  1.00  0.00     0.000 HD 
ENDBRANCH   3  35
TORSDOF 8
ENDMDL
MODEL       46
REMARK 921   NORMALIZED FREE ENERGY PREDICTED BY IDOCK:   -5.83 KCAL/MOL
REMARK 922        TOTAL FREE ENERGY PREDICTED BY IDOCK:  -10.23 KCAL/MOL
REMARK 923 INTER-LIGAND FREE ENERGY PREDICTED BY IDOCK:   -8.94 KCAL/MOL
REMARK 924 INTRA-LIGAND FREE ENERGY PREDICTED BY IDOCK:   -1.29 KCAL/MOL
REMARK 927      BINDING AFFINITY PREDICTED BY RF-SCORE:    0.00 PKD
ROOT
HETATM    1 MN   UNL     1      -9.224  11.133  70.071  1.00  0.00    -0.379 Mn 
HETATM    2  C   UNL     2      -9.093  18.104  66.688  1.00  0.00    -0.282 C  
HETATM    3  C   UNL     3     -10.956   9.217  70.237  1.00  0.00    -0.247 C  
HETATM    4  H   UNL     3     -11.343   7.472  70.995  1.00  0.00     0.000 HD 
HETATM    5  H   UNL     2      -9.121  17.381  68.460  1.00  0.00     0.000 HD 
HETATM    6  O   UNL     2      -8.984  18.248  68.095  1.00  0.00    -0.285 OA 
HETATM    7  O   UNL     3     -11.838   8.260  70.797  1.00  0.00    -0.264 OA 
ENDROOT
BRANCH   2   8
HETATM    8  C   UNL     2      -8.870  19.510  66.097  1.00  0.00    -0.309 C  
HETATM    9  H   UNL     2      -7.496  20.500  65.069  1.00  0.00     0.000 HD 
HETATM   10  O   UNL     2      -7.634  19.633  65.433  1.00  0.00    -0.401 OA 
ENDBRANCH   2   8
BRANCH   2  11
HETATM   11  C   UNL     2     -10.487  17.442  66.352  1.00  0.00    -0.267 C  
HETATM   12  H   UNL     2     -11.725  17.330  64.818  1.00  0.00     0.000 HD 
HETATM   13  O   UNL     2     -10.887  17.729  65.021  1.00  0.00    -0.774 OA 
BRANCH  11  14
HETATM   14  C   UNL     2     -10.569  15.890  66.529  1.00  0.00    -0.297 C  
HETATM   15  H   UNL     2      -9.304  14.463  66.775  1.00  0.00     0.000 HD 
HETATM   16  O   UNL     2      -9.254  15.406  66.668  1.00  0.00    -0.234 OA 
BRANCH  14  17
HETATM   17  C   UNL     2     -11.246  15.121  65.370  1.00  0.00    -0.338 C  
HETATM   18  C   UNL     2     -12.235  14.092  65.890  1.00  0.00    -0.456 C  
HETATM   19  H   UNL     2     -10.680  13.990  63.901  1.00  0.00     0.000 HD 
HETATM   20  O   UNL     2     -10.265  14.462  64.612  1.00  0.00    -0.362 OA 
HETATM   21  O   UNL     2     -12.952  13.356  65.024  1.00  0.00    -0.720 OA 
HETATM   22  O   UNL     2     -12.455  13.964  67.094  1.00  0.00    -0.289 OA 
ENDBRANCH  14  17
ENDBRANCH  11  14
ENDBRANCH   2  11
BRANCH   3  23
HETATM   23  C   UNL     3     -10.212   8.469  69.060  1.00  0.00    -0.207 C  
HETATM   24  O   UNL     3      -9.093   7.870  69.671  1.00  0.00    -0.151 OA 
HETATM   25  H   UNL     3      -8.646   7.420  68.963  1.00  0.00     0.000 HD 
BRANCH  23  26
HETATM   26  C   UNL     3     -10.760   7.391  68.018  1.00  0.00    -0.127 C  
HETATM   27  O   UNL     3     -11.473   6.476  68.813  1.00  0.00    -0.593 OA 
HETATM   28  H   UNL     3     -11.799   5.834  68.193  1.00  0.00     0.000 HD 
BRANCH  26  29
HETATM   29  C   UNL     3      -9.882   6.455  67.053  1.00  0.00    -0.154 C  
HETATM   30  C   UNL     3     -10.065   4.963  67.064  1.00  0.00    -0.205 C  
HETATM   31  O   UNL     3      -8.500   6.653  67.268  1.00  0.00    -0.119 OA 
HETATM   32  O   UNL     3      -9.752   4.247  68.158  1.00  0.00    -0.155 OA 
HETATM   33  O   UNL     3     -10.348   4.382  66.028  1.00  0.00    -0.249 OA 
HETATM   34  H   UNL     3      -7.980   6.099  66.697  1.00  0.00     0.000 HD 
ENDBRANCH  26  29
ENDBRANCH  23  26
ENDBRANCH   3  23
BRANCH   3  35
HETATM   35  C   UNL     3     -11.772  10.516  69.911  1.00  0.00    -0.294 C  
HETATM   36  O   UNL     3     -12.355  10.474  68.642  1.00  0.00    -0.785 OA 
HETATM   37  H   UNL     3     -12.849  11.261  68.445  1.00  0.00     0.000 HD 
ENDBRANCH   3  35
TORSDOF 8
ENDMDL
MODEL       47
REMARK 921   NORMALIZED FREE ENERGY PREDICTED BY IDOCK:   -5.82 KCAL/MOL
REMARK 922        TOTAL FREE ENERGY PREDICTED BY IDOCK:  -10.22 KCAL/MOL
REMARK 923 INTER-LIGAND FREE ENERGY PREDICTED BY IDOCK:   -7.82 KCAL/MOL
REMARK 924 INTRA-LIGAND FREE ENERGY PREDICTED BY IDOCK:   -2.40 KCAL/MOL
REMARK 927      BINDING AFFINITY PREDICTED BY RF-SCORE:    0.00 PKD
ROOT
HETATM    1 MN   UNL     1     -10.540   7.056  69.805  1.00  0.00    -0.188 Mn 
HETATM    2  C   UNL     2     -11.877  13.142  65.198  1.00  0.00    -0.359 C  
HETATM    3  C   UNL     3      -8.705   6.432  71.519  1.00  0.00    -0.134 C  
HETATM    4  H   UNL     3      -8.047   5.068  72.734  1.00  0.00     0.000 HD 
HETATM    5  H   UNL     2     -11.393  11.300  65.019  1.00  0.00     0.000 HD 
HETATM    6  O   UNL     2     -11.663  11.980  64.413  1.00  0.00    -0.345 OA 
HETATM    7  O   UNL     3      -7.660   5.717  72.157  1.00  0.00    -0.097 OA 
ENDROOT
BRANCH   2   8
HETATM    8  C   UNL     2     -12.316  14.246  64.216  1.00  0.00    -0.377 C  
HETATM    9  H   UNL     2     -12.964  14.418  62.352  1.00  0.00     0.000 HD 
HETATM   10  O   UNL     2     -12.693  13.738  62.958  1.00  0.00    -0.671 OA 
ENDBRANCH   2   8
BRANCH   2  11
HETATM   11  C   UNL     2     -10.562  13.450  66.018  1.00  0.00    -0.287 C  
HETATM   12  H   UNL     2      -9.568  15.032  66.657  1.00  0.00     0.000 HD 
HETATM   13  O   UNL     2     -10.359  14.847  66.164  1.00  0.00    -0.278 OA 
BRANCH  11  14
HETATM   14  C   UNL     2     -10.485  12.825  67.450  1.00  0.00    -0.228 C  
HETATM   15  H   UNL     2     -10.088  11.090  68.176  1.00  0.00     0.000 HD 
HETATM   16  O   UNL     2     -10.135  11.470  67.307  1.00  0.00    -0.195 OA 
BRANCH  14  17
HETATM   17  C   UNL     2     -11.787  12.902  68.282  1.00  0.00    -0.330 C  
HETATM   18  C   UNL     2     -11.682  13.941  69.385  1.00  0.00    -0.315 C  
HETATM   19  H   UNL     2     -12.841  11.696  69.374  1.00  0.00     0.000 HD 
HETATM   20  O   UNL     2     -12.042  11.649  68.864  1.00  0.00    -0.342 OA 
HETATM   21  O   UNL     2     -12.735  14.178  70.184  1.00  0.00    -0.320 OA 
HETATM   22  O   UNL     2     -10.673  14.633  69.520  1.00  0.00    -0.236 OA 
ENDBRANCH  14  17
ENDBRANCH  11  14
ENDBRANCH   2  11
BRANCH   3  23
HETATM   23  C   UNL     3      -9.655   6.919  72.685  1.00  0.00    -0.145 C  
HETATM   24  O   UNL     3      -9.158   8.188  73.043  1.00  0.00    -0.239 OA 
HETATM   25  H   UNL     3      -9.729   8.480  73.743  1.00  0.00     0.000 HD 
BRANCH  23  26
HETATM   26  C   UNL     3     -11.245   7.054  72.727  1.00  0.00    -0.257 C  
HETATM   27  O   UNL     3     -11.701   6.012  71.900  1.00  0.00    -0.295 OA 
HETATM   28  H   UNL     3     -12.647   6.092  71.924  1.00  0.00     0.000 HD 
BRANCH  26  29
HETATM   29  C   UNL     3     -12.113   8.321  72.259  1.00  0.00    -0.379 C  
HETATM   30  C   UNL     3     -13.609   8.220  72.142  1.00  0.00    -0.273 C  
HETATM   31  O   UNL     3     -11.682   8.800  71.003  1.00  0.00    -0.280 OA 
HETATM   32  O   UNL     3     -14.167   7.411  71.225  1.00  0.00    -0.407 OA 
HETATM   33  O   UNL     3     -14.318   8.989  72.773  1.00  0.00    -0.596 OA 
HETATM   34  H   UNL     3     -12.197   9.550  70.726  1.00  0.00     0.000 HD 
ENDBRANCH  26  29
ENDBRANCH  23  26
ENDBRANCH   3  23
BRANCH   3  35
HETATM   35  C   UNL     3      -8.067   7.503  70.568  1.00  0.00    -0.106 C  
HETATM   36  O   UNL     3      -8.909   8.598  70.357  1.00  0.00    -0.140 OA 
HETATM   37  H   UNL     3      -8.523   9.246  69.780  1.00  0.00     0.000 HD 
ENDBRANCH   3  35
TORSDOF 8
ENDMDL
MODEL       48
REMARK 921   NORMALIZED FREE ENERGY PREDICTED BY IDOCK:   -5.81 KCAL/MOL
REMARK 922        TOTAL FREE ENERGY PREDICTED BY IDOCK:  -10.20 KCAL/MOL
REMARK 923 INTER-LIGAND FREE ENERGY PREDICTED BY IDOCK:   -8.52 KCAL/MOL
REMARK 924 INTRA-LIGAND FREE ENERGY PREDICTED BY IDOCK:   -1.68 KCAL/MOL
REMARK 927      BINDING AFFINITY PREDICTED BY RF-SCORE:    0.00 PKD
ROOT
HETATM    1 MN   UNL     1      -9.760  12.160  67.008  1.00  0.00    -0.183 Mn 
HETATM    2  C   UNL     2     -10.074   7.547  73.226  1.00  0.00    -0.331 C  
HETATM    3  C   UNL     3     -10.600  11.992  64.566  1.00  0.00    -0.313 C  
HETATM    4  H   UNL     3     -10.651  12.857  62.829  1.00  0.00     0.000 HD 
HETATM    5  H   UNL     2      -8.752   8.219  72.018  1.00  0.00     0.000 HD 
HETATM    6  O   UNL     2      -8.723   7.748  72.842  1.00  0.00    -0.134 OA 
HETATM    7  O   UNL     3     -10.589  11.964  63.149  1.00  0.00    -0.373 OA 
ENDROOT
BRANCH   2   8
HETATM    8  C   UNL     2     -10.028   6.783  74.565  1.00  0.00    -0.213 C  
HETATM    9  H   UNL     2      -9.071   5.252  75.380  1.00  0.00     0.000 HD 
HETATM   10  O   UNL     2      -9.100   5.723  74.556  1.00  0.00    -0.124 OA 
ENDBRANCH   2   8
BRANCH   2  11
HETATM   11  C   UNL     2     -10.831   6.810  72.052  1.00  0.00    -0.227 C  
HETATM   12  H   UNL     2     -12.302   5.508  71.845  1.00  0.00     0.000 HD 
HETATM   13  O   UNL     2     -11.846   5.951  72.551  1.00  0.00    -0.295 OA 
BRANCH  11  14
HETATM   14  C   UNL     2     -11.500   7.734  70.981  1.00  0.00    -0.281 C  
HETATM   15  H   UNL     2     -11.185   8.148  69.131  1.00  0.00     0.000 HD 
HETATM   16  O   UNL     2     -10.780   7.587  69.781  1.00  0.00    -0.241 OA 
BRANCH  14  17
HETATM   17  C   UNL     2     -11.548   9.239  71.335  1.00  0.00    -0.367 C  
HETATM   18  C   UNL     2     -12.958   9.685  71.678  1.00  0.00    -0.407 C  
HETATM   19  H   UNL     2     -11.119  10.913  70.456  1.00  0.00     0.000 HD 
HETATM   20  O   UNL     2     -11.090   9.989  70.239  1.00  0.00    -0.271 OA 
HETATM   21  O   UNL     2     -13.186  10.955  72.053  1.00  0.00    -0.492 OA 
HETATM   22  O   UNL     2     -13.896   8.888  71.695  1.00  0.00    -0.386 OA 
ENDBRANCH  14  17
ENDBRANCH  11  14
ENDBRANCH   2  11
BRANCH   3  23
HETATM   23  C   UNL     3     -11.863  12.857  64.961  1.00  0.00    -0.372 C  
HETATM   24  O   UNL     3     -12.275  12.337  66.204  1.00  0.00    -0.647 OA 
HETATM   25  H   UNL     3     -13.034  12.857  66.441  1.00  0.00     0.000 HD 
BRANCH  23  26
HETATM   26  C   UNL     3     -12.028  14.440  65.083  1.00  0.00    -0.391 C  
HETATM   27  O   UNL     3     -11.555  14.931  63.852  1.00  0.00    -0.634 OA 
HETATM   28  H   UNL     3     -11.653  15.873  63.925  1.00  0.00     0.000 HD 
BRANCH  26  29
HETATM   29  C   UNL     3     -11.333  15.397  66.168  1.00  0.00    -0.082 C  
HETATM   30  C   UNL     3     -10.128  16.218  65.801  1.00  0.00    -0.347 C  
HETATM   31  O   UNL     3     -10.943  14.671  67.315  1.00  0.00    -0.300 OA 
HETATM   32  O   UNL     3      -8.967  15.618  65.484  1.00  0.00    -0.051 OA 
HETATM   33  O   UNL     3     -10.156  17.430  65.943  1.00  0.00    -0.500 OA 
HETATM   34  H   UNL     3     -10.531  15.238  67.957  1.00  0.00     0.000 HD 
ENDBRANCH  26  29
ENDBRANCH  23  26
ENDBRANCH   3  23
BRANCH   3  35
HETATM   35  C   UNL     3     -10.497  10.520  65.094  1.00  0.00    -0.154 C  
HETATM   36  O   UNL     3      -9.581   9.755  64.367  1.00  0.00    -0.406 OA 
HETATM   37  H   UNL     3      -9.519   8.862  64.687  1.00  0.00     0.000 HD 
ENDBRANCH   3  35
TORSDOF 8
ENDMDL
MODEL       49
REMARK 921   NORMALIZED FREE ENERGY PREDICTED BY IDOCK:   -5.81 KCAL/MOL
REMARK 922        TOTAL FREE ENERGY PREDICTED BY IDOCK:  -10.20 KCAL/MOL
REMARK 923 INTER-LIGAND FREE ENERGY PREDICTED BY IDOCK:   -9.16 KCAL/MOL
REMARK 924 INTRA-LIGAND FREE ENERGY PREDICTED BY IDOCK:   -1.04 KCAL/MOL
REMARK 927      BINDING AFFINITY PREDICTED BY RF-SCORE:    0.00 PKD
ROOT
HETATM    1 MN   UNL     1     -11.610   8.549  68.842  1.00  0.00    -0.436 Mn 
HETATM    2  C   UNL     2     -10.492  15.813  66.385  1.00  0.00    -0.303 C  
HETATM    3  C   UNL     3     -10.817   7.170  70.883  1.00  0.00    -0.244 C  
HETATM    4  H   UNL     3     -10.838   5.431  71.744  1.00  0.00     0.000 HD 
HETATM    5  H   UNL     2     -10.016  14.039  65.848  1.00  0.00     0.000 HD 
HETATM    6  O   UNL     2      -9.954  14.897  65.444  1.00  0.00    -0.349 OA 
HETATM    7  O   UNL     3     -10.213   6.139  71.644  1.00  0.00    -0.192 OA 
ENDROOT
BRANCH   2   8
HETATM    8  C   UNL     2     -10.392  17.205  65.729  1.00  0.00    -0.240 C  
HETATM    9  H   UNL     2     -11.109  18.172  64.156  1.00  0.00     0.000 HD 
HETATM   10  O   UNL     2     -11.170  17.314  64.560  1.00  0.00    -1.083 OA 
ENDBRANCH   2   8
BRANCH   2  11
HETATM   11  C   UNL     2      -9.716  15.652  67.751  1.00  0.00    -0.218 C  
HETATM   12  H   UNL     2      -9.032  16.812  69.195  1.00  0.00     0.000 HD 
HETATM   13  O   UNL     2      -9.499  16.909  68.373  1.00  0.00    -0.241 OA 
BRANCH  11  14
HETATM   14  C   UNL     2     -10.389  14.725  68.816  1.00  0.00    -0.248 C  
HETATM   15  H   UNL     2     -10.662  12.833  69.020  1.00  0.00     0.000 HD 
HETATM   16  O   UNL     2     -10.253  13.396  68.373  1.00  0.00    -0.243 OA 
BRANCH  14  17
HETATM   17  C   UNL     2     -11.889  14.994  69.082  1.00  0.00    -0.308 C  
HETATM   18  C   UNL     2     -12.126  15.460  70.508  1.00  0.00    -0.371 C  
HETATM   19  H   UNL     2     -13.540  13.979  69.027  1.00  0.00     0.000 HD 
HETATM   20  O   UNL     2     -12.619  13.814  68.864  1.00  0.00     0.008 OA 
HETATM   21  O   UNL     2     -13.367  15.783  70.910  1.00  0.00    -0.576 OA 
HETATM   22  O   UNL     2     -11.192  15.623  71.293  1.00  0.00    -0.350 OA 
ENDBRANCH  14  17
ENDBRANCH  11  14
ENDBRANCH   2  11
BRANCH   3  23
HETATM   23  C   UNL     3     -12.197   7.467  71.596  1.00  0.00    -0.322 C  
HETATM   24  O   UNL     3     -12.265   6.528  72.643  1.00  0.00    -0.501 OA 
HETATM   25  H   UNL     3     -13.094   6.706  73.071  1.00  0.00     0.000 HD 
BRANCH  23  26
HETATM   26  C   UNL     3     -12.769   8.828  72.203  1.00  0.00    -0.400 C  
HETATM   27  O   UNL     3     -13.927   8.435  72.898  1.00  0.00    -0.632 OA 
HETATM   28  H   UNL     3     -14.268   9.245  73.259  1.00  0.00     0.000 HD 
BRANCH  26  29
HETATM   29  C   UNL     3     -13.240  10.123  71.379  1.00  0.00    -0.380 C  
HETATM   30  C   UNL     3     -12.419  10.636  70.229  1.00  0.00    -0.304 C  
HETATM   31  O   UNL     3     -13.411  11.237  72.229  1.00  0.00    -0.625 OA 
HETATM   32  O   UNL     3     -11.187  11.133  70.442  1.00  0.00    -0.184 OA 
HETATM   33  O   UNL     3     -12.927  10.748  69.124  1.00  0.00     0.046 OA 
HETATM   34  H   UNL     3     -13.689  12.003  71.741  1.00  0.00     0.000 HD 
ENDBRANCH  26  29
ENDBRANCH  23  26
ENDBRANCH   3  23
BRANCH   3  35
HETATM   35  C   UNL     3      -9.785   8.339  70.718  1.00  0.00    -0.172 C  
HETATM   36  O   UNL     3      -9.441   8.923  71.940  1.00  0.00    -0.290 OA 
HETATM   37  H   UNL     3      -8.816   9.631  71.840  1.00  0.00     0.000 HD 
ENDBRANCH   3  35
TORSDOF 8
ENDMDL
MODEL       50
REMARK 921   NORMALIZED FREE ENERGY PREDICTED BY IDOCK:   -5.81 KCAL/MOL
REMARK 922        TOTAL FREE ENERGY PREDICTED BY IDOCK:  -10.20 KCAL/MOL
REMARK 923 INTER-LIGAND FREE ENERGY PREDICTED BY IDOCK:   -7.90 KCAL/MOL
REMARK 924 INTRA-LIGAND FREE ENERGY PREDICTED BY IDOCK:   -2.30 KCAL/MOL
REMARK 927      BINDING AFFINITY PREDICTED BY RF-SCORE:    0.00 PKD
ROOT
HETATM    1 MN   UNL     1     -11.518  13.993  67.557  1.00  0.00    -0.260 Mn 
HETATM    2  C   UNL     2      -8.208   7.819  70.871  1.00  0.00    -0.107 C  
HETATM    3  C   UNL     3     -11.202  15.252  65.319  1.00  0.00    -0.336 C  
HETATM    4  H   UNL     3     -11.762  16.768  64.243  1.00  0.00     0.000 HD 
HETATM    5  H   UNL     2      -8.294   9.710  71.150  1.00  0.00     0.000 HD 
HETATM    6  O   UNL     2      -7.969   8.976  71.658  1.00  0.00    -0.326 OA 
HETATM    7  O   UNL     3     -10.949  16.303  64.402  1.00  0.00    -0.708 OA 
ENDROOT
BRANCH   2   8
HETATM    8  C   UNL     2      -7.681   6.627  71.695  1.00  0.00    -0.098 C  
HETATM    9  H   UNL     2      -8.317   4.875  72.364  1.00  0.00     0.000 HD 
HETATM   10  O   UNL     2      -8.642   5.610  71.857  1.00  0.00    -0.129 OA 
ENDBRANCH   2   8
BRANCH   2  11
HETATM   11  C   UNL     2      -7.530   8.018  69.458  1.00  0.00    -0.092 C  
HETATM   12  H   UNL     2      -6.505   6.940  68.159  1.00  0.00     0.000 HD 
HETATM   13  O   UNL     2      -6.912   6.821  69.009  1.00  0.00    -0.076 OA 
BRANCH  11  14
HETATM   14  C   UNL     2      -8.471   8.506  68.308  1.00  0.00    -0.135 C  
HETATM   15  H   UNL     2      -8.629   8.171  66.422  1.00  0.00     0.000 HD 
HETATM   16  O   UNL     2      -8.058   7.875  67.120  1.00  0.00    -0.114 OA 
BRANCH  14  17
HETATM   17  C   UNL     2      -8.488  10.033  68.063  1.00  0.00    -0.117 C  
HETATM   18  C   UNL     2      -9.904  10.583  68.081  1.00  0.00    -0.153 C  
HETATM   19  H   UNL     2      -7.921  11.247  66.662  1.00  0.00     0.000 HD 
HETATM   20  O   UNL     2      -7.911  10.310  66.813  1.00  0.00    -0.110 OA 
HETATM   21  O   UNL     2     -10.112  11.902  67.927  1.00  0.00    -0.183 OA 
HETATM   22  O   UNL     2     -10.871   9.857  68.309  1.00  0.00    -0.239 OA 
ENDBRANCH  14  17
ENDBRANCH  11  14
ENDBRANCH   2  11
BRANCH   3  23
HETATM   23  C   UNL     3     -12.430  14.457  64.720  1.00  0.00    -0.357 C  
HETATM   24  O   UNL     3     -12.356  14.682  63.331  1.00  0.00    -1.032 OA 
HETATM   25  H   UNL     3     -13.094  14.204  62.972  1.00  0.00     0.000 HD 
BRANCH  23  26
HETATM   26  C   UNL     3     -12.841  12.923  64.884  1.00  0.00    -0.295 C  
HETATM   27  O   UNL     3     -12.489  12.613  66.210  1.00  0.00    -0.483 OA 
HETATM   28  H   UNL     3     -12.733  11.700  66.308  1.00  0.00     0.000 HD 
BRANCH  26  29
HETATM   29  C   UNL     3     -12.273  11.682  64.039  1.00  0.00    -0.117 C  
HETATM   30  C   UNL     3     -10.794  11.518  63.823  1.00  0.00    -0.416 C  
HETATM   31  O   UNL     3     -12.835  11.644  62.744  1.00  0.00    -0.788 OA 
HETATM   32  O   UNL     3     -10.109  12.417  63.094  1.00  0.00    -0.359 OA 
HETATM   33  O   UNL     3     -10.242  10.488  64.176  1.00  0.00    -0.342 OA 
HETATM   34  H   UNL     3     -12.499  10.910  62.244  1.00  0.00     0.000 HD 
ENDBRANCH  26  29
ENDBRANCH  23  26
ENDBRANCH   3  23
BRANCH   3  35
HETATM   35  C   UNL     3      -9.860  14.485  65.581  1.00  0.00    -0.305 C  
HETATM   36  O   UNL     3      -9.384  14.673  66.881  1.00  0.00    -0.220 OA 
HETATM   37  H   UNL     3      -8.571  14.208  67.040  1.00  0.00     0.000 HD 
ENDBRANCH   3  35
TORSDOF 8
ENDMDL
MODEL       51
REMARK 921   NORMALIZED FREE ENERGY PREDICTED BY IDOCK:   -5.80 KCAL/MOL
REMARK 922        TOTAL FREE ENERGY PREDICTED BY IDOCK:  -10.18 KCAL/MOL
REMARK 923 INTER-LIGAND FREE ENERGY PREDICTED BY IDOCK:   -8.00 KCAL/MOL
REMARK 924 INTRA-LIGAND FREE ENERGY PREDICTED BY IDOCK:   -2.18 KCAL/MOL
REMARK 927      BINDING AFFINITY PREDICTED BY RF-SCORE:    0.00 PKD
ROOT
HETATM    1 MN   UNL     1     -12.640  13.529  69.010  1.00  0.00    -0.316 Mn 
HETATM    2  C   UNL     2     -10.678   6.602  71.877  1.00  0.00    -0.223 C  
HETATM    3  C   UNL     3     -11.353  15.701  68.444  1.00  0.00    -0.364 C  
HETATM    4  H   UNL     3     -11.502  17.531  67.814  1.00  0.00     0.000 HD 
HETATM    5  H   UNL     2     -11.683   8.136  72.423  1.00  0.00     0.000 HD 
HETATM    6  O   UNL     2     -11.570   7.257  72.764  1.00  0.00    -0.260 OA 
HETATM    7  O   UNL     3     -10.969  17.066  68.447  1.00  0.00    -0.352 OA 
ENDROOT
BRANCH   2   8
HETATM    8  C   UNL     2     -10.495   5.175  72.431  1.00  0.00    -0.216 C  
HETATM    9  H   UNL     2     -11.197   4.037  73.892  1.00  0.00     0.000 HD 
HETATM   10  O   UNL     2     -11.310   4.917  73.551  1.00  0.00    -0.329 OA 
ENDBRANCH   2   8
BRANCH   2  11
HETATM   11  C   UNL     2      -9.355   7.459  71.763  1.00  0.00    -0.145 C  
HETATM   12  H   UNL     2      -7.414   7.199  72.015  1.00  0.00     0.000 HD 
HETATM   13  O   UNL     2      -8.210   6.684  72.084  1.00  0.00    -0.106 OA 
BRANCH  11  14
HETATM   14  C   UNL     2      -9.085   8.121  70.372  1.00  0.00    -0.150 C  
HETATM   15  H   UNL     2      -8.473   9.838  69.760  1.00  0.00     0.000 HD 
HETATM   16  O   UNL     2      -8.637   9.435  70.605  1.00  0.00    -0.211 OA 
BRANCH  14  17
HETATM   17  C   UNL     2     -10.300   8.187  69.417  1.00  0.00    -0.218 C  
HETATM   18  C   UNL     2      -9.897   7.886  67.984  1.00  0.00    -0.165 C  
HETATM   19  H   UNL     2     -11.609   9.513  68.883  1.00  0.00     0.000 HD 
HETATM   20  O   UNL     2     -10.863   9.472  69.469  1.00  0.00    -0.231 OA 
HETATM   21  O   UNL     2     -10.831   7.856  67.019  1.00  0.00    -0.305 OA 
HETATM   22  O   UNL     2      -8.738   7.592  67.692  1.00  0.00    -0.122 OA 
ENDBRANCH  14  17
ENDBRANCH  11  14
ENDBRANCH   2  11
BRANCH   3  23
HETATM   23  C   UNL     3     -11.302  15.253  66.928  1.00  0.00    -0.209 C  
HETATM   24  O   UNL     3      -9.953  14.917  66.703  1.00  0.00    -0.245 OA 
HETATM   25  H   UNL     3      -9.922  14.648  65.792  1.00  0.00     0.000 HD 
BRANCH  23  26
HETATM   26  C   UNL     3     -12.155  14.148  66.153  1.00  0.00    -0.435 C  
HETATM   27  O   UNL     3     -11.845  12.947  66.816  1.00  0.00    -0.371 OA 
HETATM   28  H   UNL     3     -12.352  12.290  66.355  1.00  0.00     0.000 HD 
BRANCH  26  29
HETATM   29  C   UNL     3     -12.042  13.766  64.598  1.00  0.00    -0.421 C  
HETATM   30  C   UNL     3     -12.183  12.337  64.152  1.00  0.00    -0.446 C  
HETATM   31  O   UNL     3     -10.814  14.198  64.053  1.00  0.00    -0.506 OA 
HETATM   32  O   UNL     3     -11.271  11.418  64.515  1.00  0.00    -0.283 OA 
HETATM   33  O   UNL     3     -13.037  12.042  63.331  1.00  0.00    -0.747 OA 
HETATM   34  H   UNL     3     -10.747  13.971  63.132  1.00  0.00     0.000 HD 
ENDBRANCH  26  29
ENDBRANCH  23  26
ENDBRANCH   3  23
BRANCH   3  35
HETATM   35  C   UNL     3     -10.473  14.933  69.489  1.00  0.00    -0.201 C  
HETATM   36  O   UNL     3     -10.326  13.580  69.171  1.00  0.00    -0.429 OA 
HETATM   37  H   UNL     3      -9.793  13.115  69.804  1.00  0.00     0.000 HD 
ENDBRANCH   3  35
TORSDOF 8
ENDMDL
MODEL       52
REMARK 921   NORMALIZED FREE ENERGY PREDICTED BY IDOCK:   -5.78 KCAL/MOL
REMARK 922        TOTAL FREE ENERGY PREDICTED BY IDOCK:  -10.16 KCAL/MOL
REMARK 923 INTER-LIGAND FREE ENERGY PREDICTED BY IDOCK:   -7.94 KCAL/MOL
REMARK 924 INTRA-LIGAND FREE ENERGY PREDICTED BY IDOCK:   -2.22 KCAL/MOL
REMARK 927      BINDING AFFINITY PREDICTED BY RF-SCORE:    0.00 PKD
ROOT
HETATM    1 MN   UNL     1      -9.272  13.991  69.480  1.00  0.00    -0.363 Mn 
HETATM    2  C   UNL     2     -10.106   7.409  73.485  1.00  0.00    -0.339 C  
HETATM    3  C   UNL     3      -9.844  14.748  67.073  1.00  0.00    -0.239 C  
HETATM    4  H   UNL     3      -9.738  16.195  65.783  1.00  0.00     0.000 HD 
HETATM    5  H   UNL     2      -8.683   8.465  72.761  1.00  0.00     0.000 HD 
HETATM    6  O   UNL     2      -8.728   7.722  73.351  1.00  0.00    -0.176 OA 
HETATM    7  O   UNL     3      -9.683  15.246  65.756  1.00  0.00    -0.327 OA 
ENDROOT
BRANCH   2   8
HETATM    8  C   UNL     2     -10.178   6.204  74.444  1.00  0.00    -0.316 C  
HETATM    9  H   UNL     2      -9.898   4.244  74.405  1.00  0.00     0.000 HD 
HETATM   10  O   UNL     2      -9.853   4.987  73.815  1.00  0.00    -0.140 OA 
ENDBRANCH   2   8
BRANCH   2  11
HETATM   11  C   UNL     2     -10.713   7.168  72.047  1.00  0.00    -0.214 C  
HETATM   12  H   UNL     2     -12.485   6.836  71.241  1.00  0.00     0.000 HD 
HETATM   13  O   UNL     2     -12.119   6.981  72.106  1.00  0.00    -0.292 OA 
BRANCH  11  14
HETATM   14  C   UNL     2     -10.445   8.291  70.992  1.00  0.00    -0.202 C  
HETATM   15  H   UNL     2     -11.528   9.500  69.961  1.00  0.00     0.000 HD 
HETATM   16  O   UNL     2     -11.690   8.818  70.602  1.00  0.00    -0.260 OA 
BRANCH  14  17
HETATM   17  C   UNL     2      -9.690   7.844  69.718  1.00  0.00    -0.176 C  
HETATM   18  C   UNL     2      -8.830   8.964  69.160  1.00  0.00    -0.136 C  
HETATM   19  H   UNL     2     -10.155   7.180  67.957  1.00  0.00     0.000 HD 
HETATM   20  O   UNL     2     -10.619   7.455  68.739  1.00  0.00    -0.206 OA 
HETATM   21  O   UNL     2      -8.066   8.745  68.076  1.00  0.00    -0.106 OA 
HETATM   22  O   UNL     2      -8.754  10.056  69.722  1.00  0.00    -0.196 OA 
ENDBRANCH  14  17
ENDBRANCH  11  14
ENDBRANCH   2  11
BRANCH   3  23
HETATM   23  C   UNL     3     -11.167  15.421  67.620  1.00  0.00    -0.311 C  
HETATM   24  O   UNL     3     -12.204  14.575  67.179  1.00  0.00    -0.552 OA 
HETATM   25  H   UNL     3     -12.998  14.980  67.507  1.00  0.00     0.000 HD 
BRANCH  23  26
HETATM   26  C   UNL     3     -11.565  15.850  69.105  1.00  0.00    -0.379 C  
HETATM   27  O   UNL     3     -10.335  16.157  69.715  1.00  0.00    -0.269 OA 
HETATM   28  H   UNL     3     -10.572  16.412  70.599  1.00  0.00     0.000 HD 
BRANCH  26  29
HETATM   29  C   UNL     3     -12.317  14.944  70.196  1.00  0.00    -0.327 C  
HETATM   30  C   UNL     3     -12.864  15.561  71.453  1.00  0.00    -0.465 C  
HETATM   31  O   UNL     3     -11.494  13.886  70.638  1.00  0.00    -0.513 OA 
HETATM   32  O   UNL     3     -12.032  16.093  72.367  1.00  0.00    -0.488 OA 
HETATM   33  O   UNL     3     -14.049  15.439  71.721  1.00  0.00    -0.493 OA 
HETATM   34  H   UNL     3     -11.940  13.350  71.284  1.00  0.00     0.000 HD 
ENDBRANCH  26  29
ENDBRANCH  23  26
ENDBRANCH   3  23
BRANCH   3  35
HETATM   35  C   UNL     3      -9.755  13.184  67.029  1.00  0.00    -0.241 C  
HETATM   36  O   UNL     3     -10.446  12.581  68.083  1.00  0.00    -0.215 OA 
HETATM   37  H   UNL     3     -10.392  11.632  68.056  1.00  0.00     0.000 HD 
ENDBRANCH   3  35
TORSDOF 8
ENDMDL
MODEL       53
REMARK 921   NORMALIZED FREE ENERGY PREDICTED BY IDOCK:   -5.78 KCAL/MOL
REMARK 922        TOTAL FREE ENERGY PREDICTED BY IDOCK:  -10.16 KCAL/MOL
REMARK 923 INTER-LIGAND FREE ENERGY PREDICTED BY IDOCK:   -7.69 KCAL/MOL
REMARK 924 INTRA-LIGAND FREE ENERGY PREDICTED BY IDOCK:   -2.47 KCAL/MOL
REMARK 927      BINDING AFFINITY PREDICTED BY RF-SCORE:    0.00 PKD
ROOT
HETATM    1 MN   UNL     1     -12.064  13.101  67.003  1.00  0.00    -0.306 Mn 
HETATM    2  C   UNL     2     -10.141   5.858  68.977  1.00  0.00    -0.185 C  
HETATM    3  C   UNL     3     -11.242  15.458  67.686  1.00  0.00    -0.311 C  
HETATM    4  H   UNL     3     -11.505  17.369  67.468  1.00  0.00     0.000 HD 
HETATM    5  H   UNL     2     -11.626   7.046  69.193  1.00  0.00     0.000 HD 
HETATM    6  O   UNL     2     -11.484   6.120  69.352  1.00  0.00    -0.423 OA 
HETATM    7  O   UNL     3     -11.258  16.787  68.178  1.00  0.00    -0.325 OA 
ENDROOT
BRANCH   2   8
HETATM    8  C   UNL     2      -9.913   4.355  69.235  1.00  0.00    -0.074 C  
HETATM    9  H   UNL     2      -9.727   3.111  70.765  1.00  0.00     0.000 HD 
HETATM   10  O   UNL     2      -9.868   4.037  70.606  1.00  0.00    -0.198 OA 
ENDBRANCH   2   8
BRANCH   2  11
HETATM   11  C   UNL     2      -9.192   6.834  69.778  1.00  0.00    -0.146 C  
HETATM   12  H   UNL     2      -7.279   7.324  69.805  1.00  0.00     0.000 HD 
HETATM   13  O   UNL     2      -7.850   6.737  69.324  1.00  0.00    -0.106 OA 
BRANCH  11  14
HETATM   14  C   UNL     2      -9.578   8.349  69.741  1.00  0.00    -0.170 C  
HETATM   15  H   UNL     2      -8.625  10.010  69.565  1.00  0.00     0.000 HD 
HETATM   16  O   UNL     2      -8.391   9.089  69.587  1.00  0.00    -0.114 OA 
BRANCH  14  17
HETATM   17  C   UNL     2     -10.318   8.880  70.992  1.00  0.00    -0.253 C  
HETATM   18  C   UNL     2     -11.128  10.124  70.672  1.00  0.00    -0.322 C  
HETATM   19  H   UNL     2      -9.834   9.519  72.757  1.00  0.00     0.000 HD 
HETATM   20  O   UNL     2      -9.380   9.194  71.989  1.00  0.00    -0.337 OA 
HETATM   21  O   UNL     2     -11.873  10.702  71.630  1.00  0.00    -0.108 OA 
HETATM   22  O   UNL     2     -11.181  10.579  69.530  1.00  0.00    -0.235 OA 
ENDBRANCH  14  17
ENDBRANCH  11  14
ENDBRANCH   2  11
BRANCH   3  23
HETATM   23  C   UNL     3     -10.342  15.500  66.387  1.00  0.00    -0.296 C  
HETATM   24  O   UNL     3      -9.091  15.004  66.805  1.00  0.00    -0.229 OA 
HETATM   25  H   UNL     3      -8.551  15.030  66.024  1.00  0.00     0.000 HD 
BRANCH  23  26
HETATM   26  C   UNL     3     -10.592  14.869  64.942  1.00  0.00    -0.391 C  
HETATM   27  O   UNL     3     -11.859  15.352  64.570  1.00  0.00    -0.456 OA 
HETATM   28  H   UNL     3     -12.008  14.977  63.710  1.00  0.00     0.000 HD 
BRANCH  26  29
HETATM   29  C   UNL     3     -10.656  13.307  64.574  1.00  0.00    -0.419 C  
HETATM   30  C   UNL     3     -11.938  12.689  64.092  1.00  0.00    -0.426 C  
HETATM   31  O   UNL     3     -10.255  12.508  65.667  1.00  0.00    -0.260 OA 
HETATM   32  O   UNL     3     -13.005  12.612  64.908  1.00  0.00    -0.830 OA 
HETATM   33  O   UNL     3     -11.966  12.115  63.015  1.00  0.00    -0.277 OA 
HETATM   34  H   UNL     3     -10.293  11.584  65.449  1.00  0.00     0.000 HD 
ENDBRANCH  26  29
ENDBRANCH  23  26
ENDBRANCH   3  23
BRANCH   3  35
HETATM   35  C   UNL     3     -10.835  14.498  68.857  1.00  0.00    -0.253 C  
HETATM   36  O   UNL     3     -10.380  13.260  68.397  1.00  0.00    -0.242 OA 
HETATM   37  H   UNL     3     -10.133  12.678  69.106  1.00  0.00     0.000 HD 
ENDBRANCH   3  35
TORSDOF 8
ENDMDL
MODEL       54
REMARK 921   NORMALIZED FREE ENERGY PREDICTED BY IDOCK:   -5.74 KCAL/MOL
REMARK 922        TOTAL FREE ENERGY PREDICTED BY IDOCK:  -10.10 KCAL/MOL
REMARK 923 INTER-LIGAND FREE ENERGY PREDICTED BY IDOCK:   -8.58 KCAL/MOL
REMARK 924 INTRA-LIGAND FREE ENERGY PREDICTED BY IDOCK:   -1.52 KCAL/MOL
REMARK 927      BINDING AFFINITY PREDICTED BY RF-SCORE:    0.00 PKD
ROOT
HETATM    1 MN   UNL     1     -11.988  11.162  67.931  1.00  0.00    -0.263 Mn 
HETATM    2  C   UNL     2     -10.508  18.550  66.118  1.00  0.00    -0.413 C  
HETATM    3  C   UNL     3     -10.575   9.180  68.809  1.00  0.00    -0.181 C  
HETATM    4  H   UNL     3     -10.582   7.299  69.289  1.00  0.00     0.000 HD 
HETATM    5  H   UNL     2     -10.995  16.932  65.218  1.00  0.00     0.000 HD 
HETATM    6  O   UNL     2     -10.941  17.846  64.964  1.00  0.00    -0.776 OA 
HETATM    7  O   UNL     3      -9.970   7.900  68.882  1.00  0.00    -0.180 OA 
ENDROOT
BRANCH   2   8
HETATM    8  C   UNL     2     -10.421  20.033  65.706  1.00  0.00    -0.364 C  
HETATM    9  H   UNL     2     -10.086  21.799  66.538  1.00  0.00     0.000 HD 
HETATM   10  O   UNL     2     -10.140  20.885  66.792  1.00  0.00    -0.137 OA 
ENDBRANCH   2   8
BRANCH   2  11
HETATM   11  C   UNL     2      -9.157  17.908  66.627  1.00  0.00    -0.267 C  
HETATM   12  H   UNL     2      -8.064  16.306  66.255  1.00  0.00     0.000 HD 
HETATM   13  O   UNL     2      -8.876  16.692  65.949  1.00  0.00    -0.486 OA 
BRANCH  11  14
HETATM   14  C   UNL     2      -7.883  18.806  66.502  1.00  0.00    -0.269 C  
HETATM   15  H   UNL     2      -6.267  18.767  65.462  1.00  0.00     0.000 HD 
HETATM   16  O   UNL     2      -7.041  18.222  65.537  1.00  0.00    -0.523 OA 
BRANCH  14  17
HETATM   17  C   UNL     2      -7.068  18.992  67.804  1.00  0.00    -0.227 C  
HETATM   18  C   UNL     2      -6.656  20.440  68.000  1.00  0.00    -0.305 C  
HETATM   19  H   UNL     2      -5.412  18.309  68.546  1.00  0.00     0.000 HD 
HETATM   20  O   UNL     2      -5.912  18.195  67.747  1.00  0.00    -0.155 OA 
HETATM   21  O   UNL     2      -5.975  20.800  69.101  1.00  0.00    -0.356 OA 
HETATM   22  O   UNL     2      -6.995  21.317  67.205  1.00  0.00    -0.508 OA 
ENDBRANCH  14  17
ENDBRANCH  11  14
ENDBRANCH   2  11
BRANCH   3  23
HETATM   23  C   UNL     3     -11.088   9.488  70.273  1.00  0.00    -0.271 C  
HETATM   24  O   UNL     3     -12.408   9.948  70.097  1.00  0.00    -0.484 OA 
HETATM   25  H   UNL     3     -12.715  10.133  70.977  1.00  0.00     0.000 HD 
BRANCH  23  26
HETATM   26  C   UNL     3     -11.127   8.553  71.567  1.00  0.00    -0.275 C  
HETATM   27  O   UNL     3      -9.810   8.074  71.685  1.00  0.00    -0.158 OA 
HETATM   28  H   UNL     3      -9.833   7.518  72.455  1.00  0.00     0.000 HD 
BRANCH  26  29
HETATM   29  C   UNL     3     -12.030   7.243  71.777  1.00  0.00    -0.307 C  
HETATM   30  C   UNL     3     -11.391   5.891  71.927  1.00  0.00    -0.247 C  
HETATM   31  O   UNL     3     -12.962   7.090  70.727  1.00  0.00    -0.563 OA 
HETATM   32  O   UNL     3     -10.711   5.343  70.904  1.00  0.00    -0.238 OA 
HETATM   33  O   UNL     3     -11.619   5.221  72.921  1.00  0.00    -0.310 OA 
HETATM   34  H   UNL     3     -13.497   6.314  70.852  1.00  0.00     0.000 HD 
ENDBRANCH  26  29
ENDBRANCH  23  26
ENDBRANCH   3  23
BRANCH   3  35
HETATM   35  C   UNL     3      -9.565  10.172  68.138  1.00  0.00    -0.139 C  
HETATM   36  O   UNL     3      -9.849  10.391  66.787  1.00  0.00    -0.181 OA 
HETATM   37  H   UNL     3      -9.237  10.992  66.380  1.00  0.00     0.000 HD 
ENDBRANCH   3  35
TORSDOF 8
ENDMDL
MODEL       55
REMARK 921   NORMALIZED FREE ENERGY PREDICTED BY IDOCK:   -5.74 KCAL/MOL
REMARK 922        TOTAL FREE ENERGY PREDICTED BY IDOCK:  -10.10 KCAL/MOL
REMARK 923 INTER-LIGAND FREE ENERGY PREDICTED BY IDOCK:   -7.99 KCAL/MOL
REMARK 924 INTRA-LIGAND FREE ENERGY PREDICTED BY IDOCK:   -2.11 KCAL/MOL
REMARK 927      BINDING AFFINITY PREDICTED BY RF-SCORE:    0.00 PKD
ROOT
HETATM    1 MN   UNL     1     -12.418  13.655  68.050  1.00  0.00    -0.323 Mn 
HETATM    2  C   UNL     2     -10.431   7.240  71.917  1.00  0.00    -0.200 C  
HETATM    3  C   UNL     3     -11.285  15.123  66.245  1.00  0.00    -0.273 C  
HETATM    4  H   UNL     3     -11.436  16.725  65.159  1.00  0.00     0.000 HD 
HETATM    5  H   UNL     2     -10.717   9.096  72.288  1.00  0.00     0.000 HD 
HETATM    6  O   UNL     2     -10.590   8.321  72.823  1.00  0.00    -0.340 OA 
HETATM    7  O   UNL     3     -10.735  16.258  65.599  1.00  0.00    -0.338 OA 
ENDROOT
BRANCH   2   8
HETATM    8  C   UNL     2     -10.224   5.983  72.785  1.00  0.00    -0.188 C  
HETATM    9  H   UNL     2     -10.476   4.022  72.661  1.00  0.00     0.000 HD 
HETATM   10  O   UNL     2     -10.603   4.797  72.126  1.00  0.00    -0.198 OA 
ENDBRANCH   2   8
BRANCH   2  11
HETATM   11  C   UNL     2      -9.249   7.580  70.925  1.00  0.00    -0.153 C  
HETATM   12  H   UNL     2      -7.571   6.745  70.304  1.00  0.00     0.000 HD 
HETATM   13  O   UNL     2      -8.282   6.541  70.900  1.00  0.00    -0.121 OA 
BRANCH  11  14
HETATM   14  C   UNL     2      -9.658   7.859  69.442  1.00  0.00    -0.160 C  
HETATM   15  H   UNL     2     -11.126   8.733  68.559  1.00  0.00     0.000 HD 
HETATM   16  O   UNL     2     -10.877   8.563  69.460  1.00  0.00    -0.215 OA 
BRANCH  14  17
HETATM   17  C   UNL     2      -9.837   6.607  68.551  1.00  0.00    -0.139 C  
HETATM   18  C   UNL     2      -9.382   6.869  67.126  1.00  0.00    -0.141 C  
HETATM   19  H   UNL     2     -11.302   5.470  67.987  1.00  0.00     0.000 HD 
HETATM   20  O   UNL     2     -11.192   6.238  68.534  1.00  0.00    -0.352 OA 
HETATM   21  O   UNL     2      -9.424   5.880  66.218  1.00  0.00    -0.158 OA 
HETATM   22  O   UNL     2      -8.901   7.952  66.795  1.00  0.00    -0.127 OA 
ENDBRANCH  14  17
ENDBRANCH  11  14
ENDBRANCH   2  11
BRANCH   3  23
HETATM   23  C   UNL     3     -12.124  14.371  65.135  1.00  0.00    -0.395 C  
HETATM   24  O   UNL     3     -11.885  15.102  63.954  1.00  0.00    -0.846 OA 
HETATM   25  H   UNL     3     -12.389  14.650  63.287  1.00  0.00     0.000 HD 
BRANCH  23  26
HETATM   26  C   UNL     3     -12.110  12.835  64.699  1.00  0.00    -0.423 C  
HETATM   27  O   UNL     3     -12.306  12.135  65.903  1.00  0.00    -0.561 OA 
HETATM   28  H   UNL     3     -12.297  11.221  65.644  1.00  0.00     0.000 HD 
BRANCH  26  29
HETATM   29  C   UNL     3     -10.902  12.050  63.992  1.00  0.00    -0.378 C  
HETATM   30  C   UNL     3     -10.158  10.971  64.729  1.00  0.00    -0.308 C  
HETATM   31  O   UNL     3      -9.902  12.941  63.546  1.00  0.00    -0.672 OA 
HETATM   32  O   UNL     3      -9.420  11.273  65.812  1.00  0.00    -0.214 OA 
HETATM   33  O   UNL     3     -10.095   9.847  64.255  1.00  0.00    -0.023 OA 
HETATM   34  H   UNL     3      -9.187  12.476  63.128  1.00  0.00     0.000 HD 
ENDBRANCH  26  29
ENDBRANCH  23  26
ENDBRANCH   3  23
BRANCH   3  35
HETATM   35  C   UNL     3     -10.128  14.352  66.969  1.00  0.00    -0.256 C  
HETATM   36  O   UNL     3      -9.057  14.075  66.117  1.00  0.00    -0.488 OA 
HETATM   37  H   UNL     3      -8.356  13.608  66.556  1.00  0.00     0.000 HD 
ENDBRANCH   3  35
TORSDOF 8
ENDMDL
MODEL       56
REMARK 921   NORMALIZED FREE ENERGY PREDICTED BY IDOCK:   -5.73 KCAL/MOL
REMARK 922        TOTAL FREE ENERGY PREDICTED BY IDOCK:  -10.09 KCAL/MOL
REMARK 923 INTER-LIGAND FREE ENERGY PREDICTED BY IDOCK:   -8.69 KCAL/MOL
REMARK 924 INTRA-LIGAND FREE ENERGY PREDICTED BY IDOCK:   -1.40 KCAL/MOL
REMARK 927      BINDING AFFINITY PREDICTED BY RF-SCORE:    0.00 PKD
ROOT
HETATM    1 MN   UNL     1     -10.589  12.449  64.553  1.00  0.00    -0.256 Mn 
HETATM    2  C   UNL     2     -10.613   6.746  69.800  1.00  0.00    -0.228 C  
HETATM    3  C   UNL     3     -11.666  14.797  64.404  1.00  0.00    -0.336 C  
HETATM    4  H   UNL     3     -11.919  16.374  63.301  1.00  0.00     0.000 HD 
HETATM    5  H   UNL     2     -11.287   7.062  68.037  1.00  0.00     0.000 HD 
HETATM    6  O   UNL     2     -11.214   6.297  68.595  1.00  0.00    -0.356 OA 
HETATM    7  O   UNL     3     -12.441  15.883  63.925  1.00  0.00    -0.760 OA 
ENDROOT
BRANCH   2   8
HETATM    8  C   UNL     2     -10.494   5.505  70.706  1.00  0.00    -0.260 C  
HETATM    9  H   UNL     2      -9.093   4.290  71.401  1.00  0.00     0.000 HD 
HETATM   10  O   UNL     2      -9.167   5.055  70.843  1.00  0.00    -0.137 OA 
ENDBRANCH   2   8
BRANCH   2  11
HETATM   11  C   UNL     2     -11.478   7.932  70.386  1.00  0.00    -0.145 C  
HETATM   12  H   UNL     2     -12.682   8.250  71.918  1.00  0.00     0.000 HD 
HETATM   13  O   UNL     2     -12.163   7.537  71.565  1.00  0.00    -0.303 OA 
BRANCH  11  14
HETATM   14  C   UNL     2     -10.698   9.244  70.728  1.00  0.00    -0.284 C  
HETATM   15  H   UNL     2     -11.029  11.129  70.546  1.00  0.00     0.000 HD 
HETATM   16  O   UNL     2     -11.502  10.332  70.339  1.00  0.00    -0.286 OA 
BRANCH  14  17
HETATM   17  C   UNL     2      -9.317   9.397  70.047  1.00  0.00    -0.226 C  
HETATM   18  C   UNL     2      -8.184   9.217  71.043  1.00  0.00    -0.137 C  
HETATM   19  H   UNL     2      -8.372  10.770  69.058  1.00  0.00     0.000 HD 
HETATM   20  O   UNL     2      -9.219  10.676  69.476  1.00  0.00    -0.115 OA 
HETATM   21  O   UNL     2      -6.909   9.273  70.623  1.00  0.00    -0.072 OA 
HETATM   22  O   UNL     2      -8.404   8.944  72.223  1.00  0.00    -0.384 OA 
ENDBRANCH  14  17
ENDBRANCH  11  14
ENDBRANCH   2  11
BRANCH   3  23
HETATM   23  C   UNL     3     -10.300  15.433  64.885  1.00  0.00    -0.221 C  
HETATM   24  O   UNL     3     -10.542  16.821  64.903  1.00  0.00    -0.702 OA 
HETATM   25  H   UNL     3      -9.721  17.202  65.191  1.00  0.00     0.000 HD 
BRANCH  23  26
HETATM   26  C   UNL     3      -9.428  15.132  66.187  1.00  0.00    -0.319 C  
HETATM   27  O   UNL     3      -8.983  13.811  66.006  1.00  0.00    -0.451 OA 
HETATM   28  H   UNL     3      -8.464  13.631  66.781  1.00  0.00     0.000 HD 
BRANCH  26  29
HETATM   29  C   UNL     3      -9.936  15.159  67.710  1.00  0.00    -0.225 C  
HETATM   30  C   UNL     3     -11.055  16.073  68.125  1.00  0.00    -0.344 C  
HETATM   31  O   UNL     3      -8.879  15.452  68.597  1.00  0.00    -0.168 OA 
HETATM   32  O   UNL     3     -10.894  17.407  68.083  1.00  0.00    -0.373 OA 
HETATM   33  O   UNL     3     -12.054  15.606  68.649  1.00  0.00    -0.270 OA 
HETATM   34  H   UNL     3      -9.180  15.468  69.499  1.00  0.00     0.000 HD 
ENDBRANCH  26  29
ENDBRANCH  23  26
ENDBRANCH   3  23
BRANCH   3  35
HETATM   35  C   UNL     3     -12.526  13.987  65.434  1.00  0.00    -0.498 C  
HETATM   36  O   UNL     3     -13.051  12.814  64.885  1.00  0.00    -0.833 OA 
HETATM   37  H   UNL     3     -13.572  12.323  65.510  1.00  0.00     0.000 HD 
ENDBRANCH   3  35
TORSDOF 8
ENDMDL
MODEL       57
REMARK 921   NORMALIZED FREE ENERGY PREDICTED BY IDOCK:   -5.73 KCAL/MOL
REMARK 922        TOTAL FREE ENERGY PREDICTED BY IDOCK:  -10.08 KCAL/MOL
REMARK 923 INTER-LIGAND FREE ENERGY PREDICTED BY IDOCK:   -7.99 KCAL/MOL
REMARK 924 INTRA-LIGAND FREE ENERGY PREDICTED BY IDOCK:   -2.09 KCAL/MOL
REMARK 927      BINDING AFFINITY PREDICTED BY RF-SCORE:    0.00 PKD
ROOT
HETATM    1 MN   UNL     1     -11.576  10.417  66.789  1.00  0.00    -0.197 Mn 
HETATM    2  C   UNL     2     -10.373  18.042  66.101  1.00  0.00    -0.366 C  
HETATM    3  C   UNL     3     -10.050   8.348  67.078  1.00  0.00    -0.284 C  
HETATM    4  H   UNL     3      -9.988   6.412  67.214  1.00  0.00     0.000 HD 
HETATM    5  H   UNL     2     -10.997  16.595  65.015  1.00  0.00     0.000 HD 
HETATM    6  O   UNL     2     -10.980  17.541  64.921  1.00  0.00    -0.887 OA 
HETATM    7  O   UNL     3      -9.444   7.090  66.831  1.00  0.00    -0.147 OA 
ENDROOT
BRANCH   2   8
HETATM    8  C   UNL     2     -10.346  19.576  65.949  1.00  0.00    -0.470 C  
HETATM    9  H   UNL     2     -10.441  21.194  67.087  1.00  0.00     0.000 HD 
HETATM   10  O   UNL     2     -10.457  20.249  67.181  1.00  0.00    -0.352 OA 
ENDBRANCH   2   8
BRANCH   2  11
HETATM   11  C   UNL     2      -8.961  17.355  66.277  1.00  0.00    -0.208 C  
HETATM   12  H   UNL     2      -7.138  17.871  66.831  1.00  0.00     0.000 HD 
HETATM   13  O   UNL     2      -7.987  18.285  66.725  1.00  0.00    -0.228 OA 
BRANCH  11  14
HETATM   14  C   UNL     2      -8.910  16.134  67.254  1.00  0.00    -0.186 C  
HETATM   15  H   UNL     2      -7.646  15.438  68.524  1.00  0.00     0.000 HD 
HETATM   16  O   UNL     2      -7.678  16.179  67.931  1.00  0.00    -0.133 OA 
BRANCH  14  17
HETATM   17  C   UNL     2      -9.046  14.743  66.591  1.00  0.00    -0.272 C  
HETATM   18  C   UNL     2     -10.440  14.171  66.778  1.00  0.00    -0.277 C  
HETATM   19  H   UNL     2      -8.197  13.008  66.757  1.00  0.00     0.000 HD 
HETATM   20  O   UNL     2      -8.115  13.861  67.164  1.00  0.00    -0.162 OA 
HETATM   21  O   UNL     2     -10.757  12.985  66.231  1.00  0.00    -0.272 OA 
HETATM   22  O   UNL     2     -11.321  14.805  67.359  1.00  0.00    -0.327 OA 
ENDBRANCH  14  17
ENDBRANCH  11  14
ENDBRANCH   2  11
BRANCH   3  23
HETATM   23  C   UNL     3     -10.329   8.383  68.634  1.00  0.00    -0.197 C  
HETATM   24  O   UNL     3     -11.408   9.278  68.780  1.00  0.00    -0.441 OA 
HETATM   25  H   UNL     3     -11.575   9.299  69.715  1.00  0.00     0.000 HD 
BRANCH  23  26
HETATM   26  C   UNL     3     -10.620   7.190  69.654  1.00  0.00    -0.234 C  
HETATM   27  O   UNL     3     -11.713   6.511  69.086  1.00  0.00    -0.623 OA 
HETATM   28  H   UNL     3     -11.887   5.801  69.693  1.00  0.00     0.000 HD 
BRANCH  26  29
HETATM   29  C   UNL     3     -11.019   7.327  71.203  1.00  0.00    -0.247 C  
HETATM   30  C   UNL     3     -12.347   6.825  71.696  1.00  0.00    -0.362 C  
HETATM   31  O   UNL     3     -10.957   8.671  71.630  1.00  0.00    -0.261 OA 
HETATM   32  O   UNL     3     -13.489   7.400  71.280  1.00  0.00    -0.353 OA 
HETATM   33  O   UNL     3     -12.385   6.000  72.595  1.00  0.00    -0.071 OA 
HETATM   34  H   UNL     3     -11.193   8.753  72.546  1.00  0.00     0.000 HD 
ENDBRANCH  26  29
ENDBRANCH  23  26
ENDBRANCH   3  23
BRANCH   3  35
HETATM   35  C   UNL     3      -9.152   9.467  66.446  1.00  0.00    -0.161 C  
HETATM   36  O   UNL     3      -9.805  10.159  65.423  1.00  0.00    -0.268 OA 
HETATM   37  H   UNL     3      -9.260  10.838  65.040  1.00  0.00     0.000 HD 
ENDBRANCH   3  35
TORSDOF 8
ENDMDL
MODEL       58
REMARK 921   NORMALIZED FREE ENERGY PREDICTED BY IDOCK:   -5.72 KCAL/MOL
REMARK 922        TOTAL FREE ENERGY PREDICTED BY IDOCK:  -10.08 KCAL/MOL
REMARK 923 INTER-LIGAND FREE ENERGY PREDICTED BY IDOCK:   -8.02 KCAL/MOL
REMARK 924 INTRA-LIGAND FREE ENERGY PREDICTED BY IDOCK:   -2.06 KCAL/MOL
REMARK 927      BINDING AFFINITY PREDICTED BY RF-SCORE:    0.00 PKD
ROOT
HETATM    1 MN   UNL     1     -11.175   7.562  68.105  1.00  0.00    -0.346 Mn 
HETATM    2  C   UNL     2     -10.833  14.895  65.624  1.00  0.00    -0.341 C  
HETATM    3  C   UNL     3      -9.533   5.963  69.306  1.00  0.00    -0.128 C  
HETATM    4  H   UNL     3      -9.260   4.165  69.986  1.00  0.00     0.000 HD 
HETATM    5  H   UNL     2     -10.937  13.140  64.869  1.00  0.00     0.000 HD 
HETATM    6  O   UNL     2     -11.018  14.021  64.522  1.00  0.00    -0.389 OA 
HETATM    7  O   UNL     3      -8.724   4.829  69.567  1.00  0.00    -0.084 OA 
ENDROOT
BRANCH   2   8
HETATM    8  C   UNL     2     -10.965  16.325  65.061  1.00  0.00    -0.298 C  
HETATM    9  H   UNL     2     -11.799  17.256  63.525  1.00  0.00     0.000 HD 
HETATM   10  O   UNL     2     -11.718  16.375  63.872  1.00  0.00    -1.085 OA 
ENDBRANCH   2   8
BRANCH   2  11
HETATM   11  C   UNL     2      -9.448  14.563  66.309  1.00  0.00    -0.283 C  
HETATM   12  H   UNL     2      -7.736  15.476  66.673  1.00  0.00     0.000 HD 
HETATM   13  O   UNL     2      -8.569  15.676  66.261  1.00  0.00    -0.304 OA 
BRANCH  11  14
HETATM   14  C   UNL     2      -9.516  14.097  67.800  1.00  0.00    -0.207 C  
HETATM   15  H   UNL     2      -8.484  12.929  68.926  1.00  0.00     0.000 HD 
HETATM   16  O   UNL     2      -8.443  13.212  68.021  1.00  0.00    -0.161 OA 
BRANCH  14  17
HETATM   17  C   UNL     2     -10.823  13.383  68.218  1.00  0.00    -0.256 C  
HETATM   18  C   UNL     2     -11.415  13.998  69.475  1.00  0.00    -0.275 C  
HETATM   19  H   UNL     2     -11.358  11.588  68.717  1.00  0.00     0.000 HD 
HETATM   20  O   UNL     2     -10.556  12.026  68.460  1.00  0.00    -0.218 OA 
HETATM   21  O   UNL     2     -12.577  13.534  69.963  1.00  0.00    -0.212 OA 
HETATM   22  O   UNL     2     -10.892  14.969  70.021  1.00  0.00    -0.251 OA 
ENDBRANCH  14  17
ENDBRANCH  11  14
ENDBRANCH   2  11
BRANCH   3  23
HETATM   23  C   UNL     3     -10.235   6.305  70.681  1.00  0.00    -0.194 C  
HETATM   24  O   UNL     3      -9.429   7.311  71.250  1.00  0.00    -0.156 OA 
HETATM   25  H   UNL     3      -9.851   7.516  72.076  1.00  0.00     0.000 HD 
BRANCH  23  26
HETATM   26  C   UNL     3     -11.741   6.737  70.987  1.00  0.00    -0.355 C  
HETATM   27  O   UNL     3     -12.320   6.892  69.714  1.00  0.00    -0.431 OA 
HETATM   28  H   UNL     3     -13.216   7.150  69.896  1.00  0.00     0.000 HD 
BRANCH  26  29
HETATM   29  C   UNL     3     -12.221   8.044  71.786  1.00  0.00    -0.316 C  
HETATM   30  C   UNL     3     -12.041   9.412  71.190  1.00  0.00    -0.328 C  
HETATM   31  O   UNL     3     -11.611   8.119  73.057  1.00  0.00    -0.454 OA 
HETATM   32  O   UNL     3     -10.807   9.907  70.982  1.00  0.00    -0.321 OA 
HETATM   33  O   UNL     3     -13.011  10.139  71.039  1.00  0.00    -0.364 OA 
HETATM   34  H   UNL     3     -11.895   8.893  73.530  1.00  0.00     0.000 HD 
ENDBRANCH  26  29
ENDBRANCH  23  26
ENDBRANCH   3  23
BRANCH   3  35
HETATM   35  C   UNL     3      -8.649   7.058  68.616  1.00  0.00    -0.120 C  
HETATM   36  O   UNL     3      -9.140   8.349  68.824  1.00  0.00    -0.143 OA 
HETATM   37  H   UNL     3      -8.604   9.013  68.405  1.00  0.00     0.000 HD 
ENDBRANCH   3  35
TORSDOF 8
ENDMDL
MODEL       59
REMARK 921   NORMALIZED FREE ENERGY PREDICTED BY IDOCK:   -5.72 KCAL/MOL
REMARK 922        TOTAL FREE ENERGY PREDICTED BY IDOCK:  -10.07 KCAL/MOL
REMARK 923 INTER-LIGAND FREE ENERGY PREDICTED BY IDOCK:   -7.85 KCAL/MOL
REMARK 924 INTRA-LIGAND FREE ENERGY PREDICTED BY IDOCK:   -2.22 KCAL/MOL
REMARK 927      BINDING AFFINITY PREDICTED BY RF-SCORE:    0.00 PKD
ROOT
HETATM    1 MN   UNL     1      -9.187  11.058  70.280  1.00  0.00    -0.329 Mn 
HETATM    2  C   UNL     2      -8.590  18.250  67.456  1.00  0.00    -0.250 C  
HETATM    3  C   UNL     3     -11.090   9.313  70.441  1.00  0.00    -0.255 C  
HETATM    4  H   UNL     3     -11.598   7.555  71.089  1.00  0.00     0.000 HD 
HETATM    5  H   UNL     2      -8.559  17.383  69.161  1.00  0.00     0.000 HD 
HETATM    6  O   UNL     2      -8.360  18.260  68.856  1.00  0.00    -0.259 OA 
HETATM    7  O   UNL     3     -12.022   8.400  70.996  1.00  0.00    -0.287 OA 
ENDROOT
BRANCH   2   8
HETATM    8  C   UNL     2      -8.268  19.674  66.960  1.00  0.00    -0.288 C  
HETATM    9  H   UNL     2      -7.997  20.637  65.250  1.00  0.00     0.000 HD 
HETATM   10  O   UNL     2      -8.196  19.759  65.556  1.00  0.00    -0.333 OA 
ENDBRANCH   2   8
BRANCH   2  11
HETATM   11  C   UNL     2     -10.067  17.758  67.187  1.00  0.00    -0.338 C  
HETATM   12  H   UNL     2     -11.850  18.557  66.905  1.00  0.00     0.000 HD 
HETATM   13  O   UNL     2     -10.962  18.853  67.067  1.00  0.00    -0.373 OA 
BRANCH  11  14
HETATM   14  C   UNL     2     -10.270  16.859  65.923  1.00  0.00    -0.314 C  
HETATM   15  H   UNL     2     -11.151  17.051  64.224  1.00  0.00     0.000 HD 
HETATM   16  O   UNL     2     -11.027  17.597  64.992  1.00  0.00    -0.780 OA 
BRANCH  14  17
HETATM   17  C   UNL     2     -10.989  15.512  66.170  1.00  0.00    -0.247 C  
HETATM   18  C   UNL     2     -10.010  14.429  66.588  1.00  0.00    -0.272 C  
HETATM   19  H   UNL     2     -12.078  14.280  65.143  1.00  0.00     0.000 HD 
HETATM   20  O   UNL     2     -11.637  15.107  64.991  1.00  0.00    -0.354 OA 
HETATM   21  O   UNL     2     -10.461  13.199  66.887  1.00  0.00    -0.253 OA 
HETATM   22  O   UNL     2      -8.812  14.668  66.734  1.00  0.00    -0.250 OA 
ENDBRANCH  14  17
ENDBRANCH  11  14
ENDBRANCH   2  11
BRANCH   3  23
HETATM   23  C   UNL     3     -10.519   8.600  69.150  1.00  0.00    -0.211 C  
HETATM   24  O   UNL     3      -9.268   9.209  68.932  1.00  0.00    -0.138 OA 
HETATM   25  H   UNL     3      -8.925   8.781  68.157  1.00  0.00     0.000 HD 
BRANCH  23  26
HETATM   26  C   UNL     3     -10.301   7.049  68.843  1.00  0.00    -0.190 C  
HETATM   27  O   UNL     3     -11.598   6.505  68.880  1.00  0.00    -0.606 OA 
HETATM   28  H   UNL     3     -11.468   5.582  68.697  1.00  0.00     0.000 HD 
BRANCH  26  29
HETATM   29  C   UNL     3      -9.428   6.014  69.705  1.00  0.00    -0.149 C  
HETATM   30  C   UNL     3     -10.101   4.999  70.587  1.00  0.00    -0.243 C  
HETATM   31  O   UNL     3      -8.523   6.689  70.553  1.00  0.00    -0.134 OA 
HETATM   32  O   UNL     3     -10.816   5.393  71.656  1.00  0.00    -0.229 OA 
HETATM   33  O   UNL     3      -9.869   3.810  70.427  1.00  0.00    -0.185 OA 
HETATM   34  H   UNL     3      -8.007   6.076  71.063  1.00  0.00     0.000 HD 
ENDBRANCH  26  29
ENDBRANCH  23  26
ENDBRANCH   3  23
BRANCH   3  35
HETATM   35  C   UNL     3     -11.789  10.707  70.288  1.00  0.00    -0.342 C  
HETATM   36  O   UNL     3     -11.347  11.404  69.160  1.00  0.00    -0.238 OA 
HETATM   37  H   UNL     3     -11.770  12.250  69.067  1.00  0.00     0.000 HD 
ENDBRANCH   3  35
TORSDOF 8
ENDMDL
MODEL       60
REMARK 921   NORMALIZED FREE ENERGY PREDICTED BY IDOCK:   -5.69 KCAL/MOL
REMARK 922        TOTAL FREE ENERGY PREDICTED BY IDOCK:  -10.02 KCAL/MOL
REMARK 923 INTER-LIGAND FREE ENERGY PREDICTED BY IDOCK:   -7.76 KCAL/MOL
REMARK 924 INTRA-LIGAND FREE ENERGY PREDICTED BY IDOCK:   -2.26 KCAL/MOL
REMARK 927      BINDING AFFINITY PREDICTED BY RF-SCORE:    0.00 PKD
ROOT
HETATM    1 MN   UNL     1      -9.585  13.207  64.995  1.00  0.00    -0.366 Mn 
HETATM    2  C   UNL     2     -10.018   7.626  70.353  1.00  0.00    -0.188 C  
HETATM    3  C   UNL     3     -10.933  15.357  64.485  1.00  0.00    -0.203 C  
HETATM    4  H   UNL     3     -11.147  16.863  63.279  1.00  0.00     0.000 HD 
HETATM    5  H   UNL     2     -10.287   7.814  68.468  1.00  0.00     0.000 HD 
HETATM    6  O   UNL     2     -10.237   7.076  69.064  1.00  0.00    -0.175 OA 
HETATM    7  O   UNL     3     -11.723  16.303  63.786  1.00  0.00    -0.969 OA 
ENDROOT
BRANCH   2   8
HETATM    8  C   UNL     2      -9.936   6.428  71.320  1.00  0.00    -0.182 C  
HETATM    9  H   UNL     2      -8.828   5.805  72.839  1.00  0.00     0.000 HD 
HETATM   10  O   UNL     2      -8.878   6.543  72.243  1.00  0.00    -0.134 OA 
ENDBRANCH   2   8
BRANCH   2  11
HETATM   11  C   UNL     2     -11.164   8.668  70.662  1.00  0.00    -0.252 C  
HETATM   12  H   UNL     2     -12.135   9.355  72.238  1.00  0.00     0.000 HD 
HETATM   13  O   UNL     2     -11.446   8.728  72.052  1.00  0.00    -0.338 OA 
BRANCH  11  14
HETATM   14  C   UNL     2     -10.905  10.134  70.185  1.00  0.00    -0.311 C  
HETATM   15  H   UNL     2     -11.626  11.867  70.603  1.00  0.00     0.000 HD 
HETATM   16  O   UNL     2     -11.783  10.976  70.892  1.00  0.00    -0.284 OA 
BRANCH  14  17
HETATM   17  C   UNL     2     -11.106  10.389  68.672  1.00  0.00    -0.262 C  
HETATM   18  C   UNL     2     -10.068  11.354  68.128  1.00  0.00    -0.189 C  
HETATM   19  H   UNL     2     -12.508  11.087  67.529  1.00  0.00     0.000 HD 
HETATM   20  O   UNL     2     -12.384  10.930  68.458  1.00  0.00    -0.490 OA 
HETATM   21  O   UNL     2     -10.060  11.662  66.820  1.00  0.00    -0.208 OA 
HETATM   22  O   UNL     2      -9.177  11.810  68.845  1.00  0.00    -0.059 OA 
ENDBRANCH  14  17
ENDBRANCH  11  14
ENDBRANCH   2  11
BRANCH   3  23
HETATM   23  C   UNL     3      -9.834  16.203  65.243  1.00  0.00     0.145 C  
HETATM   24  O   UNL     3     -10.501  17.378  65.640  1.00  0.00    -0.577 OA 
HETATM   25  H   UNL     3      -9.840  17.887  66.095  1.00  0.00     0.000 HD 
BRANCH  23  26
HETATM   26  C   UNL     3      -8.896  15.806  66.473  1.00  0.00    -0.310 C  
HETATM   27  O   UNL     3      -8.759  14.410  66.364  1.00  0.00    -0.461 OA 
HETATM   28  H   UNL     3      -8.202  14.174  67.095  1.00  0.00     0.000 HD 
BRANCH  26  29
HETATM   29  C   UNL     3      -9.208  16.038  68.031  1.00  0.00    -0.193 C  
HETATM   30  C   UNL     3     -10.543  15.658  68.606  1.00  0.00    -0.243 C  
HETATM   31  O   UNL     3      -9.027  17.390  68.393  1.00  0.00    -0.262 OA 
HETATM   32  O   UNL     3     -11.660  16.299  68.216  1.00  0.00    -0.301 OA 
HETATM   33  O   UNL     3     -10.598  14.876  69.543  1.00  0.00    -0.246 OA 
HETATM   34  H   UNL     3      -9.212  17.528  69.315  1.00  0.00     0.000 HD 
ENDBRANCH  26  29
ENDBRANCH  23  26
ENDBRANCH   3  23
BRANCH   3  35
HETATM   35  C   UNL     3     -11.885  14.433  65.321  1.00  0.00    -0.373 C  
HETATM   36  O   UNL     3     -11.883  13.113  64.864  1.00  0.00    -0.328 OA 
HETATM   37  H   UNL     3     -12.459  12.553  65.371  1.00  0.00     0.000 HD 
ENDBRANCH   3  35
TORSDOF 8
ENDMDL
MODEL       61
REMARK 921   NORMALIZED FREE ENERGY PREDICTED BY IDOCK:   -5.69 KCAL/MOL
REMARK 922        TOTAL FREE ENERGY PREDICTED BY IDOCK:  -10.02 KCAL/MOL
REMARK 923 INTER-LIGAND FREE ENERGY PREDICTED BY IDOCK:   -7.01 KCAL/MOL
REMARK 924 INTRA-LIGAND FREE ENERGY PREDICTED BY IDOCK:   -3.01 KCAL/MOL
REMARK 927      BINDING AFFINITY PREDICTED BY RF-SCORE:    0.00 PKD
ROOT
HETATM    1 MN   UNL     1     -11.878  13.671  67.307  1.00  0.00    -0.271 Mn 
HETATM    2  C   UNL     2      -9.883   6.335  68.807  1.00  0.00    -0.137 C  
HETATM    3  C   UNL     3     -10.663  15.953  67.422  1.00  0.00    -0.313 C  
HETATM    4  H   UNL     3     -10.841  17.873  67.200  1.00  0.00     0.000 HD 
HETATM    5  H   UNL     2     -11.042   7.672  69.535  1.00  0.00     0.000 HD 
HETATM    6  O   UNL     2     -10.921   6.742  69.685  1.00  0.00    -0.253 OA 
HETATM    7  O   UNL     3     -10.367  17.291  67.782  1.00  0.00    -0.326 OA 
ENDROOT
BRANCH   2   8
HETATM    8  C   UNL     2      -9.687   4.825  69.051  1.00  0.00    -0.178 C  
HETATM    9  H   UNL     2     -10.218   3.440  70.364  1.00  0.00     0.000 HD 
HETATM   10  O   UNL     2     -10.338   4.371  70.214  1.00  0.00    -0.094 OA 
ENDBRANCH   2   8
BRANCH   2  11
HETATM   11  C   UNL     2      -8.612   7.234  69.072  1.00  0.00    -0.129 C  
HETATM   12  H   UNL     2      -6.680   7.198  68.665  1.00  0.00     0.000 HD 
HETATM   13  O   UNL     2      -7.445   6.657  68.506  1.00  0.00    -0.088 OA 
BRANCH  11  14
HETATM   14  C   UNL     2      -8.693   8.706  68.550  1.00  0.00    -0.139 C  
HETATM   15  H   UNL     2      -9.227  10.400  69.285  1.00  0.00     0.000 HD 
HETATM   16  O   UNL     2      -9.177   9.506  69.602  1.00  0.00    -0.172 OA 
BRANCH  14  17
HETATM   17  C   UNL     2      -9.601   8.928  67.317  1.00  0.00    -0.164 C  
HETATM   18  C   UNL     2      -8.880   9.706  66.229  1.00  0.00    -0.151 C  
HETATM   19  H   UNL     2     -11.302   9.781  66.948  1.00  0.00     0.000 HD 
HETATM   20  O   UNL     2     -10.744   9.645  67.705  1.00  0.00    -0.267 OA 
HETATM   21  O   UNL     2      -9.500   9.957  65.064  1.00  0.00    -0.243 OA 
HETATM   22  O   UNL     2      -7.706  10.051  66.358  1.00  0.00    -0.100 OA 
ENDBRANCH  14  17
ENDBRANCH  11  14
ENDBRANCH   2  11
BRANCH   3  23
HETATM   23  C   UNL     3     -10.391  15.864  65.867  1.00  0.00    -0.365 C  
HETATM   24  O   UNL     3      -9.024  15.540  65.764  1.00  0.00    -0.381 OA 
HETATM   25  H   UNL     3      -8.860  15.487  64.830  1.00  0.00     0.000 HD 
BRANCH  23  26
HETATM   26  C   UNL     3     -11.122  14.999  64.742  1.00  0.00    -0.376 C  
HETATM   27  O   UNL     3     -12.470  14.982  65.144  1.00  0.00    -0.076 OA 
HETATM   28  H   UNL     3     -12.905  14.467  64.475  1.00  0.00     0.000 HD 
BRANCH  26  29
HETATM   29  C   UNL     3     -10.818  13.470  64.358  1.00  0.00    -0.389 C  
HETATM   30  C   UNL     3     -11.883  12.420  64.509  1.00  0.00    -0.384 C  
HETATM   31  O   UNL     3      -9.711  12.972  65.079  1.00  0.00    -0.509 OA 
HETATM   32  O   UNL     3     -12.349  12.094  65.728  1.00  0.00    -0.564 OA 
HETATM   33  O   UNL     3     -12.213  11.750  63.543  1.00  0.00    -0.500 OA 
HETATM   34  H   UNL     3      -9.531  12.067  64.852  1.00  0.00     0.000 HD 
ENDBRANCH  26  29
ENDBRANCH  23  26
ENDBRANCH   3  23
BRANCH   3  35
HETATM   35  C   UNL     3      -9.880  14.993  68.382  1.00  0.00    -0.222 C  
HETATM   36  O   UNL     3      -9.739  13.708  67.853  1.00  0.00    -0.219 OA 
HETATM   37  H   UNL     3      -9.264  13.126  68.435  1.00  0.00     0.000 HD 
ENDBRANCH   3  35
TORSDOF 8
ENDMDL
MODEL       62
REMARK 921   NORMALIZED FREE ENERGY PREDICTED BY IDOCK:   -5.68 KCAL/MOL
REMARK 922        TOTAL FREE ENERGY PREDICTED BY IDOCK:  -10.01 KCAL/MOL
REMARK 923 INTER-LIGAND FREE ENERGY PREDICTED BY IDOCK:   -7.32 KCAL/MOL
REMARK 924 INTRA-LIGAND FREE ENERGY PREDICTED BY IDOCK:   -2.69 KCAL/MOL
REMARK 927      BINDING AFFINITY PREDICTED BY RF-SCORE:    0.00 PKD
ROOT
HETATM    1 MN   UNL     1     -11.663   8.024  67.070  1.00  0.00    -0.389 Mn 
HETATM    2  C   UNL     2     -10.605  15.634  66.063  1.00  0.00    -0.328 C  
HETATM    3  C   UNL     3     -10.099   5.968  67.222  1.00  0.00    -0.169 C  
HETATM    4  H   UNL     3     -10.008   4.036  67.396  1.00  0.00     0.000 HD 
HETATM    5  H   UNL     2     -11.345  14.159  65.094  1.00  0.00     0.000 HD 
HETATM    6  O   UNL     2     -11.347  15.102  64.977  1.00  0.00    -0.373 OA 
HETATM    7  O   UNL     3      -9.519   4.707  66.934  1.00  0.00    -0.140 OA 
ENDROOT
BRANCH   2   8
HETATM    8  C   UNL     2     -10.608  17.164  65.872  1.00  0.00    -0.215 C  
HETATM    9  H   UNL     2     -11.067  18.496  64.480  1.00  0.00     0.000 HD 
HETATM   10  O   UNL     2     -11.065  17.554  64.597  1.00  0.00    -0.978 OA 
ENDBRANCH   2   8
BRANCH   2  11
HETATM   11  C   UNL     2      -9.178  14.957  66.083  1.00  0.00    -0.233 C  
HETATM   12  H   UNL     2      -7.304  15.496  66.395  1.00  0.00     0.000 HD 
HETATM   13  O   UNL     2      -8.163  15.903  66.382  1.00  0.00    -0.283 OA 
BRANCH  11  14
HETATM   14  C   UNL     2      -9.000  13.764  67.079  1.00  0.00    -0.238 C  
HETATM   15  H   UNL     2      -7.528  12.972  68.030  1.00  0.00     0.000 HD 
HETATM   16  O   UNL     2      -7.637  13.697  67.425  1.00  0.00    -0.167 OA 
BRANCH  14  17
HETATM   17  C   UNL     2      -9.432  12.378  66.545  1.00  0.00    -0.242 C  
HETATM   18  C   UNL     2     -10.643  11.848  67.291  1.00  0.00    -0.228 C  
HETATM   19  H   UNL     2      -8.637  10.619  66.370  1.00  0.00     0.000 HD 
HETATM   20  O   UNL     2      -8.372  11.470  66.698  1.00  0.00    -0.168 OA 
HETATM   21  O   UNL     2     -11.187  10.672  66.935  1.00  0.00    -0.224 OA 
HETATM   22  O   UNL     2     -11.192  12.507  68.174  1.00  0.00    -0.232 OA 
ENDBRANCH  14  17
ENDBRANCH  11  14
ENDBRANCH   2  11
BRANCH   3  23
HETATM   23  C   UNL     3     -10.189   6.040  68.799  1.00  0.00    -0.188 C  
HETATM   24  O   UNL     3      -8.936   6.540  69.204  1.00  0.00    -0.130 OA 
HETATM   25  H   UNL     3      -8.991   6.583  70.151  1.00  0.00     0.000 HD 
BRANCH  23  26
HETATM   26  C   UNL     3     -11.262   6.760  69.736  1.00  0.00    -0.315 C  
HETATM   27  O   UNL     3     -11.098   8.129  69.458  1.00  0.00    -0.429 OA 
HETATM   28  H   UNL     3     -11.736   8.558  70.016  1.00  0.00     0.000 HD 
BRANCH  26  29
HETATM   29  C   UNL     3     -11.329   6.702  71.339  1.00  0.00    -0.289 C  
HETATM   30  C   UNL     3     -11.418   7.967  72.146  1.00  0.00    -0.335 C  
HETATM   31  O   UNL     3     -10.221   6.008  71.873  1.00  0.00    -0.193 OA 
HETATM   32  O   UNL     3     -10.397   8.844  72.151  1.00  0.00    -0.333 OA 
HETATM   33  O   UNL     3     -12.348   8.127  72.920  1.00  0.00    -0.186 OA 
HETATM   34  H   UNL     3     -10.261   5.973  72.821  1.00  0.00     0.000 HD 
ENDBRANCH  26  29
ENDBRANCH  23  26
ENDBRANCH   3  23
BRANCH   3  35
HETATM   35  C   UNL     3      -9.292   7.075  66.460  1.00  0.00    -0.159 C  
HETATM   36  O   UNL     3      -9.520   8.352  66.978  1.00  0.00    -0.154 OA 
HETATM   37  H   UNL     3      -9.031   9.023  66.516  1.00  0.00     0.000 HD 
ENDBRANCH   3  35
TORSDOF 8
ENDMDL
MODEL       63
REMARK 921   NORMALIZED FREE ENERGY PREDICTED BY IDOCK:   -5.67 KCAL/MOL
REMARK 922        TOTAL FREE ENERGY PREDICTED BY IDOCK:   -9.99 KCAL/MOL
REMARK 923 INTER-LIGAND FREE ENERGY PREDICTED BY IDOCK:   -8.07 KCAL/MOL
REMARK 924 INTRA-LIGAND FREE ENERGY PREDICTED BY IDOCK:   -1.92 KCAL/MOL
REMARK 927      BINDING AFFINITY PREDICTED BY RF-SCORE:    0.00 PKD
ROOT
HETATM    1 MN   UNL     1     -10.809   6.173  68.563  1.00  0.00    -0.150 Mn 
HETATM    2  C   UNL     2     -12.132  13.082  65.312  1.00  0.00    -0.441 C  
HETATM    3  C   UNL     3      -9.405   5.339  70.571  1.00  0.00    -0.157 C  
HETATM    4  H   UNL     3      -8.820   3.787  71.579  1.00  0.00     0.000 HD 
HETATM    5  H   UNL     2     -11.239  11.448  64.870  1.00  0.00     0.000 HD 
HETATM    6  O   UNL     2     -11.477  12.230  64.386  1.00  0.00    -0.324 OA 
HETATM    7  O   UNL     3      -8.440   4.618  71.318  1.00  0.00    -0.101 OA 
ENDROOT
BRANCH   2   8
HETATM    8  C   UNL     2     -12.517  14.350  64.526  1.00  0.00    -0.339 C  
HETATM    9  H   UNL     2     -12.837  14.909  62.652  1.00  0.00     0.000 HD 
HETATM   10  O   UNL     2     -12.599  14.128  63.137  1.00  0.00    -0.686 OA 
ENDBRANCH   2   8
BRANCH   2  11
HETATM   11  C   UNL     2     -11.177  13.316  66.549  1.00  0.00    -0.304 C  
HETATM   12  H   UNL     2     -10.053  12.234  67.760  1.00  0.00     0.000 HD 
HETATM   13  O   UNL     2     -10.628  12.093  67.016  1.00  0.00    -0.221 OA 
BRANCH  11  14
HETATM   14  C   UNL     2      -9.980  14.295  66.315  1.00  0.00    -0.306 C  
HETATM   15  H   UNL     2      -8.062  14.160  66.356  1.00  0.00     0.000 HD 
HETATM   16  O   UNL     2      -8.790  13.566  66.498  1.00  0.00    -0.124 OA 
BRANCH  14  17
HETATM   17  C   UNL     2      -9.936  15.531  67.244  1.00  0.00    -0.238 C  
HETATM   18  C   UNL     2     -10.128  16.820  66.463  1.00  0.00    -0.315 C  
HETATM   19  H   UNL     2      -8.667  16.337  68.468  1.00  0.00     0.000 HD 
HETATM   20  O   UNL     2      -8.694  15.578  67.898  1.00  0.00    -0.161 OA 
HETATM   21  O   UNL     2     -10.162  17.996  67.112  1.00  0.00    -0.330 OA 
HETATM   22  O   UNL     2     -10.330  16.811  65.250  1.00  0.00    -0.622 OA 
ENDBRANCH  14  17
ENDBRANCH  11  14
ENDBRANCH   2  11
BRANCH   3  23
HETATM   23  C   UNL     3     -10.711   5.343  71.461  1.00  0.00    -0.192 C  
HETATM   24  O   UNL     3     -10.248   5.121  72.773  1.00  0.00    -0.167 OA 
HETATM   25  H   UNL     3     -11.033   5.124  73.308  1.00  0.00     0.000 HD 
BRANCH  23  26
HETATM   26  C   UNL     3     -11.863   6.441  71.593  1.00  0.00    -0.306 C  
HETATM   27  O   UNL     3     -12.102   6.849  70.269  1.00  0.00    -0.600 OA 
HETATM   28  H   UNL     3     -12.787   7.503  70.347  1.00  0.00     0.000 HD 
BRANCH  26  29
HETATM   29  C   UNL     3     -11.784   7.821  72.410  1.00  0.00    -0.341 C  
HETATM   30  C   UNL     3     -11.772   9.137  71.685  1.00  0.00    -0.378 C  
HETATM   31  O   UNL     3     -10.647   7.856  73.247  1.00  0.00    -0.341 OA 
HETATM   32  O   UNL     3     -10.737   9.467  70.891  1.00  0.00    -0.285 OA 
HETATM   33  O   UNL     3     -12.624   9.975  71.936  1.00  0.00    -0.389 OA 
HETATM   34  H   UNL     3     -10.601   8.673  73.730  1.00  0.00     0.000 HD 
ENDBRANCH  26  29
ENDBRANCH  23  26
ENDBRANCH   3  23
BRANCH   3  35
HETATM   35  C   UNL     3      -8.779   6.711  70.141  1.00  0.00    -0.141 C  
HETATM   36  O   UNL     3      -8.532   7.549  71.231  1.00  0.00    -0.114 OA 
HETATM   37  H   UNL     3      -8.152   8.380  70.970  1.00  0.00     0.000 HD 
ENDBRANCH   3  35
TORSDOF 8
ENDMDL
MODEL       64
REMARK 921   NORMALIZED FREE ENERGY PREDICTED BY IDOCK:   -5.66 KCAL/MOL
REMARK 922        TOTAL FREE ENERGY PREDICTED BY IDOCK:   -9.98 KCAL/MOL
REMARK 923 INTER-LIGAND FREE ENERGY PREDICTED BY IDOCK:   -7.83 KCAL/MOL
REMARK 924 INTRA-LIGAND FREE ENERGY PREDICTED BY IDOCK:   -2.15 KCAL/MOL
REMARK 927      BINDING AFFINITY PREDICTED BY RF-SCORE:    0.00 PKD
ROOT
HETATM    1 MN   UNL     1     -12.723  12.498  69.288  1.00  0.00    -0.171 Mn 
HETATM    2  C   UNL     2      -9.403   5.666  70.824  1.00  0.00    -0.163 C  
HETATM    3  C   UNL     3     -13.204  14.641  70.655  1.00  0.00    -0.209 C  
HETATM    4  H   UNL     3     -14.014  16.406  70.631  1.00  0.00     0.000 HD 
HETATM    5  H   UNL     2     -11.145   6.342  70.414  1.00  0.00     0.000 HD 
HETATM    6  O   UNL     2     -10.765   5.474  70.477  1.00  0.00    -0.275 OA 
HETATM    7  O   UNL     3     -13.916  15.704  71.265  1.00  0.00    -0.570 OA 
ENDROOT
BRANCH   2   8
HETATM    8  C   UNL     2      -8.786   4.257  70.926  1.00  0.00    -0.088 C  
HETATM    9  H   UNL     2      -9.362   2.363  70.850  1.00  0.00     0.000 HD 
HETATM   10  O   UNL     2      -9.742   3.231  70.787  1.00  0.00    -0.175 OA 
ENDBRANCH   2   8
BRANCH   2  11
HETATM   11  C   UNL     2      -9.332   6.533  72.143  1.00  0.00    -0.142 C  
HETATM   12  H   UNL     2      -8.254   6.603  73.795  1.00  0.00     0.000 HD 
HETATM   13  O   UNL     2      -8.297   6.082  73.002  1.00  0.00    -0.117 OA 
BRANCH  11  14
HETATM   14  C   UNL     2      -9.123   8.070  71.942  1.00  0.00    -0.156 C  
HETATM   15  H   UNL     2      -9.108   9.618  73.081  1.00  0.00     0.000 HD 
HETATM   16  O   UNL     2      -9.236   8.685  73.203  1.00  0.00    -0.235 OA 
BRANCH  14  17
HETATM   17  C   UNL     2     -10.117   8.759  70.978  1.00  0.00    -0.237 C  
HETATM   18  C   UNL     2      -9.392   9.516  69.879  1.00  0.00    -0.223 C  
HETATM   19  H   UNL     2     -11.526  10.085  71.108  1.00  0.00     0.000 HD 
HETATM   20  O   UNL     2     -10.915   9.662  71.700  1.00  0.00    -0.322 OA 
HETATM   21  O   UNL     2     -10.096  10.143  68.922  1.00  0.00    -0.181 OA 
HETATM   22  O   UNL     2      -8.164   9.508  69.797  1.00  0.00    -0.117 OA 
ENDBRANCH  14  17
ENDBRANCH  11  14
ENDBRANCH   2  11
BRANCH   3  23
HETATM   23  C   UNL     3     -11.905  15.301  70.041  1.00  0.00    -0.334 C  
HETATM   24  O   UNL     3     -10.881  14.986  70.956  1.00  0.00    -0.545 OA 
HETATM   25  H   UNL     3     -10.101  15.383  70.587  1.00  0.00     0.000 HD 
BRANCH  23  26
HETATM   26  C   UNL     3     -11.253  15.137  68.594  1.00  0.00    -0.286 C  
HETATM   27  O   UNL     3     -12.350  15.184  67.715  1.00  0.00    -0.379 OA 
HETATM   28  H   UNL     3     -11.963  15.086  66.853  1.00  0.00     0.000 HD 
BRANCH  26  29
HETATM   29  C   UNL     3     -10.394  13.888  68.065  1.00  0.00    -0.245 C  
HETATM   30  C   UNL     3     -10.840  13.112  66.857  1.00  0.00    -0.265 C  
HETATM   31  O   UNL     3     -10.224  12.918  69.077  1.00  0.00    -0.431 OA 
HETATM   32  O   UNL     3     -11.982  12.402  66.887  1.00  0.00    -0.550 OA 
HETATM   33  O   UNL     3     -10.089  12.997  65.901  1.00  0.00    -0.281 OA 
HETATM   34  H   UNL     3      -9.715  12.179  68.763  1.00  0.00     0.000 HD 
ENDBRANCH  26  29
ENDBRANCH  23  26
ENDBRANCH   3  23
BRANCH   3  35
HETATM   35  C   UNL     3     -13.043  13.484  71.700  1.00  0.00    -0.374 C  
HETATM   36  O   UNL     3     -14.059  13.487  72.659  1.00  0.00    -0.762 OA 
HETATM   37  H   UNL     3     -13.961  12.785  73.293  1.00  0.00     0.000 HD 
ENDBRANCH   3  35
TORSDOF 8
ENDMDL
MODEL       65
REMARK 921   NORMALIZED FREE ENERGY PREDICTED BY IDOCK:   -5.64 KCAL/MOL
REMARK 922        TOTAL FREE ENERGY PREDICTED BY IDOCK:   -9.95 KCAL/MOL
REMARK 923 INTER-LIGAND FREE ENERGY PREDICTED BY IDOCK:   -7.99 KCAL/MOL
REMARK 924 INTRA-LIGAND FREE ENERGY PREDICTED BY IDOCK:   -1.96 KCAL/MOL
REMARK 927      BINDING AFFINITY PREDICTED BY RF-SCORE:    0.00 PKD
ROOT
HETATM    1 MN   UNL     1     -12.523  11.210  65.184  1.00  0.00     0.208 Mn 
HETATM    2  C   UNL     2     -11.423   6.937  71.555  1.00  0.00    -0.277 C  
HETATM    3  C   UNL     3     -12.175  13.700  64.574  1.00  0.00    -0.401 C  
HETATM    4  H   UNL     3     -12.381  15.054  63.198  1.00  0.00     0.000 HD 
HETATM    5  H   UNL     2     -12.889   7.579  70.507  1.00  0.00     0.000 HD 
HETATM    6  O   UNL     2     -12.801   6.955  71.218  1.00  0.00    -0.359 OA 
HETATM    7  O   UNL     3     -12.455  15.022  64.145  1.00  0.00    -0.756 OA 
ENDROOT
BRANCH   2   8
HETATM    8  C   UNL     2     -11.279   5.923  72.708  1.00  0.00    -0.276 C  
HETATM    9  H   UNL     2     -10.942   3.989  72.964  1.00  0.00     0.000 HD 
HETATM   10  O   UNL     2     -11.031   4.613  72.254  1.00  0.00    -0.088 OA 
ENDBRANCH   2   8
BRANCH   2  11
HETATM   11  C   UNL     2     -10.963   8.412  71.889  1.00  0.00    -0.305 C  
HETATM   12  H   UNL     2      -9.606   9.306  73.010  1.00  0.00     0.000 HD 
HETATM   13  O   UNL     2      -9.882   8.419  72.809  1.00  0.00    -0.274 OA 
BRANCH  11  14
HETATM   14  C   UNL     2     -10.531   9.288  70.668  1.00  0.00    -0.262 C  
HETATM   15  H   UNL     2     -11.433  10.381  69.369  1.00  0.00     0.000 HD 
HETATM   16  O   UNL     2     -11.695   9.848  70.111  1.00  0.00    -0.239 OA 
BRANCH  14  17
HETATM   17  C   UNL     2      -9.770   8.541  69.547  1.00  0.00    -0.176 C  
HETATM   18  C   UNL     2      -8.546   9.318  69.094  1.00  0.00    -0.134 C  
HETATM   19  H   UNL     2     -10.157   7.901  67.759  1.00  0.00     0.000 HD 
HETATM   20  O   UNL     2     -10.624   8.359  68.447  1.00  0.00    -0.190 OA 
HETATM   21  O   UNL     2      -7.737   8.802  68.154  1.00  0.00    -0.099 OA 
HETATM   22  O   UNL     2      -8.230  10.383  69.623  1.00  0.00    -0.155 OA 
ENDBRANCH  14  17
ENDBRANCH  11  14
ENDBRANCH   2  11
BRANCH   3  23
HETATM   23  C   UNL     3     -10.793  13.323  63.904  1.00  0.00    -0.146 C  
HETATM   24  O   UNL     3      -9.829  13.626  64.885  1.00  0.00    -0.597 OA 
HETATM   25  H   UNL     3      -8.999  13.400  64.482  1.00  0.00     0.000 HD 
BRANCH  23  26
HETATM   26  C   UNL     3     -10.313  11.954  63.238  1.00  0.00    -0.391 C  
HETATM   27  O   UNL     3     -11.509  11.306  62.883  1.00  0.00    -0.829 OA 
HETATM   28  H   UNL     3     -11.223  10.491  62.487  1.00  0.00     0.000 HD 
BRANCH  26  29
HETATM   29  C   UNL     3      -9.446  10.799  63.939  1.00  0.00    -0.274 C  
HETATM   30  C   UNL     3      -9.739  10.376  65.352  1.00  0.00    -0.265 C  
HETATM   31  O   UNL     3      -8.070  11.115  63.932  1.00  0.00    -0.267 OA 
HETATM   32  O   UNL     3      -9.549  11.233  66.371  1.00  0.00    -0.189 OA 
HETATM   33  O   UNL     3      -9.998   9.207  65.592  1.00  0.00    -0.232 OA 
HETATM   34  H   UNL     3      -7.558  10.431  64.347  1.00  0.00     0.000 HD 
ENDBRANCH  26  29
ENDBRANCH  23  26
ENDBRANCH   3  23
BRANCH   3  35
HETATM   35  C   UNL     3     -12.297  13.647  66.136  1.00  0.00    -0.426 C  
HETATM   36  O   UNL     3     -12.129  12.354  66.640  1.00  0.00    -0.592 OA 
HETATM   37  H   UNL     3     -12.203  12.322  67.587  1.00  0.00     0.000 HD 
ENDBRANCH   3  35
TORSDOF 8
ENDMDL
MODEL       66
REMARK 921   NORMALIZED FREE ENERGY PREDICTED BY IDOCK:   -5.61 KCAL/MOL
REMARK 922        TOTAL FREE ENERGY PREDICTED BY IDOCK:   -9.91 KCAL/MOL
REMARK 923 INTER-LIGAND FREE ENERGY PREDICTED BY IDOCK:   -8.20 KCAL/MOL
REMARK 924 INTRA-LIGAND FREE ENERGY PREDICTED BY IDOCK:   -1.71 KCAL/MOL
REMARK 927      BINDING AFFINITY PREDICTED BY RF-SCORE:    0.00 PKD
ROOT
HETATM    1 MN   UNL     1      -9.917  10.059  67.282  1.00  0.00    -0.155 Mn 
HETATM    2  C   UNL     2     -10.432  17.783  66.934  1.00  0.00    -0.307 C  
HETATM    3  C   UNL     3      -8.747   8.377  68.863  1.00  0.00    -0.136 C  
HETATM    4  H   UNL     3      -8.367   6.505  69.209  1.00  0.00     0.000 HD 
HETATM    5  H   UNL     2      -9.638  16.362  65.928  1.00  0.00     0.000 HD 
HETATM    6  O   UNL     2      -9.774  17.290  65.778  1.00  0.00    -0.530 OA 
HETATM    7  O   UNL     3      -7.904   7.328  69.310  1.00  0.00    -0.112 OA 
ENDROOT
BRANCH   2   8
HETATM    8  C   UNL     2     -10.653  19.289  66.690  1.00  0.00    -0.438 C  
HETATM    9  H   UNL     2     -11.047  20.518  65.188  1.00  0.00     0.000 HD 
HETATM   10  O   UNL     2     -10.910  19.591  65.338  1.00  0.00    -0.419 OA 
ENDBRANCH   2   8
BRANCH   2  11
HETATM   11  C   UNL     2      -9.563  17.424  68.204  1.00  0.00    -0.287 C  
HETATM   12  H   UNL     2      -8.898  18.328  69.829  1.00  0.00     0.000 HD 
HETATM   13  O   UNL     2      -9.420  18.544  69.065  1.00  0.00    -0.271 OA 
BRANCH  11  14
HETATM   14  C   UNL     2     -10.087  16.238  69.080  1.00  0.00    -0.259 C  
HETATM   15  H   UNL     2      -9.873  14.328  69.080  1.00  0.00     0.000 HD 
HETATM   16  O   UNL     2      -9.555  15.048  68.549  1.00  0.00    -0.197 OA 
BRANCH  14  17
HETATM   17  C   UNL     2     -11.625  16.090  69.151  1.00  0.00    -0.336 C  
HETATM   18  C   UNL     2     -12.088  15.773  70.562  1.00  0.00    -0.374 C  
HETATM   19  H   UNL     2     -12.976  14.961  68.340  1.00  0.00     0.000 HD 
HETATM   20  O   UNL     2     -12.032  15.052  68.297  1.00  0.00    -0.293 OA 
HETATM   21  O   UNL     2     -13.400  15.650  70.825  1.00  0.00    -0.535 OA 
HETATM   22  O   UNL     2     -11.291  15.698  71.497  1.00  0.00    -0.381 OA 
ENDBRANCH  14  17
ENDBRANCH  11  14
ENDBRANCH   2  11
BRANCH   3  23
HETATM   23  C   UNL     3     -10.116   8.173  69.628  1.00  0.00    -0.199 C  
HETATM   24  O   UNL     3     -11.066   8.857  68.844  1.00  0.00    -0.440 OA 
HETATM   25  H   UNL     3     -11.888   8.734  69.304  1.00  0.00     0.000 HD 
BRANCH  23  26
HETATM   26  C   UNL     3     -10.838   6.831  70.104  1.00  0.00    -0.266 C  
HETATM   27  O   UNL     3     -12.136   7.245  70.455  1.00  0.00    -0.535 OA 
HETATM   28  H   UNL     3     -12.566   6.447  70.738  1.00  0.00     0.000 HD 
BRANCH  26  29
HETATM   29  C   UNL     3     -10.397   5.884  71.322  1.00  0.00    -0.221 C  
HETATM   30  C   UNL     3     -11.104   5.965  72.646  1.00  0.00    -0.280 C  
HETATM   31  O   UNL     3      -9.029   6.049  71.629  1.00  0.00    -0.142 OA 
HETATM   32  O   UNL     3     -11.023   7.081  73.393  1.00  0.00    -0.304 OA 
HETATM   33  O   UNL     3     -11.621   4.965  73.118  1.00  0.00    -0.324 OA 
HETATM   34  H   UNL     3      -8.768   5.489  72.351  1.00  0.00     0.000 HD 
ENDBRANCH  26  29
ENDBRANCH  23  26
ENDBRANCH   3  23
BRANCH   3  35
HETATM   35  C   UNL     3      -7.984   9.736  69.030  1.00  0.00    -0.096 C  
HETATM   36  O   UNL     3      -8.835  10.785  69.385  1.00  0.00    -0.363 OA 
HETATM   37  H   UNL     3      -8.372  11.609  69.487  1.00  0.00     0.000 HD 
ENDBRANCH   3  35
TORSDOF 8
ENDMDL
MODEL       67
REMARK 921   NORMALIZED FREE ENERGY PREDICTED BY IDOCK:   -5.60 KCAL/MOL
REMARK 922        TOTAL FREE ENERGY PREDICTED BY IDOCK:   -9.90 KCAL/MOL
REMARK 923 INTER-LIGAND FREE ENERGY PREDICTED BY IDOCK:   -8.91 KCAL/MOL
REMARK 924 INTRA-LIGAND FREE ENERGY PREDICTED BY IDOCK:   -0.98 KCAL/MOL
REMARK 927      BINDING AFFINITY PREDICTED BY RF-SCORE:    0.00 PKD
ROOT
HETATM    1 MN   UNL     1     -12.325  11.975  68.172  1.00  0.00    -0.319 Mn 
HETATM    2  C   UNL     2     -11.165   5.739  72.624  1.00  0.00    -0.301 C  
HETATM    3  C   UNL     3     -11.799  14.499  68.393  1.00  0.00    -0.316 C  
HETATM    4  H   UNL     3     -11.980  16.249  67.571  1.00  0.00     0.000 HD 
HETATM    5  H   UNL     2     -12.638   6.786  71.996  1.00  0.00     0.000 HD 
HETATM    6  O   UNL     2     -12.556   5.953  72.446  1.00  0.00    -0.091 OA 
HETATM    7  O   UNL     3     -11.989  15.902  68.456  1.00  0.00    -0.306 OA 
ENDROOT
BRANCH   2   8
HETATM    8  C   UNL     2     -11.031   4.388  73.354  1.00  0.00    -0.290 C  
HETATM    9  H   UNL     2     -10.268   2.587  73.041  1.00  0.00     0.000 HD 
HETATM   10  O   UNL     2     -10.351   3.420  72.590  1.00  0.00    -0.163 OA 
ENDBRANCH   2   8
BRANCH   2  11
HETATM   11  C   UNL     2     -10.552   6.982  73.382  1.00  0.00    -0.364 C  
HETATM   12  H   UNL     2      -9.134   7.337  74.710  1.00  0.00     0.000 HD 
HETATM   13  O   UNL     2      -9.503   6.589  74.254  1.00  0.00    -0.188 OA 
BRANCH  11  14
HETATM   14  C   UNL     2      -9.991   8.128  72.478  1.00  0.00    -0.302 C  
HETATM   15  H   UNL     2     -10.735   9.632  71.539  1.00  0.00     0.000 HD 
HETATM   16  O   UNL     2     -11.076   8.936  72.089  1.00  0.00    -0.362 OA 
BRANCH  14  17
HETATM   17  C   UNL     2      -9.249   7.668  71.201  1.00  0.00    -0.147 C  
HETATM   18  C   UNL     2      -7.874   8.305  71.097  1.00  0.00    -0.097 C  
HETATM   19  H   UNL     2      -9.546   7.745  69.287  1.00  0.00     0.000 HD 
HETATM   20  O   UNL     2     -10.002   8.027  70.071  1.00  0.00    -0.187 OA 
HETATM   21  O   UNL     2      -7.066   7.989  70.071  1.00  0.00    -0.048 OA 
HETATM   22  O   UNL     2      -7.446   9.054  71.975  1.00  0.00    -0.337 OA 
ENDBRANCH  14  17
ENDBRANCH  11  14
ENDBRANCH   2  11
BRANCH   3  23
HETATM   23  C   UNL     3     -10.508  14.288  67.505  1.00  0.00    -0.252 C  
HETATM   24  O   UNL     3      -9.516  13.873  68.415  1.00  0.00    -0.213 OA 
HETATM   25  H   UNL     3      -8.740  13.746  67.881  1.00  0.00     0.000 HD 
BRANCH  23  26
HETATM   26  C   UNL     3     -10.292  13.396  66.198  1.00  0.00    -0.295 C  
HETATM   27  O   UNL     3      -8.898  13.226  66.125  1.00  0.00    -0.430 OA 
HETATM   28  H   UNL     3      -8.769  12.695  65.347  1.00  0.00     0.000 HD 
BRANCH  26  29
HETATM   29  C   UNL     3     -10.710  13.778  64.696  1.00  0.00    -0.414 C  
HETATM   30  C   UNL     3     -12.150  13.725  64.268  1.00  0.00    -0.440 C  
HETATM   31  O   UNL     3     -10.022  12.982  63.755  1.00  0.00    -0.744 OA 
HETATM   32  O   UNL     3     -12.804  12.550  64.226  1.00  0.00    -0.708 OA 
HETATM   33  O   UNL     3     -12.682  14.723  63.809  1.00  0.00    -0.767 OA 
HETATM   34  H   UNL     3     -10.270  13.208  62.866  1.00  0.00     0.000 HD 
ENDBRANCH  26  29
ENDBRANCH  23  26
ENDBRANCH   3  23
BRANCH   3  35
HETATM   35  C   UNL     3     -11.815  13.927  69.852  1.00  0.00    -0.328 C  
HETATM   36  O   UNL     3     -11.020  14.674  70.726  1.00  0.00    -0.506 OA 
HETATM   37  H   UNL     3     -11.030  14.328  71.610  1.00  0.00     0.000 HD 
ENDBRANCH   3  35
TORSDOF 8
ENDMDL
MODEL       68
REMARK 921   NORMALIZED FREE ENERGY PREDICTED BY IDOCK:   -5.59 KCAL/MOL
REMARK 922        TOTAL FREE ENERGY PREDICTED BY IDOCK:   -9.88 KCAL/MOL
REMARK 923 INTER-LIGAND FREE ENERGY PREDICTED BY IDOCK:   -7.07 KCAL/MOL
REMARK 924 INTRA-LIGAND FREE ENERGY PREDICTED BY IDOCK:   -2.81 KCAL/MOL
REMARK 927      BINDING AFFINITY PREDICTED BY RF-SCORE:    0.00 PKD
ROOT
HETATM    1 MN   UNL     1     -11.974  12.414  68.447  1.00  0.00    -0.238 Mn 
HETATM    2  C   UNL     2      -9.247   5.174  68.898  1.00  0.00    -0.118 C  
HETATM    3  C   UNL     3     -10.921  14.736  68.006  1.00  0.00    -0.271 C  
HETATM    4  H   UNL     3     -11.251  16.646  67.886  1.00  0.00     0.000 HD 
HETATM    5  H   UNL     2     -10.007   6.484  70.067  1.00  0.00     0.000 HD 
HETATM    6  O   UNL     2      -9.797   5.561  70.147  1.00  0.00    -0.172 OA 
HETATM    7  O   UNL     3     -10.545  16.090  68.195  1.00  0.00    -0.265 OA 
ENDROOT
BRANCH   2   8
HETATM    8  C   UNL     2      -8.906   3.676  69.028  1.00  0.00    -0.103 C  
HETATM    9  H   UNL     2      -9.152   1.993  68.014  1.00  0.00     0.000 HD 
HETATM   10  O   UNL     2      -9.362   2.916  67.934  1.00  0.00    -0.195 OA 
ENDBRANCH   2   8
BRANCH   2  11
HETATM   11  C   UNL     2      -8.025   6.119  68.566  1.00  0.00    -0.108 C  
HETATM   12  H   UNL     2      -6.280   5.994  67.651  1.00  0.00     0.000 HD 
HETATM   13  O   UNL     2      -7.015   5.425  67.851  1.00  0.00    -0.062 OA 
BRANCH  11  14
HETATM   14  C   UNL     2      -8.360   7.410  67.749  1.00  0.00    -0.118 C  
HETATM   15  H   UNL     2      -7.353   8.705  66.746  1.00  0.00     0.000 HD 
HETATM   16  O   UNL     2      -7.150   7.921  67.243  1.00  0.00    -0.079 OA 
BRANCH  14  17
HETATM   17  C   UNL     2      -9.066   8.537  68.540  1.00  0.00    -0.135 C  
HETATM   18  C   UNL     2     -10.268   9.076  67.785  1.00  0.00    -0.230 C  
HETATM   19  H   UNL     2      -8.594  10.279  69.246  1.00  0.00     0.000 HD 
HETATM   20  O   UNL     2      -8.161   9.588  68.761  1.00  0.00    -0.108 OA 
HETATM   21  O   UNL     2     -11.032  10.033  68.338  1.00  0.00    -0.239 OA 
HETATM   22  O   UNL     2     -10.610   8.604  66.701  1.00  0.00    -0.240 OA 
ENDBRANCH  14  17
ENDBRANCH  11  14
ENDBRANCH   2  11
BRANCH   3  23
HETATM   23  C   UNL     3     -11.369  14.631  66.493  1.00  0.00    -0.353 C  
HETATM   24  O   UNL     3     -10.164  14.503  65.775  1.00  0.00    -0.300 OA 
HETATM   25  H   UNL     3     -10.433  14.439  64.866  1.00  0.00     0.000 HD 
BRANCH  23  26
HETATM   26  C   UNL     3     -12.395  13.629  65.791  1.00  0.00    -0.482 C  
HETATM   27  O   UNL     3     -11.987  12.356  66.228  1.00  0.00    -0.553 OA 
HETATM   28  H   UNL     3     -12.597  11.760  65.811  1.00  0.00     0.000 HD 
BRANCH  26  29
HETATM   29  C   UNL     3     -12.622  13.437  64.214  1.00  0.00    -0.158 C  
HETATM   30  C   UNL     3     -12.027  12.257  63.496  1.00  0.00    -0.533 C  
HETATM   31  O   UNL     3     -12.175  14.565  63.492  1.00  0.00    -1.007 OA 
HETATM   32  O   UNL     3     -10.692  12.127  63.391  1.00  0.00    -0.430 OA 
HETATM   33  O   UNL     3     -12.754  11.500  62.872  1.00  0.00    -0.185 OA 
HETATM   34  H   UNL     3     -12.309  14.451  62.558  1.00  0.00     0.000 HD 
ENDBRANCH  26  29
ENDBRANCH  23  26
ENDBRANCH   3  23
BRANCH   3  35
HETATM   35  C   UNL     3      -9.756  13.819  68.515  1.00  0.00    -0.193 C  
HETATM   36  O   UNL     3      -9.717  12.590  67.852  1.00  0.00    -0.192 OA 
HETATM   37  H   UNL     3      -9.011  12.034  68.160  1.00  0.00     0.000 HD 
ENDBRANCH   3  35
TORSDOF 8
ENDMDL
MODEL       69
REMARK 921   NORMALIZED FREE ENERGY PREDICTED BY IDOCK:   -5.56 KCAL/MOL
REMARK 922        TOTAL FREE ENERGY PREDICTED BY IDOCK:   -9.84 KCAL/MOL
REMARK 923 INTER-LIGAND FREE ENERGY PREDICTED BY IDOCK:   -8.78 KCAL/MOL
REMARK 924 INTRA-LIGAND FREE ENERGY PREDICTED BY IDOCK:   -1.06 KCAL/MOL
REMARK 927      BINDING AFFINITY PREDICTED BY RF-SCORE:    0.00 PKD
ROOT
HETATM    1 MN   UNL     1      -7.884  17.040  65.650  1.00  0.00    -0.272 Mn 
HETATM    2  C   UNL     2      -9.079   9.387  65.892  1.00  0.00    -0.195 C  
HETATM    3  C   UNL     3      -9.256  19.124  66.335  1.00  0.00    -0.343 C  
HETATM    4  H   UNL     3      -9.310  21.065  66.367  1.00  0.00     0.000 HD 
HETATM    5  H   UNL     2      -8.912  10.761  64.571  1.00  0.00     0.000 HD 
HETATM    6  O   UNL     2      -8.939   9.812  64.546  1.00  0.00    -0.207 OA 
HETATM    7  O   UNL     3      -9.939  20.363  66.243  1.00  0.00    -0.383 OA 
ENDROOT
BRANCH   2   8
HETATM    8  C   UNL     2      -9.124   7.847  65.852  1.00  0.00    -0.087 C  
HETATM    9  H   UNL     2      -7.872   6.312  65.913  1.00  0.00     0.000 HD 
HETATM   10  O   UNL     2      -7.845   7.262  65.938  1.00  0.00    -0.095 OA 
ENDBRANCH   2   8
BRANCH   2  11
HETATM   11  C   UNL     2     -10.353  10.084  66.514  1.00  0.00    -0.198 C  
HETATM   12  H   UNL     2     -11.160  10.341  68.298  1.00  0.00     0.000 HD 
HETATM   13  O   UNL     2     -10.394   9.922  67.924  1.00  0.00    -0.184 OA 
BRANCH  11  14
HETATM   14  C   UNL     2     -10.506  11.614  66.226  1.00  0.00    -0.246 C  
HETATM   15  H   UNL     2     -10.359  13.231  67.256  1.00  0.00     0.000 HD 
HETATM   16  O   UNL     2     -10.266  12.302  67.431  1.00  0.00    -0.202 OA 
BRANCH  14  17
HETATM   17  C   UNL     2     -11.886  12.057  65.685  1.00  0.00    -0.172 C  
HETATM   18  C   UNL     2     -11.785  12.571  64.259  1.00  0.00    -0.382 C  
HETATM   19  H   UNL     2     -13.247  13.351  66.167  1.00  0.00     0.000 HD 
HETATM   20  O   UNL     2     -12.400  13.079  66.500  1.00  0.00    -0.399 OA 
HETATM   21  O   UNL     2     -12.894  12.961  63.608  1.00  0.00    -0.692 OA 
HETATM   22  O   UNL     2     -10.715  12.570  63.652  1.00  0.00    -0.430 OA 
ENDBRANCH  14  17
ENDBRANCH  11  14
ENDBRANCH   2  11
BRANCH   3  23
HETATM   23  C   UNL     3      -8.445  19.189  67.691  1.00  0.00    -0.291 C  
HETATM   24  O   UNL     3      -7.652  18.025  67.685  1.00  0.00    -0.212 OA 
HETATM   25  H   UNL     3      -7.165  18.064  68.500  1.00  0.00     0.000 HD 
BRANCH  23  26
HETATM   26  C   UNL     3      -7.510  20.343  68.276  1.00  0.00    -0.073 C  
HETATM   27  O   UNL     3      -7.350  21.234  67.200  1.00  0.00    -0.726 OA 
HETATM   28  H   UNL     3      -6.793  21.921  67.547  1.00  0.00     0.000 HD 
BRANCH  26  29
HETATM   29  C   UNL     3      -6.023  20.172  68.855  1.00  0.00    -0.294 C  
HETATM   30  C   UNL     3      -5.804  19.721  70.272  1.00  0.00    -0.295 C  
HETATM   31  O   UNL     3      -5.287  21.371  68.737  1.00  0.00    -0.445 OA 
HETATM   32  O   UNL     3      -6.190  20.497  71.301  1.00  0.00    -0.618 OA 
HETATM   33  O   UNL     3      -5.135  18.723  70.493  1.00  0.00    -0.197 OA 
HETATM   34  H   UNL     3      -4.406  21.269  69.080  1.00  0.00     0.000 HD 
ENDBRANCH  26  29
ENDBRANCH  23  26
ENDBRANCH   3  23
BRANCH   3  35
HETATM   35  C   UNL     3     -10.294  17.967  66.130  1.00  0.00    -0.366 C  
HETATM   36  O   UNL     3     -10.993  18.085  64.926  1.00  0.00    -0.776 OA 
HETATM   37  H   UNL     3     -11.622  17.384  64.801  1.00  0.00     0.000 HD 
ENDBRANCH   3  35
TORSDOF 8
ENDMDL
MODEL       70
REMARK 921   NORMALIZED FREE ENERGY PREDICTED BY IDOCK:   -5.56 KCAL/MOL
REMARK 922        TOTAL FREE ENERGY PREDICTED BY IDOCK:   -9.84 KCAL/MOL
REMARK 923 INTER-LIGAND FREE ENERGY PREDICTED BY IDOCK:   -7.63 KCAL/MOL
REMARK 924 INTRA-LIGAND FREE ENERGY PREDICTED BY IDOCK:   -2.20 KCAL/MOL
REMARK 927      BINDING AFFINITY PREDICTED BY RF-SCORE:    0.00 PKD
ROOT
HETATM    1 MN   UNL     1      -7.779  11.046  67.114  1.00  0.00    -0.100 Mn 
HETATM    2  C   UNL     2      -8.425  18.767  67.270  1.00  0.00    -0.270 C  
HETATM    3  C   UNL     3      -8.921   9.093  68.371  1.00  0.00    -0.133 C  
HETATM    4  H   UNL     3      -8.974   7.170  68.627  1.00  0.00     0.000 HD 
HETATM    5  H   UNL     2      -7.136  17.436  67.748  1.00  0.00     0.000 HD 
HETATM    6  O   UNL     2      -7.121  18.383  67.676  1.00  0.00    -0.206 OA 
HETATM    7  O   UNL     3      -9.086   7.938  69.175  1.00  0.00    -0.145 OA 
ENDROOT
BRANCH   2   8
HETATM    8  C   UNL     2      -8.400  20.304  67.153  1.00  0.00    -0.336 C  
HETATM    9  H   UNL     2      -7.104  21.754  66.778  1.00  0.00     0.000 HD 
HETATM   10  O   UNL     2      -7.119  20.807  66.851  1.00  0.00    -0.288 OA 
ENDBRANCH   2   8
BRANCH   2  11
HETATM   11  C   UNL     2      -9.470  18.184  68.302  1.00  0.00    -0.307 C  
HETATM   12  H   UNL     2     -10.774  18.873  69.615  1.00  0.00     0.000 HD 
HETATM   13  O   UNL     2     -10.145  19.223  68.995  1.00  0.00    -0.415 OA 
BRANCH  11  14
HETATM   14  C   UNL     2     -10.567  17.242  67.708  1.00  0.00    -0.367 C  
HETATM   15  H   UNL     2     -12.113  16.326  68.392  1.00  0.00     0.000 HD 
HETATM   16  O   UNL     2     -11.446  16.898  68.752  1.00  0.00    -0.088 OA 
BRANCH  14  17
HETATM   17  C   UNL     2     -10.047  15.934  67.065  1.00  0.00    -0.268 C  
HETATM   18  C   UNL     2     -10.272  15.926  65.563  1.00  0.00    -0.365 C  
HETATM   19  H   UNL     2     -10.401  14.036  67.235  1.00  0.00     0.000 HD 
HETATM   20  O   UNL     2     -10.720  14.838  67.630  1.00  0.00    -0.262 OA 
HETATM   21  O   UNL     2      -9.845  14.886  64.828  1.00  0.00    -0.110 OA 
HETATM   22  O   UNL     2     -10.774  16.889  64.984  1.00  0.00    -0.700 OA 
ENDBRANCH  14  17
ENDBRANCH  11  14
ENDBRANCH   2  11
BRANCH   3  23
HETATM   23  C   UNL     3      -9.888   8.890  67.136  1.00  0.00    -0.207 C  
HETATM   24  O   UNL     3     -11.183   9.006  67.678  1.00  0.00    -0.434 OA 
HETATM   25  H   UNL     3     -11.764   8.884  66.936  1.00  0.00     0.000 HD 
BRANCH  23  26
HETATM   26  C   UNL     3      -9.939   9.650  65.734  1.00  0.00    -0.272 C  
HETATM   27  O   UNL     3      -8.588   9.797  65.372  1.00  0.00    -0.135 OA 
HETATM   28  H   UNL     3      -8.618  10.249  64.538  1.00  0.00     0.000 HD 
BRANCH  26  29
HETATM   29  C   UNL     3     -10.569  11.099  65.450  1.00  0.00    -0.227 C  
HETATM   30  C   UNL     3     -10.793  11.571  64.041  1.00  0.00    -0.387 C  
HETATM   31  O   UNL     3      -9.804  12.118  66.057  1.00  0.00    -0.235 OA 
HETATM   32  O   UNL     3      -9.749  11.789  63.222  1.00  0.00    -0.377 OA 
HETATM   33  O   UNL     3     -11.912  11.908  63.686  1.00  0.00    -0.473 OA 
HETATM   34  H   UNL     3     -10.177  12.976  65.889  1.00  0.00     0.000 HD 
ENDBRANCH  26  29
ENDBRANCH  23  26
ENDBRANCH   3  23
BRANCH   3  35
HETATM   35  C   UNL     3      -9.105  10.361  69.275  1.00  0.00    -0.175 C  
HETATM   36  O   UNL     3      -7.910  11.060  69.463  1.00  0.00    -0.354 OA 
HETATM   37  H   UNL     3      -8.022  11.828  70.011  1.00  0.00     0.000 HD 
ENDBRANCH   3  35
TORSDOF 8
ENDMDL
MODEL       71
REMARK 921   NORMALIZED FREE ENERGY PREDICTED BY IDOCK:   -5.51 KCAL/MOL
REMARK 922        TOTAL FREE ENERGY PREDICTED BY IDOCK:   -9.76 KCAL/MOL
REMARK 923 INTER-LIGAND FREE ENERGY PREDICTED BY IDOCK:   -8.58 KCAL/MOL
REMARK 924 INTRA-LIGAND FREE ENERGY PREDICTED BY IDOCK:   -1.18 KCAL/MOL
REMARK 927      BINDING AFFINITY PREDICTED BY RF-SCORE:    0.00 PKD
ROOT
HETATM    1 MN   UNL     1     -10.730   9.808  65.488  1.00  0.00    -0.244 Mn 
HETATM    2  C   UNL     2     -10.571  17.421  66.924  1.00  0.00    -0.216 C  
HETATM    3  C   UNL     3      -9.424   7.756  66.371  1.00  0.00    -0.180 C  
HETATM    4  H   UNL     3      -9.160   5.839  66.215  1.00  0.00     0.000 HD 
HETATM    5  H   UNL     2     -10.141  16.234  65.487  1.00  0.00     0.000 HD 
HETATM    6  O   UNL     2     -10.216  17.177  65.572  1.00  0.00    -0.592 OA 
HETATM    7  O   UNL     3      -8.610   6.596  66.384  1.00  0.00    -0.119 OA 
ENDROOT
BRANCH   2   8
HETATM    8  C   UNL     2     -10.694  18.952  67.063  1.00  0.00    -0.402 C  
HETATM    9  H   UNL     2      -9.949  20.593  66.242  1.00  0.00     0.000 HD 
HETATM   10  O   UNL     2      -9.873  19.650  66.157  1.00  0.00    -0.404 OA 
ENDBRANCH   2   8
BRANCH   2  11
HETATM   11  C   UNL     2      -9.497  16.741  67.862  1.00  0.00    -0.230 C  
HETATM   12  H   UNL     2      -8.158  17.297  69.203  1.00  0.00     0.000 HD 
HETATM   13  O   UNL     2      -8.804  17.706  68.638  1.00  0.00    -0.287 OA 
BRANCH  11  14
HETATM   14  C   UNL     2     -10.039  15.659  68.853  1.00  0.00    -0.217 C  
HETATM   15  H   UNL     2      -9.858  13.755  69.048  1.00  0.00     0.000 HD 
HETATM   16  O   UNL     2      -9.529  14.413  68.446  1.00  0.00    -0.197 OA 
BRANCH  14  17
HETATM   17  C   UNL     2     -11.579  15.546  68.940  1.00  0.00    -0.373 C  
HETATM   18  C   UNL     2     -12.077  15.796  70.353  1.00  0.00    -0.370 C  
HETATM   19  H   UNL     2     -12.919  14.188  68.595  1.00  0.00     0.000 HD 
HETATM   20  O   UNL     2     -11.974  14.258  68.542  1.00  0.00    -0.341 OA 
HETATM   21  O   UNL     2     -13.395  15.781  70.611  1.00  0.00    -0.486 OA 
HETATM   22  O   UNL     2     -11.302  16.089  71.263  1.00  0.00    -0.389 OA 
ENDBRANCH  14  17
ENDBRANCH  11  14
ENDBRANCH   2  11
BRANCH   3  23
HETATM   23  C   UNL     3     -10.618   7.445  67.359  1.00  0.00    -0.301 C  
HETATM   24  O   UNL     3     -11.312   6.379  66.753  1.00  0.00    -0.704 OA 
HETATM   25  H   UNL     3     -12.030   6.193  67.347  1.00  0.00     0.000 HD 
BRANCH  23  26
HETATM   26  C   UNL     3     -10.601   7.113  68.921  1.00  0.00    -0.201 C  
HETATM   27  O   UNL     3     -11.690   6.241  69.099  1.00  0.00    -0.499 OA 
HETATM   28  H   UNL     3     -11.680   6.044  70.028  1.00  0.00     0.000 HD 
BRANCH  26  29
HETATM   29  C   UNL     3     -10.752   8.163  70.126  1.00  0.00    -0.243 C  
HETATM   30  C   UNL     3     -11.440   7.766  71.402  1.00  0.00    -0.260 C  
HETATM   31  O   UNL     3     -11.415   9.335  69.705  1.00  0.00    -0.438 OA 
HETATM   32  O   UNL     3     -12.752   7.470  71.403  1.00  0.00    -0.342 OA 
HETATM   33  O   UNL     3     -10.847   7.862  72.465  1.00  0.00    -0.284 OA 
HETATM   34  H   UNL     3     -11.504   9.956  70.418  1.00  0.00     0.000 HD 
ENDBRANCH  26  29
ENDBRANCH  23  26
ENDBRANCH   3  23
BRANCH   3  35
HETATM   35  C   UNL     3      -8.517   9.004  66.650  1.00  0.00    -0.122 C  
HETATM   36  O   UNL     3      -9.241  10.087  67.155  1.00  0.00    -0.140 OA 
HETATM   37  H   UNL     3      -8.692  10.843  67.325  1.00  0.00     0.000 HD 
ENDBRANCH   3  35
TORSDOF 8
ENDMDL
MODEL       72
REMARK 921   NORMALIZED FREE ENERGY PREDICTED BY IDOCK:   -5.50 KCAL/MOL
REMARK 922        TOTAL FREE ENERGY PREDICTED BY IDOCK:   -9.75 KCAL/MOL
REMARK 923 INTER-LIGAND FREE ENERGY PREDICTED BY IDOCK:   -7.42 KCAL/MOL
REMARK 924 INTRA-LIGAND FREE ENERGY PREDICTED BY IDOCK:   -2.33 KCAL/MOL
REMARK 927      BINDING AFFINITY PREDICTED BY RF-SCORE:    0.00 PKD
ROOT
HETATM    1 MN   UNL     1     -12.196   7.210  69.443  1.00  0.00    -0.500 Mn 
HETATM    2  C   UNL     2     -12.421  14.655  71.581  1.00  0.00    -0.345 C  
HETATM    3  C   UNL     3     -10.891   5.861  67.662  1.00  0.00    -0.239 C  
HETATM    4  H   UNL     3     -10.632   4.118  66.847  1.00  0.00     0.000 HD 
HETATM    5  H   UNL     2     -13.570  13.382  70.733  1.00  0.00     0.000 HD 
HETATM    6  O   UNL     2     -13.689  14.257  71.083  1.00  0.00    -0.315 OA 
HETATM    7  O   UNL     3     -10.627   5.021  66.551  1.00  0.00    -0.291 OA 
ENDROOT
BRANCH   2   8
HETATM    8  C   UNL     2     -12.613  16.075  72.149  1.00  0.00    -0.422 C  
HETATM    9  H   UNL     2     -13.458  16.962  73.706  1.00  0.00     0.000 HD 
HETATM   10  O   UNL     2     -13.340  16.086  73.356  1.00  0.00    -0.579 OA 
ENDBRANCH   2   8
BRANCH   2  11
HETATM   11  C   UNL     2     -11.357  14.528  70.421  1.00  0.00    -0.144 C  
HETATM   12  H   UNL     2     -11.028  13.374  68.853  1.00  0.00     0.000 HD 
HETATM   13  O   UNL     2     -11.667  13.450  69.551  1.00  0.00    -0.292 OA 
BRANCH  11  14
HETATM   14  C   UNL     2     -11.165  15.797  69.526  1.00  0.00    -0.317 C  
HETATM   15  H   UNL     2     -11.999  16.507  67.946  1.00  0.00     0.000 HD 
HETATM   16  O   UNL     2     -12.116  15.737  68.490  1.00  0.00    -0.233 OA 
BRANCH  14  17
HETATM   17  C   UNL     2      -9.765  15.957  68.887  1.00  0.00    -0.230 C  
HETATM   18  C   UNL     2      -9.467  17.409  68.556  1.00  0.00    -0.297 C  
HETATM   19  H   UNL     2      -8.844  15.300  67.312  1.00  0.00     0.000 HD 
HETATM   20  O   UNL     2      -9.704  15.201  67.705  1.00  0.00    -0.211 OA 
HETATM   21  O   UNL     2      -8.277  17.746  68.033  1.00  0.00    -0.234 OA 
HETATM   22  O   UNL     2     -10.267  18.305  68.827  1.00  0.00    -0.378 OA 
ENDBRANCH  14  17
ENDBRANCH  11  14
ENDBRANCH   2  11
BRANCH   3  23
HETATM   23  C   UNL     3      -9.862   5.419  68.778  1.00  0.00    -0.150 C  
HETATM   24  O   UNL     3      -8.624   5.931  68.343  1.00  0.00    -0.114 OA 
HETATM   25  H   UNL     3      -8.006   5.665  69.014  1.00  0.00     0.000 HD 
BRANCH  23  26
HETATM   26  C   UNL     3      -9.893   5.654  70.357  1.00  0.00    -0.194 C  
HETATM   27  O   UNL     3     -11.259   5.601  70.686  1.00  0.00    -0.210 OA 
HETATM   28  H   UNL     3     -11.278   5.741  71.625  1.00  0.00     0.000 HD 
BRANCH  26  29
HETATM   29  C   UNL     3      -9.361   6.948  71.145  1.00  0.00    -0.162 C  
HETATM   30  C   UNL     3     -10.313   7.812  71.924  1.00  0.00    -0.207 C  
HETATM   31  O   UNL     3      -8.691   7.836  70.276  1.00  0.00    -0.140 OA 
HETATM   32  O   UNL     3     -11.274   8.507  71.290  1.00  0.00    -0.244 OA 
HETATM   33  O   UNL     3     -10.118   8.007  73.113  1.00  0.00    -0.307 OA 
HETATM   34  H   UNL     3      -8.376   8.602  70.743  1.00  0.00     0.000 HD 
ENDBRANCH  26  29
ENDBRANCH  23  26
ENDBRANCH   3  23
BRANCH   3  35
HETATM   35  C   UNL     3     -10.882   7.351  67.174  1.00  0.00    -0.270 C  
HETATM   36  O   UNL     3     -10.677   8.253  68.221  1.00  0.00    -0.398 OA 
HETATM   37  H   UNL     3     -10.671   9.156  67.925  1.00  0.00     0.000 HD 
ENDBRANCH   3  35
TORSDOF 8
ENDMDL
MODEL       73
REMARK 921   NORMALIZED FREE ENERGY PREDICTED BY IDOCK:   -5.46 KCAL/MOL
REMARK 922        TOTAL FREE ENERGY PREDICTED BY IDOCK:   -9.69 KCAL/MOL
REMARK 923 INTER-LIGAND FREE ENERGY PREDICTED BY IDOCK:   -8.31 KCAL/MOL
REMARK 924 INTRA-LIGAND FREE ENERGY PREDICTED BY IDOCK:   -1.38 KCAL/MOL
REMARK 927      BINDING AFFINITY PREDICTED BY RF-SCORE:    0.00 PKD
ROOT
HETATM    1 MN   UNL     1     -10.015   6.671  68.640  1.00  0.00    -0.137 Mn 
HETATM    2  C   UNL     2     -11.704  13.445  65.278  1.00  0.00    -0.323 C  
HETATM    3  C   UNL     3      -9.197   5.952  70.987  1.00  0.00    -0.150 C  
HETATM    4  H   UNL     3      -8.644   4.461  72.102  1.00  0.00     0.000 HD 
HETATM    5  H   UNL     2     -10.377  12.075  65.132  1.00  0.00     0.000 HD 
HETATM    6  O   UNL     2     -10.610  12.835  64.612  1.00  0.00    -0.312 OA 
HETATM    7  O   UNL     3      -8.395   5.373  72.003  1.00  0.00    -0.119 OA 
ENDROOT
BRANCH   2   8
HETATM    8  C   UNL     2     -12.083  14.678  64.433  1.00  0.00    -0.462 C  
HETATM    9  H   UNL     2     -12.929  15.095  62.692  1.00  0.00     0.000 HD 
HETATM   10  O   UNL     2     -12.695  14.336  63.212  1.00  0.00    -0.665 OA 
ENDBRANCH   2   8
BRANCH   2  11
HETATM   11  C   UNL     2     -11.284  13.750  66.770  1.00  0.00    -0.316 C  
HETATM   12  H   UNL     2     -11.209  15.306  67.983  1.00  0.00     0.000 HD 
HETATM   13  O   UNL     2     -11.461  15.122  67.086  1.00  0.00    -0.330 OA 
BRANCH  11  14
HETATM   14  C   UNL     2     -12.028  12.927  67.873  1.00  0.00    -0.282 C  
HETATM   15  H   UNL     2     -12.625  13.258  69.670  1.00  0.00     0.000 HD 
HETATM   16  O   UNL     2     -12.173  13.757  69.000  1.00  0.00    -0.343 OA 
BRANCH  14  17
HETATM   17  C   UNL     2     -11.325  11.624  68.321  1.00  0.00    -0.285 C  
HETATM   18  C   UNL     2      -9.816  11.792  68.363  1.00  0.00    -0.199 C  
HETATM   19  H   UNL     2     -11.210   9.792  67.697  1.00  0.00     0.000 HD 
HETATM   20  O   UNL     2     -11.641  10.592  67.422  1.00  0.00    -0.445 OA 
HETATM   21  O   UNL     2      -9.040  10.774  68.771  1.00  0.00    -0.165 OA 
HETATM   22  O   UNL     2      -9.283  12.870  68.101  1.00  0.00    -0.204 OA 
ENDBRANCH  14  17
ENDBRANCH  11  14
ENDBRANCH   2  11
BRANCH   3  23
HETATM   23  C   UNL     3     -10.689   5.607  71.381  1.00  0.00    -0.244 C  
HETATM   24  O   UNL     3     -10.622   5.240  72.739  1.00  0.00    -0.204 OA 
HETATM   25  H   UNL     3     -11.519   5.033  72.975  1.00  0.00     0.000 HD 
BRANCH  23  26
HETATM   26  C   UNL     3     -12.019   6.479  71.237  1.00  0.00    -0.306 C  
HETATM   27  O   UNL     3     -11.940   7.013  69.938  1.00  0.00    -0.593 OA 
HETATM   28  H   UNL     3     -12.731   7.532  69.852  1.00  0.00     0.000 HD 
BRANCH  26  29
HETATM   29  C   UNL     3     -12.445   7.735  72.141  1.00  0.00    -0.243 C  
HETATM   30  C   UNL     3     -12.468   9.121  71.560  1.00  0.00    -0.346 C  
HETATM   31  O   UNL     3     -11.632   7.837  73.291  1.00  0.00    -0.644 OA 
HETATM   32  O   UNL     3     -11.327   9.709  71.158  1.00  0.00    -0.327 OA 
HETATM   33  O   UNL     3     -13.498   9.775  71.596  1.00  0.00    -0.376 OA 
HETATM   34  H   UNL     3     -11.885   8.581  73.826  1.00  0.00     0.000 HD 
ENDBRANCH  26  29
ENDBRANCH  23  26
ENDBRANCH   3  23
BRANCH   3  35
HETATM   35  C   UNL     3      -8.787   7.456  70.824  1.00  0.00    -0.149 C  
HETATM   36  O   UNL     3      -8.973   8.189  71.999  1.00  0.00    -0.141 OA 
HETATM   37  H   UNL     3      -8.724   9.101  71.900  1.00  0.00     0.000 HD 
ENDBRANCH   3  35
TORSDOF 8
ENDMDL
MODEL       74
REMARK 921   NORMALIZED FREE ENERGY PREDICTED BY IDOCK:   -5.46 KCAL/MOL
REMARK 922        TOTAL FREE ENERGY PREDICTED BY IDOCK:   -9.69 KCAL/MOL
REMARK 923 INTER-LIGAND FREE ENERGY PREDICTED BY IDOCK:   -7.39 KCAL/MOL
REMARK 924 INTRA-LIGAND FREE ENERGY PREDICTED BY IDOCK:   -2.30 KCAL/MOL
REMARK 927      BINDING AFFINITY PREDICTED BY RF-SCORE:    0.00 PKD
ROOT
HETATM    1 MN   UNL     1      -8.381  11.936  66.836  1.00  0.00    -0.131 Mn 
HETATM    2  C   UNL     2      -8.963   5.972  71.750  1.00  0.00    -0.138 C  
HETATM    3  C   UNL     3     -10.063  13.564  65.734  1.00  0.00    -0.287 C  
HETATM    4  H   UNL     3     -10.282  15.039  64.491  1.00  0.00     0.000 HD 
HETATM    5  H   UNL     2      -8.505   6.266  69.915  1.00  0.00     0.000 HD 
HETATM    6  O   UNL     2      -8.446   5.524  70.507  1.00  0.00    -0.118 OA 
HETATM    7  O   UNL     3     -10.782  14.268  64.736  1.00  0.00    -0.407 OA 
ENDROOT
BRANCH   2   8
HETATM    8  C   UNL     2      -8.867   4.769  72.709  1.00  0.00    -0.117 C  
HETATM    9  H   UNL     2      -7.634   3.272  73.111  1.00  0.00     0.000 HD 
HETATM   10  O   UNL     2      -7.693   4.013  72.520  1.00  0.00    -0.070 OA 
ENDBRANCH   2   8
BRANCH   2  11
HETATM   11  C   UNL     2     -10.420   6.538  71.519  1.00  0.00    -0.215 C  
HETATM   12  H   UNL     2     -12.268   6.090  72.049  1.00  0.00     0.000 HD 
HETATM   13  O   UNL     2     -11.392   5.750  72.188  1.00  0.00    -0.280 OA 
BRANCH  11  14
HETATM   14  C   UNL     2     -10.656   8.022  71.954  1.00  0.00    -0.245 C  
HETATM   15  H   UNL     2     -11.903   8.941  73.092  1.00  0.00     0.000 HD 
HETATM   16  O   UNL     2     -11.759   8.040  72.828  1.00  0.00    -0.396 OA 
BRANCH  14  17
HETATM   17  C   UNL     2     -10.933   9.019  70.805  1.00  0.00    -0.258 C  
HETATM   18  C   UNL     2      -9.647   9.637  70.283  1.00  0.00    -0.254 C  
HETATM   19  H   UNL     2     -11.942  10.657  70.565  1.00  0.00     0.000 HD 
HETATM   20  O   UNL     2     -11.772  10.044  71.271  1.00  0.00    -0.361 OA 
HETATM   21  O   UNL     2      -9.689  10.497  69.252  1.00  0.00    -0.214 OA 
HETATM   22  O   UNL     2      -8.550   9.310  70.733  1.00  0.00    -0.204 OA 
ENDBRANCH  14  17
ENDBRANCH  11  14
ENDBRANCH   2  11
BRANCH   3  23
HETATM   23  C   UNL     3      -9.723  14.637  66.845  1.00  0.00    -0.242 C  
HETATM   24  O   UNL     3     -10.303  15.831  66.375  1.00  0.00    -0.280 OA 
HETATM   25  H   UNL     3     -10.099  16.475  67.042  1.00  0.00     0.000 HD 
BRANCH  23  26
HETATM   26  C   UNL     3     -10.001  14.614  68.417  1.00  0.00    -0.227 C  
HETATM   27  O   UNL     3      -9.464  13.386  68.843  1.00  0.00    -0.403 OA 
HETATM   28  H   UNL     3      -9.630  13.372  69.778  1.00  0.00     0.000 HD 
BRANCH  26  29
HETATM   29  C   UNL     3     -11.434  14.676  69.138  1.00  0.00    -0.294 C  
HETATM   30  C   UNL     3     -11.958  13.488  69.896  1.00  0.00    -0.348 C  
HETATM   31  O   UNL     3     -12.456  15.001  68.220  1.00  0.00    -0.496 OA 
HETATM   32  O   UNL     3     -12.255  12.346  69.250  1.00  0.00    -0.195 OA 
HETATM   33  O   UNL     3     -12.264  13.608  71.072  1.00  0.00    -0.351 OA 
HETATM   34  H   UNL     3     -13.304  15.037  68.647  1.00  0.00     0.000 HD 
ENDBRANCH  26  29
ENDBRANCH  23  26
ENDBRANCH   3  23
BRANCH   3  35
HETATM   35  C   UNL     3     -10.887  12.293  66.138  1.00  0.00    -0.279 C  
HETATM   36  O   UNL     3     -12.230  12.586  66.387  1.00  0.00    -0.584 OA 
HETATM   37  H   UNL     3     -12.730  11.815  66.632  1.00  0.00     0.000 HD 
ENDBRANCH   3  35
TORSDOF 8
ENDMDL
MODEL       75
REMARK 921   NORMALIZED FREE ENERGY PREDICTED BY IDOCK:   -5.46 KCAL/MOL
REMARK 922        TOTAL FREE ENERGY PREDICTED BY IDOCK:   -9.68 KCAL/MOL
REMARK 923 INTER-LIGAND FREE ENERGY PREDICTED BY IDOCK:   -8.61 KCAL/MOL
REMARK 924 INTRA-LIGAND FREE ENERGY PREDICTED BY IDOCK:   -1.07 KCAL/MOL
REMARK 927      BINDING AFFINITY PREDICTED BY RF-SCORE:    0.00 PKD
ROOT
HETATM    1 MN   UNL     1      -9.458  13.316  64.992  1.00  0.00    -0.425 Mn 
HETATM    2  C   UNL     2      -9.452   6.637  68.923  1.00  0.00    -0.130 C  
HETATM    3  C   UNL     3     -11.184  15.204  64.605  1.00  0.00    -0.343 C  
HETATM    4  H   UNL     3     -11.543  16.882  63.696  1.00  0.00     0.000 HD 
HETATM    5  H   UNL     2      -9.411   7.216  67.100  1.00  0.00     0.000 HD 
HETATM    6  O   UNL     2      -9.287   6.382  67.537  1.00  0.00    -0.119 OA 
HETATM    7  O   UNL     3     -12.044  16.110  63.936  1.00  0.00    -0.956 OA 
ENDROOT
BRANCH   2   8
HETATM    8  C   UNL     2      -9.251   5.283  69.633  1.00  0.00    -0.118 C  
HETATM    9  H   UNL     2      -8.074   4.474  71.005  1.00  0.00     0.000 HD 
HETATM   10  O   UNL     2      -8.197   5.308  70.567  1.00  0.00    -0.103 OA 
ENDBRANCH   2   8
BRANCH   2  11
HETATM   11  C   UNL     2     -10.860   7.318  69.150  1.00  0.00    -0.136 C  
HETATM   12  H   UNL     2     -12.617   6.834  69.910  1.00  0.00     0.000 HD 
HETATM   13  O   UNL     2     -11.770   6.425  69.773  1.00  0.00    -0.414 OA 
BRANCH  11  14
HETATM   14  C   UNL     2     -10.856   8.633  69.997  1.00  0.00    -0.221 C  
HETATM   15  H   UNL     2      -9.533   9.660  70.940  1.00  0.00     0.000 HD 
HETATM   16  O   UNL     2      -9.535   8.862  70.425  1.00  0.00    -0.170 OA 
BRANCH  14  17
HETATM   17  C   UNL     2     -11.774   8.626  71.243  1.00  0.00    -0.289 C  
HETATM   18  C   UNL     2     -12.621   9.884  71.316  1.00  0.00    -0.381 C  
HETATM   19  H   UNL     2     -11.546   8.540  73.166  1.00  0.00     0.000 HD 
HETATM   20  O   UNL     2     -10.984   8.544  72.401  1.00  0.00    -0.357 OA 
HETATM   21  O   UNL     2     -13.512  10.034  72.311  1.00  0.00    -0.417 OA 
HETATM   22  O   UNL     2     -12.568  10.745  70.438  1.00  0.00    -0.331 OA 
ENDBRANCH  14  17
ENDBRANCH  11  14
ENDBRANCH   2  11
BRANCH   3  23
HETATM   23  C   UNL     3     -10.489  16.048  65.748  1.00  0.00    -0.374 C  
HETATM   24  O   UNL     3     -10.541  17.378  65.288  1.00  0.00    -0.667 OA 
HETATM   25  H   UNL     3     -10.123  17.885  65.975  1.00  0.00     0.000 HD 
BRANCH  23  26
HETATM   26  C   UNL     3     -10.807  16.121  67.311  1.00  0.00    -0.235 C  
HETATM   27  O   UNL     3      -9.794  16.947  67.829  1.00  0.00    -0.242 OA 
HETATM   28  H   UNL     3      -9.983  16.990  68.759  1.00  0.00     0.000 HD 
BRANCH  26  29
HETATM   29  C   UNL     3     -10.858  14.888  68.338  1.00  0.00    -0.251 C  
HETATM   30  C   UNL     3     -11.665  14.982  69.603  1.00  0.00    -0.321 C  
HETATM   31  O   UNL     3      -9.562  14.519  68.760  1.00  0.00    -0.210 OA 
HETATM   32  O   UNL     3     -11.323  15.859  70.564  1.00  0.00    -0.332 OA 
HETATM   33  O   UNL     3     -12.536  14.156  69.828  1.00  0.00    -0.332 OA 
HETATM   34  H   UNL     3      -9.593  13.790  69.368  1.00  0.00     0.000 HD 
ENDBRANCH  26  29
ENDBRANCH  23  26
ENDBRANCH   3  23
BRANCH   3  35
HETATM   35  C   UNL     3     -12.011  13.932  65.001  1.00  0.00    -0.390 C  
HETATM   36  O   UNL     3     -11.741  12.842  64.170  1.00  0.00    -0.345 OA 
HETATM   37  H   UNL     3     -12.242  12.071  64.410  1.00  0.00     0.000 HD 
ENDBRANCH   3  35
TORSDOF 8
ENDMDL
MODEL       76
REMARK 921   NORMALIZED FREE ENERGY PREDICTED BY IDOCK:   -5.44 KCAL/MOL
REMARK 922        TOTAL FREE ENERGY PREDICTED BY IDOCK:   -9.66 KCAL/MOL
REMARK 923 INTER-LIGAND FREE ENERGY PREDICTED BY IDOCK:   -7.43 KCAL/MOL
REMARK 924 INTRA-LIGAND FREE ENERGY PREDICTED BY IDOCK:   -2.24 KCAL/MOL
REMARK 927      BINDING AFFINITY PREDICTED BY RF-SCORE:    0.00 PKD
ROOT
HETATM    1 MN   UNL     1      -9.686  12.347  65.256  1.00  0.00    -0.240 Mn 
HETATM    2  C   UNL     2      -8.371   6.269  69.881  1.00  0.00    -0.129 C  
HETATM    3  C   UNL     3     -11.801  13.474  64.279  1.00  0.00    -0.428 C  
HETATM    4  H   UNL     3     -12.476  14.874  63.117  1.00  0.00     0.000 HD 
HETATM    5  H   UNL     2      -8.086   6.755  68.052  1.00  0.00     0.000 HD 
HETATM    6  O   UNL     2      -7.797   6.038  68.604  1.00  0.00    -0.097 OA 
HETATM    7  O   UNL     3     -12.728  13.985  63.336  1.00  0.00    -0.796 OA 
ENDROOT
BRANCH   2   8
HETATM    8  C   UNL     2      -7.902   5.106  70.777  1.00  0.00    -0.088 C  
HETATM    9  H   UNL     2      -7.293   4.803  72.637  1.00  0.00     0.000 HD 
HETATM   10  O   UNL     2      -7.582   5.520  72.085  1.00  0.00    -0.096 OA 
ENDBRANCH   2   8
BRANCH   2  11
HETATM   11  C   UNL     2      -9.936   6.408  69.715  1.00  0.00    -0.166 C  
HETATM   12  H   UNL     2     -11.447   5.303  69.086  1.00  0.00     0.000 HD 
HETATM   13  O   UNL     2     -10.506   5.221  69.185  1.00  0.00    -0.219 OA 
BRANCH  11  14
HETATM   14  C   UNL     2     -10.735   6.758  71.014  1.00  0.00    -0.231 C  
HETATM   15  H   UNL     2     -11.900   5.807  72.212  1.00  0.00     0.000 HD 
HETATM   16  O   UNL     2     -11.415   5.595  71.424  1.00  0.00    -0.125 OA 
BRANCH  14  17
HETATM   17  C   UNL     2     -11.770   7.899  70.874  1.00  0.00    -0.257 C  
HETATM   18  C   UNL     2     -11.190   9.232  71.316  1.00  0.00    -0.355 C  
HETATM   19  H   UNL     2     -13.528   8.308  71.581  1.00  0.00     0.000 HD 
HETATM   20  O   UNL     2     -12.892   7.608  71.667  1.00  0.00    -0.330 OA 
HETATM   21  O   UNL     2     -11.933  10.347  71.225  1.00  0.00    -0.358 OA 
HETATM   22  O   UNL     2     -10.022   9.331  71.689  1.00  0.00    -0.294 OA 
ENDBRANCH  14  17
ENDBRANCH  11  14
ENDBRANCH   2  11
BRANCH   3  23
HETATM   23  C   UNL     3     -11.735  14.553  65.433  1.00  0.00    -0.354 C  
HETATM   24  O   UNL     3     -12.736  14.160  66.344  1.00  0.00    -0.529 OA 
HETATM   25  H   UNL     3     -12.696  14.809  67.037  1.00  0.00     0.000 HD 
BRANCH  23  26
HETATM   26  C   UNL     3     -10.502  15.028  66.328  1.00  0.00    -0.304 C  
HETATM   27  O   UNL     3      -9.381  14.827  65.503  1.00  0.00    -0.483 OA 
HETATM   28  H   UNL     3      -8.647  15.109  66.035  1.00  0.00     0.000 HD 
BRANCH  26  29
HETATM   29  C   UNL     3     -10.050  14.415  67.741  1.00  0.00    -0.226 C  
HETATM   30  C   UNL     3      -8.693  14.725  68.309  1.00  0.00    -0.170 C  
HETATM   31  O   UNL     3     -10.128  13.005  67.736  1.00  0.00    -0.219 OA 
HETATM   32  O   UNL     3      -7.581  14.294  67.688  1.00  0.00    -0.146 OA 
HETATM   33  O   UNL     3      -8.602  15.233  69.416  1.00  0.00    -0.238 OA 
HETATM   34  H   UNL     3      -9.860  12.643  68.573  1.00  0.00     0.000 HD 
ENDBRANCH  26  29
ENDBRANCH  23  26
ENDBRANCH   3  23
BRANCH   3  35
HETATM   35  C   UNL     3     -12.217  12.006  64.641  1.00  0.00    -0.205 C  
HETATM   36  O   UNL     3     -11.815  11.640  65.928  1.00  0.00    -0.342 OA 
HETATM   37  H   UNL     3     -12.067  10.750  66.148  1.00  0.00     0.000 HD 
ENDBRANCH   3  35
TORSDOF 8
ENDMDL
MODEL       77
REMARK 921   NORMALIZED FREE ENERGY PREDICTED BY IDOCK:   -5.44 KCAL/MOL
REMARK 922        TOTAL FREE ENERGY PREDICTED BY IDOCK:   -9.66 KCAL/MOL
REMARK 923 INTER-LIGAND FREE ENERGY PREDICTED BY IDOCK:   -8.56 KCAL/MOL
REMARK 924 INTRA-LIGAND FREE ENERGY PREDICTED BY IDOCK:   -1.10 KCAL/MOL
REMARK 927      BINDING AFFINITY PREDICTED BY RF-SCORE:    0.00 PKD
ROOT
HETATM    1 MN   UNL     1     -10.339  12.273  64.202  1.00  0.00    -0.252 Mn 
HETATM    2  C   UNL     2      -9.595   5.867  68.500  1.00  0.00    -0.123 C  
HETATM    3  C   UNL     3     -11.908  14.330  64.249  1.00  0.00    -0.379 C  
HETATM    4  H   UNL     3     -12.401  15.986  63.364  1.00  0.00     0.000 HD 
HETATM    5  H   UNL     2     -10.135   6.336  66.725  1.00  0.00     0.000 HD 
HETATM    6  O   UNL     2      -9.946   5.518  67.171  1.00  0.00    -0.139 OA 
HETATM    7  O   UNL     3     -12.858  15.295  63.830  1.00  0.00    -0.637 OA 
ENDROOT
BRANCH   2   8
HETATM    8  C   UNL     2      -9.288   4.540  69.222  1.00  0.00    -0.149 C  
HETATM    9  H   UNL     2      -8.469   2.780  68.832  1.00  0.00     0.000 HD 
HETATM   10  O   UNL     2      -8.658   3.597  68.387  1.00  0.00    -0.089 OA 
ENDBRANCH   2   8
BRANCH   2  11
HETATM   11  C   UNL     2     -10.766   6.723  69.126  1.00  0.00    -0.253 C  
HETATM   12  H   UNL     2     -12.068   6.568  70.603  1.00  0.00     0.000 HD 
HETATM   13  O   UNL     2     -11.364   6.054  70.226  1.00  0.00    -0.353 OA 
BRANCH  11  14
HETATM   14  C   UNL     2     -10.380   8.157  69.619  1.00  0.00    -0.221 C  
HETATM   15  H   UNL     2      -8.750   9.053  70.105  1.00  0.00     0.000 HD 
HETATM   16  O   UNL     2      -8.985   8.182  69.806  1.00  0.00    -0.142 OA 
BRANCH  14  17
HETATM   17  C   UNL     2     -11.053   8.614  70.934  1.00  0.00    -0.264 C  
HETATM   18  C   UNL     2     -11.808   9.919  70.749  1.00  0.00    -0.330 C  
HETATM   19  H   UNL     2     -10.482   9.077  72.728  1.00  0.00     0.000 HD 
HETATM   20  O   UNL     2     -10.069   8.796  71.921  1.00  0.00    -0.295 OA 
HETATM   21  O   UNL     2     -12.492  10.448  71.776  1.00  0.00    -0.390 OA 
HETATM   22  O   UNL     2     -11.872  10.471  69.651  1.00  0.00    -0.263 OA 
ENDBRANCH  14  17
ENDBRANCH  11  14
ENDBRANCH   2  11
BRANCH   3  23
HETATM   23  C   UNL     3     -10.784  15.146  65.005  1.00  0.00    -0.430 C  
HETATM   24  O   UNL     3     -10.842  16.436  64.443  1.00  0.00    -0.996 OA 
HETATM   25  H   UNL     3     -10.167  16.925  64.897  1.00  0.00     0.000 HD 
BRANCH  23  26
HETATM   26  C   UNL     3     -10.551  15.369  66.569  1.00  0.00    -0.306 C  
HETATM   27  O   UNL     3     -10.607  16.765  66.729  1.00  0.00    -0.288 OA 
HETATM   28  H   UNL     3     -10.468  16.898  67.659  1.00  0.00     0.000 HD 
BRANCH  26  29
HETATM   29  C   UNL     3      -9.257  14.940  67.417  1.00  0.00    -0.194 C  
HETATM   30  C   UNL     3      -8.369  15.983  68.035  1.00  0.00    -0.162 C  
HETATM   31  O   UNL     3      -8.389  14.130  66.653  1.00  0.00    -0.409 OA 
HETATM   32  O   UNL     3      -7.665  16.825  67.256  1.00  0.00    -0.156 OA 
HETATM   33  O   UNL     3      -8.163  15.967  69.238  1.00  0.00    -0.236 OA 
HETATM   34  H   UNL     3      -7.624  13.876  67.155  1.00  0.00     0.000 HD 
ENDBRANCH  26  29
ENDBRANCH  23  26
ENDBRANCH   3  23
BRANCH   3  35
HETATM   35  C   UNL     3     -12.660  13.190  65.018  1.00  0.00    -0.438 C  
HETATM   36  O   UNL     3     -12.956  12.099  64.197  1.00  0.00    -0.664 OA 
HETATM   37  H   UNL     3     -13.412  11.408  64.663  1.00  0.00     0.000 HD 
ENDBRANCH   3  35
TORSDOF 8
ENDMDL
MODEL       78
REMARK 921   NORMALIZED FREE ENERGY PREDICTED BY IDOCK:   -5.43 KCAL/MOL
REMARK 922        TOTAL FREE ENERGY PREDICTED BY IDOCK:   -9.65 KCAL/MOL
REMARK 923 INTER-LIGAND FREE ENERGY PREDICTED BY IDOCK:   -8.23 KCAL/MOL
REMARK 924 INTRA-LIGAND FREE ENERGY PREDICTED BY IDOCK:   -1.43 KCAL/MOL
REMARK 927      BINDING AFFINITY PREDICTED BY RF-SCORE:    0.00 PKD
ROOT
HETATM    1 MN   UNL     1      -9.821  10.296  71.027  1.00  0.00    -0.299 Mn 
HETATM    2  C   UNL     2      -8.543  16.496  66.557  1.00  0.00    -0.286 C  
HETATM    3  C   UNL     3     -11.915   8.937  71.708  1.00  0.00    -0.359 C  
HETATM    4  H   UNL     3     -12.589   7.466  72.781  1.00  0.00     0.000 HD 
HETATM    5  H   UNL     2      -8.469  16.040  68.414  1.00  0.00     0.000 HD 
HETATM    6  O   UNL     2      -8.186  16.786  67.899  1.00  0.00    -0.181 OA 
HETATM    7  O   UNL     3     -12.904   8.323  72.517  1.00  0.00    -0.262 OA 
ENDROOT
BRANCH   2   8
HETATM    8  C   UNL     2      -8.084  17.707  65.722  1.00  0.00     0.168 C  
HETATM    9  H   UNL     2      -6.472  18.834  65.483  1.00  0.00     0.000 HD 
HETATM   10  O   UNL     2      -6.756  18.088  65.998  1.00  0.00    -0.236 OA 
ENDBRANCH   2   8
BRANCH   2  11
HETATM   11  C   UNL     2     -10.091  16.183  66.500  1.00  0.00    -0.291 C  
HETATM   12  H   UNL     2     -11.787  17.088  66.950  1.00  0.00     0.000 HD 
HETATM   13  O   UNL     2     -10.857  17.276  66.984  1.00  0.00    -0.202 OA 
BRANCH  11  14
HETATM   14  C   UNL     2     -10.664  15.811  65.093  1.00  0.00    -0.435 C  
HETATM   15  H   UNL     2     -11.544  16.758  63.670  1.00  0.00     0.000 HD 
HETATM   16  O   UNL     2     -11.196  16.983  64.525  1.00  0.00    -1.091 OA 
BRANCH  14  17
HETATM   17  C   UNL     2     -11.768  14.727  65.087  1.00  0.00    -0.337 C  
HETATM   18  C   UNL     2     -11.187  13.343  64.858  1.00  0.00    -0.331 C  
HETATM   19  H   UNL     2     -13.366  14.342  64.060  1.00  0.00     0.000 HD 
HETATM   20  O   UNL     2     -12.689  15.007  64.064  1.00  0.00    -0.772 OA 
HETATM   21  O   UNL     2     -11.994  12.269  64.863  1.00  0.00    -0.381 OA 
HETATM   22  O   UNL     2      -9.974  13.168  64.740  1.00  0.00    -0.237 OA 
ENDBRANCH  14  17
ENDBRANCH  11  14
ENDBRANCH   2  11
BRANCH   3  23
HETATM   23  C   UNL     3     -11.566   7.875  70.590  1.00  0.00    -0.204 C  
HETATM   24  O   UNL     3     -11.198   8.647  69.470  1.00  0.00    -0.442 OA 
HETATM   25  H   UNL     3     -10.989   8.009  68.798  1.00  0.00     0.000 HD 
BRANCH  23  26
HETATM   26  C   UNL     3     -10.544   6.648  70.619  1.00  0.00    -0.227 C  
HETATM   27  O   UNL     3      -9.407   7.164  71.266  1.00  0.00    -0.156 OA 
HETATM   28  H   UNL     3      -8.799   6.434  71.283  1.00  0.00     0.000 HD 
BRANCH  26  29
HETATM   29  C   UNL     3      -9.943   5.870  69.351  1.00  0.00    -0.178 C  
HETATM   30  C   UNL     3      -8.686   6.355  68.684  1.00  0.00    -0.122 C  
HETATM   31  O   UNL     3     -10.892   5.776  68.310  1.00  0.00    -0.241 OA 
HETATM   32  O   UNL     3      -8.665   7.543  68.053  1.00  0.00    -0.122 OA 
HETATM   33  O   UNL     3      -7.728   5.604  68.579  1.00  0.00    -0.086 OA 
HETATM   34  H   UNL     3     -10.536   5.315  67.559  1.00  0.00     0.000 HD 
ENDBRANCH  26  29
ENDBRANCH  23  26
ENDBRANCH   3  23
BRANCH   3  35
HETATM   35  C   UNL     3     -12.435  10.350  71.272  1.00  0.00    -0.415 C  
HETATM   36  O   UNL     3     -13.392  10.276  70.256  1.00  0.00    -0.502 OA 
HETATM   37  H   UNL     3     -13.707  11.132  69.992  1.00  0.00     0.000 HD 
ENDBRANCH   3  35
TORSDOF 8
ENDMDL
MODEL       79
REMARK 921   NORMALIZED FREE ENERGY PREDICTED BY IDOCK:   -5.43 KCAL/MOL
REMARK 922        TOTAL FREE ENERGY PREDICTED BY IDOCK:   -9.65 KCAL/MOL
REMARK 923 INTER-LIGAND FREE ENERGY PREDICTED BY IDOCK:   -8.11 KCAL/MOL
REMARK 924 INTRA-LIGAND FREE ENERGY PREDICTED BY IDOCK:   -1.54 KCAL/MOL
REMARK 927      BINDING AFFINITY PREDICTED BY RF-SCORE:    0.00 PKD
ROOT
HETATM    1 MN   UNL     1      -9.326  12.128  63.893  1.00  0.00    -0.370 Mn 
HETATM    2  C   UNL     2      -7.243   5.022  66.179  1.00  0.00    -0.077 C  
HETATM    3  C   UNL     3     -11.550  13.449  63.840  1.00  0.00    -0.354 C  
HETATM    4  H   UNL     3     -12.413  15.108  63.319  1.00  0.00     0.000 HD 
HETATM    5  H   UNL     2      -7.397   6.003  64.544  1.00  0.00     0.000 HD 
HETATM    6  O   UNL     2      -7.021   5.165  64.785  1.00  0.00    -0.048 OA 
HETATM    7  O   UNL     3     -12.652  14.189  63.343  1.00  0.00    -0.818 OA 
ENDROOT
BRANCH   2   8
HETATM    8  C   UNL     2      -6.631   3.662  66.571  1.00  0.00    -0.041 C  
HETATM    9  H   UNL     2      -5.272   2.936  67.816  1.00  0.00     0.000 HD 
HETATM   10  O   UNL     2      -5.649   3.774  67.574  1.00  0.00    -0.019 OA 
ENDBRANCH   2   8
BRANCH   2  11
HETATM   11  C   UNL     2      -8.789   5.176  66.465  1.00  0.00    -0.117 C  
HETATM   12  H   UNL     2     -10.358   4.004  66.712  1.00  0.00     0.000 HD 
HETATM   13  O   UNL     2      -9.429   3.912  66.540  1.00  0.00    -0.175 OA 
BRANCH  11  14
HETATM   14  C   UNL     2      -9.170   5.959  67.765  1.00  0.00    -0.108 C  
HETATM   15  H   UNL     2      -8.512   7.518  68.676  1.00  0.00     0.000 HD 
HETATM   16  O   UNL     2      -8.281   7.043  67.887  1.00  0.00    -0.114 OA 
BRANCH  14  17
HETATM   17  C   UNL     2      -9.118   5.140  69.076  1.00  0.00    -0.106 C  
HETATM   18  C   UNL     2     -10.092   5.682  70.109  1.00  0.00    -0.227 C  
HETATM   19  H   UNL     2      -7.786   4.693  70.412  1.00  0.00     0.000 HD 
HETATM   20  O   UNL     2      -7.819   5.195  69.607  1.00  0.00    -0.070 OA 
HETATM   21  O   UNL     2     -10.215   5.069  71.298  1.00  0.00    -0.204 OA 
HETATM   22  O   UNL     2     -10.833   6.631  69.855  1.00  0.00    -0.234 OA 
ENDBRANCH  14  17
ENDBRANCH  11  14
ENDBRANCH   2  11
BRANCH   3  23
HETATM   23  C   UNL     3     -11.135  14.164  65.188  1.00  0.00    -0.348 C  
HETATM   24  O   UNL     3      -9.794  13.786  65.392  1.00  0.00    -0.496 OA 
HETATM   25  H   UNL     3      -9.545  14.215  66.202  1.00  0.00     0.000 HD 
BRANCH  23  26
HETATM   26  C   UNL     3     -11.214  15.704  65.602  1.00  0.00    -0.106 C  
HETATM   27  O   UNL     3     -11.272  16.388  64.374  1.00  0.00    -1.009 OA 
HETATM   28  H   UNL     3     -11.319  17.304  64.620  1.00  0.00     0.000 HD 
BRANCH  26  29
HETATM   29  C   UNL     3     -10.126  16.527  66.447  1.00  0.00    -0.312 C  
HETATM   30  C   UNL     3     -10.279  18.009  66.650  1.00  0.00    -0.373 C  
HETATM   31  O   UNL     3      -8.831  16.366  65.909  1.00  0.00    -0.432 OA 
HETATM   32  O   UNL     3     -10.205  18.850  65.603  1.00  0.00    -0.504 OA 
HETATM   33  O   UNL     3     -10.315  18.464  67.782  1.00  0.00    -0.368 OA 
HETATM   34  H   UNL     3      -8.187  16.854  66.409  1.00  0.00     0.000 HD 
ENDBRANCH  26  29
ENDBRANCH  23  26
ENDBRANCH   3  23
BRANCH   3  35
HETATM   35  C   UNL     3     -11.944  11.932  63.879  1.00  0.00    -0.402 C  
HETATM   36  O   UNL     3     -11.549  11.249  62.727  1.00  0.00    -0.675 OA 
HETATM   37  H   UNL     3     -11.789  10.329  62.751  1.00  0.00     0.000 HD 
ENDBRANCH   3  35
TORSDOF 8
ENDMDL
MODEL       80
REMARK 921   NORMALIZED FREE ENERGY PREDICTED BY IDOCK:   -5.39 KCAL/MOL
REMARK 922        TOTAL FREE ENERGY PREDICTED BY IDOCK:   -9.59 KCAL/MOL
REMARK 923 INTER-LIGAND FREE ENERGY PREDICTED BY IDOCK:   -8.09 KCAL/MOL
REMARK 924 INTRA-LIGAND FREE ENERGY PREDICTED BY IDOCK:   -1.50 KCAL/MOL
REMARK 927      BINDING AFFINITY PREDICTED BY RF-SCORE:    0.00 PKD
ROOT
HETATM    1 MN   UNL     1     -11.725  10.013  67.400  1.00  0.00    -0.357 Mn 
HETATM    2  C   UNL     2     -10.404  17.547  66.151  1.00  0.00    -0.329 C  
HETATM    3  C   UNL     3     -10.276   8.007  68.154  1.00  0.00    -0.207 C  
HETATM    4  H   UNL     3     -10.243   6.096  68.496  1.00  0.00     0.000 HD 
HETATM    5  H   UNL     2     -10.837  15.989  65.129  1.00  0.00     0.000 HD 
HETATM    6  O   UNL     2     -10.802  16.920  64.943  1.00  0.00    -0.715 OA 
HETATM    7  O   UNL     3      -9.639   6.740  68.144  1.00  0.00    -0.124 OA 
ENDROOT
BRANCH   2   8
HETATM    8  C   UNL     2     -10.348  19.058  65.850  1.00  0.00    -0.371 C  
HETATM    9  H   UNL     2     -11.057  20.756  66.581  1.00  0.00     0.000 HD 
HETATM   10  O   UNL     2     -11.092  19.825  66.767  1.00  0.00    -0.354 OA 
ENDBRANCH   2   8
BRANCH   2  11
HETATM   11  C   UNL     2      -9.045  16.902  66.634  1.00  0.00    -0.255 C  
HETATM   12  H   UNL     2      -7.144  16.916  66.099  1.00  0.00     0.000 HD 
HETATM   13  O   UNL     2      -7.962  17.303  65.808  1.00  0.00    -0.511 OA 
BRANCH  11  14
HETATM   14  C   UNL     2      -8.630  17.205  68.112  1.00  0.00    -0.232 C  
HETATM   15  H   UNL     2      -9.521  17.230  69.815  1.00  0.00     0.000 HD 
HETATM   16  O   UNL     2      -9.773  17.047  68.917  1.00  0.00    -0.264 OA 
BRANCH  14  17
HETATM   17  C   UNL     2      -8.050  18.616  68.366  1.00  0.00    -0.333 C  
HETATM   18  C   UNL     2      -6.766  18.553  69.175  1.00  0.00    -0.263 C  
HETATM   19  H   UNL     2      -8.636  20.252  69.227  1.00  0.00     0.000 HD 
HETATM   20  O   UNL     2      -8.992  19.385  69.071  1.00  0.00    -0.349 OA 
HETATM   21  O   UNL     2      -6.096  19.682  69.457  1.00  0.00    -0.262 OA 
HETATM   22  O   UNL     2      -6.277  17.477  69.518  1.00  0.00    -0.238 OA 
ENDBRANCH  14  17
ENDBRANCH  11  14
ENDBRANCH   2  11
BRANCH   3  23
HETATM   23  C   UNL     3     -10.817   8.195  69.628  1.00  0.00    -0.158 C  
HETATM   24  O   UNL     3     -11.770   7.170  69.790  1.00  0.00    -0.536 OA 
HETATM   25  H   UNL     3     -12.094   7.284  70.675  1.00  0.00     0.000 HD 
BRANCH  23  26
HETATM   26  C   UNL     3     -10.025   8.267  71.013  1.00  0.00    -0.187 C  
HETATM   27  O   UNL     3      -9.072   7.238  70.918  1.00  0.00    -0.150 OA 
HETATM   28  H   UNL     3      -8.601   7.280  71.742  1.00  0.00     0.000 HD 
BRANCH  26  29
HETATM   29  C   UNL     3     -10.644   8.082  72.482  1.00  0.00    -0.329 C  
HETATM   30  C   UNL     3     -10.684   6.725  73.128  1.00  0.00    -0.296 C  
HETATM   31  O   UNL     3     -11.974   8.551  72.540  1.00  0.00    -0.389 OA 
HETATM   32  O   UNL     3     -11.446   5.746  72.607  1.00  0.00    -0.296 OA 
HETATM   33  O   UNL     3     -10.148   6.555  74.212  1.00  0.00    -0.306 OA 
HETATM   34  H   UNL     3     -12.341   8.440  73.410  1.00  0.00     0.000 HD 
ENDBRANCH  26  29
ENDBRANCH  23  26
ENDBRANCH   3  23
BRANCH   3  35
HETATM   35  C   UNL     3      -9.280   9.070  67.573  1.00  0.00    -0.135 C  
HETATM   36  O   UNL     3      -9.471  10.337  68.129  1.00  0.00    -0.144 OA 
HETATM   37  H   UNL     3      -8.867  10.982  67.777  1.00  0.00     0.000 HD 
ENDBRANCH   3  35
TORSDOF 8
ENDMDL
MODEL       81
REMARK 921   NORMALIZED FREE ENERGY PREDICTED BY IDOCK:   -5.36 KCAL/MOL
REMARK 922        TOTAL FREE ENERGY PREDICTED BY IDOCK:   -9.54 KCAL/MOL
REMARK 923 INTER-LIGAND FREE ENERGY PREDICTED BY IDOCK:   -6.97 KCAL/MOL
REMARK 924 INTRA-LIGAND FREE ENERGY PREDICTED BY IDOCK:   -2.57 KCAL/MOL
REMARK 927      BINDING AFFINITY PREDICTED BY RF-SCORE:    0.00 PKD
ROOT
HETATM    1 MN   UNL     1     -10.304  14.590  68.911  1.00  0.00    -0.193 Mn 
HETATM    2  C   UNL     2      -9.061   7.553  71.909  1.00  0.00    -0.129 C  
HETATM    3  C   UNL     3      -9.655  15.775  66.704  1.00  0.00    -0.247 C  
HETATM    4  H   UNL     3      -9.727  17.433  65.697  1.00  0.00     0.000 HD 
HETATM    5  H   UNL     2      -8.532   9.360  72.251  1.00  0.00     0.000 HD 
HETATM    6  O   UNL     2      -8.447   8.540  72.723  1.00  0.00    -0.336 OA 
HETATM    7  O   UNL     3      -9.101  16.727  65.813  1.00  0.00    -0.515 OA 
ENDROOT
BRANCH   2   8
HETATM    8  C   UNL     2      -8.923   6.222  72.675  1.00  0.00    -0.129 C  
HETATM    9  H   UNL     2     -10.075   4.756  73.345  1.00  0.00     0.000 HD 
HETATM   10  O   UNL     2     -10.160   5.577  72.873  1.00  0.00    -0.170 OA 
ENDBRANCH   2   8
BRANCH   2  11
HETATM   11  C   UNL     2      -8.388   7.584  70.480  1.00  0.00    -0.131 C  
HETATM   12  H   UNL     2      -8.049   6.331  68.991  1.00  0.00     0.000 HD 
HETATM   13  O   UNL     2      -8.453   6.313  69.851  1.00  0.00    -0.126 OA 
BRANCH  11  14
HETATM   14  C   UNL     2      -8.973   8.624  69.469  1.00  0.00    -0.145 C  
HETATM   15  H   UNL     2     -10.519   9.765  69.407  1.00  0.00     0.000 HD 
HETATM   16  O   UNL     2     -10.164   9.133  70.021  1.00  0.00    -0.185 OA 
BRANCH  14  17
HETATM   17  C   UNL     2      -9.289   8.078  68.057  1.00  0.00    -0.138 C  
HETATM   18  C   UNL     2      -8.757   8.999  66.973  1.00  0.00    -0.116 C  
HETATM   19  H   UNL     2     -10.875   7.622  67.039  1.00  0.00     0.000 HD 
HETATM   20  O   UNL     2     -10.680   7.957  67.906  1.00  0.00    -0.177 OA 
HETATM   21  O   UNL     2      -8.902   8.664  65.679  1.00  0.00    -0.175 OA 
HETATM   22  O   UNL     2      -8.124  10.018  67.250  1.00  0.00    -0.113 OA 
ENDBRANCH  14  17
ENDBRANCH  11  14
ENDBRANCH   2  11
BRANCH   3  23
HETATM   23  C   UNL     3     -11.086  15.436  66.124  1.00  0.00    -0.230 C  
HETATM   24  O   UNL     3     -10.884  15.298  64.737  1.00  0.00    -0.522 OA 
HETATM   25  H   UNL     3     -11.744  15.095  64.389  1.00  0.00     0.000 HD 
BRANCH  23  26
HETATM   26  C   UNL     3     -12.112  14.280  66.525  1.00  0.00    -0.429 C  
HETATM   27  O   UNL     3     -12.399  14.530  67.879  1.00  0.00    -0.615 OA 
HETATM   28  H   UNL     3     -13.009  13.842  68.118  1.00  0.00     0.000 HD 
BRANCH  26  29
HETATM   29  C   UNL     3     -11.841  12.699  66.477  1.00  0.00    -0.396 C  
HETATM   30  C   UNL     3     -11.475  11.949  67.728  1.00  0.00    -0.319 C  
HETATM   31  O   UNL     3     -10.823  12.381  65.552  1.00  0.00    -0.267 OA 
HETATM   32  O   UNL     3     -10.312  12.200  68.355  1.00  0.00    -0.219 OA 
HETATM   33  O   UNL     3     -12.159  11.004  68.088  1.00  0.00    -0.610 OA 
HETATM   34  H   UNL     3     -10.663  11.445  65.524  1.00  0.00     0.000 HD 
ENDBRANCH  26  29
ENDBRANCH  23  26
ENDBRANCH   3  23
BRANCH   3  35
HETATM   35  C   UNL     3      -8.622  14.610  66.894  1.00  0.00    -0.204 C  
HETATM   36  O   UNL     3      -8.219  14.468  68.225  1.00  0.00    -0.134 OA 
HETATM   37  H   UNL     3      -7.593  13.762  68.340  1.00  0.00     0.000 HD 
ENDBRANCH   3  35
TORSDOF 8
ENDMDL
MODEL       82
REMARK 921   NORMALIZED FREE ENERGY PREDICTED BY IDOCK:   -5.35 KCAL/MOL
REMARK 922        TOTAL FREE ENERGY PREDICTED BY IDOCK:   -9.53 KCAL/MOL
REMARK 923 INTER-LIGAND FREE ENERGY PREDICTED BY IDOCK:   -7.05 KCAL/MOL
REMARK 924 INTRA-LIGAND FREE ENERGY PREDICTED BY IDOCK:   -2.48 KCAL/MOL
REMARK 927      BINDING AFFINITY PREDICTED BY RF-SCORE:    0.00 PKD
ROOT
HETATM    1 MN   UNL     1     -12.852  13.593  69.411  1.00  0.00    -0.299 Mn 
HETATM    2  C   UNL     2      -9.780   6.668  67.778  1.00  0.00    -0.123 C  
HETATM    3  C   UNL     3     -13.343  14.904  71.587  1.00  0.00    -0.375 C  
HETATM    4  H   UNL     3     -14.106  16.522  72.342  1.00  0.00     0.000 HD 
HETATM    5  H   UNL     2     -11.484   7.531  67.667  1.00  0.00     0.000 HD 
HETATM    6  O   UNL     2     -11.129   6.713  67.341  1.00  0.00    -0.346 OA 
HETATM    7  O   UNL     3     -14.055  15.606  72.591  1.00  0.00    -0.564 OA 
ENDROOT
BRANCH   2   8
HETATM    8  C   UNL     2      -9.205   5.339  67.248  1.00  0.00    -0.113 C  
HETATM    9  H   UNL     2      -9.842   3.546  66.700  1.00  0.00     0.000 HD 
HETATM   10  O   UNL     2     -10.197   4.364  67.027  1.00  0.00    -0.158 OA 
ENDBRANCH   2   8
BRANCH   2  11
HETATM   11  C   UNL     2      -9.750   6.840  69.348  1.00  0.00    -0.152 C  
HETATM   12  H   UNL     2      -8.746   6.111  70.884  1.00  0.00     0.000 HD 
HETATM   13  O   UNL     2      -8.765   6.007  69.939  1.00  0.00    -0.128 OA 
BRANCH  11  14
HETATM   14  C   UNL     2      -9.496   8.292  69.873  1.00  0.00    -0.167 C  
HETATM   15  H   UNL     2     -10.588   9.824  70.267  1.00  0.00     0.000 HD 
HETATM   16  O   UNL     2     -10.742   8.942  69.948  1.00  0.00    -0.225 OA 
BRANCH  14  17
HETATM   17  C   UNL     2      -8.550   9.158  69.009  1.00  0.00    -0.133 C  
HETATM   18  C   UNL     2      -7.416   9.738  69.837  1.00  0.00    -0.141 C  
HETATM   19  H   UNL     2      -8.698  10.745  67.906  1.00  0.00     0.000 HD 
HETATM   20  O   UNL     2      -9.279  10.213  68.436  1.00  0.00    -0.128 OA 
HETATM   21  O   UNL     2      -6.469  10.485  69.245  1.00  0.00    -0.046 OA 
HETATM   22  O   UNL     2      -7.298   9.479  71.034  1.00  0.00    -0.283 OA 
ENDBRANCH  14  17
ENDBRANCH  11  14
ENDBRANCH   2  11
BRANCH   3  23
HETATM   23  C   UNL     3     -12.000  15.713  71.379  1.00  0.00    -0.418 C  
HETATM   24  O   UNL     3     -11.043  15.014  72.141  1.00  0.00    -0.491 OA 
HETATM   25  H   UNL     3     -10.237  15.500  72.017  1.00  0.00     0.000 HD 
BRANCH  23  26
HETATM   26  C   UNL     3     -11.251  16.136  70.034  1.00  0.00    -0.357 C  
HETATM   27  O   UNL     3     -12.290  16.529  69.172  1.00  0.00    -0.140 OA 
HETATM   28  H   UNL     3     -11.845  16.781  68.371  1.00  0.00     0.000 HD 
BRANCH  26  29
HETATM   29  C   UNL     3     -10.326  15.200  69.116  1.00  0.00    -0.249 C  
HETATM   30  C   UNL     3     -10.549  15.128  67.631  1.00  0.00    -0.263 C  
HETATM   31  O   UNL     3     -10.360  13.858  69.554  1.00  0.00    -0.423 OA 
HETATM   32  O   UNL     3     -11.686  14.605  67.139  1.00  0.00    -0.378 OA 
HETATM   33  O   UNL     3      -9.634  15.398  66.868  1.00  0.00    -0.215 OA 
HETATM   34  H   UNL     3      -9.813  13.304  69.010  1.00  0.00     0.000 HD 
ENDBRANCH  26  29
ENDBRANCH  23  26
ENDBRANCH   3  23
BRANCH   3  35
HETATM   35  C   UNL     3     -13.259  13.394  71.998  1.00  0.00    -0.438 C  
HETATM   36  O   UNL     3     -12.241  12.714  71.325  1.00  0.00    -0.295 OA 
HETATM   37  H   UNL     3     -12.190  11.798  71.574  1.00  0.00     0.000 HD 
ENDBRANCH   3  35
TORSDOF 8
ENDMDL
MODEL       83
REMARK 921   NORMALIZED FREE ENERGY PREDICTED BY IDOCK:   -5.35 KCAL/MOL
REMARK 922        TOTAL FREE ENERGY PREDICTED BY IDOCK:   -9.52 KCAL/MOL
REMARK 923 INTER-LIGAND FREE ENERGY PREDICTED BY IDOCK:   -7.61 KCAL/MOL
REMARK 924 INTRA-LIGAND FREE ENERGY PREDICTED BY IDOCK:   -1.91 KCAL/MOL
REMARK 927      BINDING AFFINITY PREDICTED BY RF-SCORE:    0.00 PKD
ROOT
HETATM    1 MN   UNL     1      -9.471   8.021  66.968  1.00  0.00    -0.131 Mn 
HETATM    2  C   UNL     2     -12.876  13.808  70.837  1.00  0.00    -0.271 C  
HETATM    3  C   UNL     3      -9.007   5.523  67.457  1.00  0.00    -0.107 C  
HETATM    4  H   UNL     3      -8.184   3.891  66.804  1.00  0.00     0.000 HD 
HETATM    5  H   UNL     2     -11.119  13.328  70.250  1.00  0.00     0.000 HD 
HETATM    6  O   UNL     2     -11.507  14.112  70.620  1.00  0.00    -0.171 OA 
HETATM    7  O   UNL     3      -8.302   4.308  67.649  1.00  0.00    -0.098 OA 
ENDROOT
BRANCH   2   8
HETATM    8  C   UNL     2     -13.506  15.081  71.438  1.00  0.00    -0.446 C  
HETATM    9  H   UNL     2     -12.992  16.593  72.609  1.00  0.00     0.000 HD 
HETATM   10  O   UNL     2     -12.605  15.809  72.239  1.00  0.00    -0.386 OA 
ENDBRANCH   2   8
BRANCH   2  11
HETATM   11  C   UNL     2     -12.972  12.515  71.740  1.00  0.00    -0.313 C  
HETATM   12  H   UNL     2     -14.187  11.767  73.105  1.00  0.00     0.000 HD 
HETATM   13  O   UNL     2     -14.128  12.545  72.563  1.00  0.00    -0.265 OA 
BRANCH  11  14
HETATM   14  C   UNL     2     -12.988  11.148  70.979  1.00  0.00    -0.245 C  
HETATM   15  H   UNL     2     -13.667   9.384  71.331  1.00  0.00     0.000 HD 
HETATM   16  O   UNL     2     -13.657  10.214  71.793  1.00  0.00    -0.309 OA 
BRANCH  14  17
HETATM   17  C   UNL     2     -11.600  10.568  70.619  1.00  0.00    -0.352 C  
HETATM   18  C   UNL     2     -11.387  10.529  69.116  1.00  0.00    -0.257 C  
HETATM   19  H   UNL     2     -10.644   8.907  70.905  1.00  0.00     0.000 HD 
HETATM   20  O   UNL     2     -11.496   9.263  71.126  1.00  0.00    -0.280 OA 
HETATM   21  O   UNL     2     -10.218  10.094  68.617  1.00  0.00    -0.162 OA 
HETATM   22  O   UNL     2     -12.237  10.958  68.336  1.00  0.00    -0.540 OA 
ENDBRANCH  14  17
ENDBRANCH  11  14
ENDBRANCH   2  11
BRANCH   3  23
HETATM   23  C   UNL     3     -10.286   5.139  66.611  1.00  0.00    -0.281 C  
HETATM   24  O   UNL     3     -11.079   6.304  66.618  1.00  0.00    -0.673 OA 
HETATM   25  H   UNL     3     -11.847   6.073  66.110  1.00  0.00     0.000 HD 
BRANCH  23  26
HETATM   26  C   UNL     3     -10.402   4.551  65.131  1.00  0.00    -0.117 C  
HETATM   27  O   UNL     3     -11.783   4.356  64.946  1.00  0.00    -0.979 OA 
HETATM   28  H   UNL     3     -11.852   4.006  64.066  1.00  0.00     0.000 HD 
BRANCH  26  29
HETATM   29  C   UNL     3      -9.748   3.190  64.586  1.00  0.00    -0.125 C  
HETATM   30  C   UNL     3     -10.337   2.483  63.397  1.00  0.00    -0.173 C  
HETATM   31  O   UNL     3      -9.689   2.209  65.600  1.00  0.00    -0.342 OA 
HETATM   32  O   UNL     3     -11.568   1.946  63.467  1.00  0.00    -0.197 OA 
HETATM   33  O   UNL     3      -9.640   2.259  62.421  1.00  0.00    -0.090 OA 
HETATM   34  H   UNL     3      -9.302   1.403  65.277  1.00  0.00     0.000 HD 
ENDBRANCH  26  29
ENDBRANCH  23  26
ENDBRANCH   3  23
BRANCH   3  35
HETATM   35  C   UNL     3      -9.202   6.211  68.852  1.00  0.00    -0.125 C  
HETATM   36  O   UNL     3     -10.272   7.110  68.857  1.00  0.00    -0.175 OA 
HETATM   37  H   UNL     3     -10.390   7.528  69.703  1.00  0.00     0.000 HD 
ENDBRANCH   3  35
TORSDOF 8
ENDMDL
MODEL       84
REMARK 921   NORMALIZED FREE ENERGY PREDICTED BY IDOCK:   -5.32 KCAL/MOL
REMARK 922        TOTAL FREE ENERGY PREDICTED BY IDOCK:   -9.48 KCAL/MOL
REMARK 923 INTER-LIGAND FREE ENERGY PREDICTED BY IDOCK:   -8.14 KCAL/MOL
REMARK 924 INTRA-LIGAND FREE ENERGY PREDICTED BY IDOCK:   -1.33 KCAL/MOL
REMARK 927      BINDING AFFINITY PREDICTED BY RF-SCORE:    0.00 PKD
ROOT
HETATM    1 MN   UNL     1      -8.798  11.070  70.011  1.00  0.00    -0.375 Mn 
HETATM    2  C   UNL     2      -9.920  17.898  66.523  1.00  0.00    -0.357 C  
HETATM    3  C   UNL     3      -9.794   8.697  69.742  1.00  0.00    -0.183 C  
HETATM    4  H   UNL     3      -9.807   6.880  70.425  1.00  0.00     0.000 HD 
HETATM    5  H   UNL     2     -10.233  17.106  68.236  1.00  0.00     0.000 HD 
HETATM    6  O   UNL     2     -10.280  17.990  67.892  1.00  0.00    -0.340 OA 
HETATM    7  O   UNL     3     -10.447   7.479  70.057  1.00  0.00    -0.217 OA 
ENDROOT
BRANCH   2   8
HETATM    8  C   UNL     2      -9.997  19.333  65.964  1.00  0.00    -0.337 C  
HETATM    9  H   UNL     2      -8.784  20.724  65.244  1.00  0.00     0.000 HD 
HETATM   10  O   UNL     2      -8.737  19.840  65.588  1.00  0.00    -0.338 OA 
ENDBRANCH   2   8
BRANCH   2  11
HETATM   11  C   UNL     2     -10.867  16.847  65.819  1.00  0.00    -0.060 C  
HETATM   12  H   UNL     2     -11.578  16.493  64.012  1.00  0.00     0.000 HD 
HETATM   13  O   UNL     2     -11.010  17.126  64.435  1.00  0.00    -0.917 OA 
BRANCH  11  14
HETATM   14  C   UNL     2     -10.437  15.348  65.942  1.00  0.00    -0.340 C  
HETATM   15  H   UNL     2      -8.775  14.383  65.880  1.00  0.00     0.000 HD 
HETATM   16  O   UNL     2      -9.037  15.293  65.805  1.00  0.00    -0.234 OA 
BRANCH  14  17
HETATM   17  C   UNL     2     -11.061  14.387  64.902  1.00  0.00    -0.398 C  
HETATM   18  C   UNL     2     -12.251  13.641  65.479  1.00  0.00    -0.443 C  
HETATM   19  H   UNL     2     -10.478  12.863  63.855  1.00  0.00     0.000 HD 
HETATM   20  O   UNL     2     -10.095  13.453  64.494  1.00  0.00    -0.341 OA 
HETATM   21  O   UNL     2     -12.948  12.792  64.706  1.00  0.00    -0.768 OA 
HETATM   22  O   UNL     2     -12.645  13.851  66.626  1.00  0.00    -0.351 OA 
ENDBRANCH  14  17
ENDBRANCH  11  14
ENDBRANCH   2  11
BRANCH   3  23
HETATM   23  C   UNL     3      -8.541   8.290  68.869  1.00  0.00    -0.132 C  
HETATM   24  O   UNL     3      -8.622   6.888  68.762  1.00  0.00    -0.124 OA 
HETATM   25  H   UNL     3      -7.869   6.644  68.237  1.00  0.00     0.000 HD 
BRANCH  23  26
HETATM   26  C   UNL     3      -8.079   8.804  67.429  1.00  0.00    -0.105 C  
HETATM   27  O   UNL     3      -8.217  10.202  67.503  1.00  0.00    -0.113 OA 
HETATM   28  H   UNL     3      -7.943  10.508  66.646  1.00  0.00     0.000 HD 
BRANCH  26  29
HETATM   29  C   UNL     3      -8.745   8.428  66.018  1.00  0.00    -0.157 C  
HETATM   30  C   UNL     3      -8.347   9.161  64.767  1.00  0.00    -0.169 C  
HETATM   31  O   UNL     3     -10.151   8.536  66.070  1.00  0.00    -0.473 OA 
HETATM   32  O   UNL     3      -8.624  10.470  64.628  1.00  0.00    -0.177 OA 
HETATM   33  O   UNL     3      -7.912   8.537  63.812  1.00  0.00    -0.147 OA 
HETATM   34  H   UNL     3     -10.545   8.314  65.234  1.00  0.00     0.000 HD 
ENDBRANCH  26  29
ENDBRANCH  23  26
ENDBRANCH   3  23
BRANCH   3  35
HETATM   35  C   UNL     3     -10.850   9.685  69.135  1.00  0.00    -0.190 C  
HETATM   36  O   UNL     3     -10.981  10.854  69.889  1.00  0.00    -0.358 OA 
HETATM   37  H   UNL     3     -11.620  11.452  69.521  1.00  0.00     0.000 HD 
ENDBRANCH   3  35
TORSDOF 8
ENDMDL
MODEL       85
REMARK 921   NORMALIZED FREE ENERGY PREDICTED BY IDOCK:   -5.31 KCAL/MOL
REMARK 922        TOTAL FREE ENERGY PREDICTED BY IDOCK:   -9.47 KCAL/MOL
REMARK 923 INTER-LIGAND FREE ENERGY PREDICTED BY IDOCK:   -7.54 KCAL/MOL
REMARK 924 INTRA-LIGAND FREE ENERGY PREDICTED BY IDOCK:   -1.93 KCAL/MOL
REMARK 927      BINDING AFFINITY PREDICTED BY RF-SCORE:    0.00 PKD
ROOT
HETATM    1 MN   UNL     1      -9.186  12.053  63.485  1.00  0.00    -0.363 Mn 
HETATM    2  C   UNL     2      -6.969   5.290  66.551  1.00  0.00    -0.064 C  
HETATM    3  C   UNL     3     -11.272  13.567  63.718  1.00  0.00     0.007 C  
HETATM    4  H   UNL     3     -12.149  15.187  63.107  1.00  0.00     0.000 HD 
HETATM    5  H   UNL     2      -7.491   5.976  64.843  1.00  0.00     0.000 HD 
HETATM    6  O   UNL     2      -7.111   5.160  65.146  1.00  0.00    -0.060 OA 
HETATM    7  O   UNL     3     -12.424  14.316  63.371  1.00  0.00    -0.761 OA 
ENDROOT
BRANCH   2   8
HETATM    8  C   UNL     2      -6.352   3.966  67.043  1.00  0.00    -0.040 C  
HETATM    9  H   UNL     2      -6.156   2.091  66.435  1.00  0.00     0.000 HD 
HETATM   10  O   UNL     2      -6.537   2.907  66.132  1.00  0.00    -0.031 OA 
ENDBRANCH   2   8
BRANCH   2  11
HETATM   11  C   UNL     2      -8.376   5.652  67.172  1.00  0.00    -0.104 C  
HETATM   12  H   UNL     2      -9.508   5.067  68.681  1.00  0.00     0.000 HD 
HETATM   13  O   UNL     2      -8.662   4.849  68.307  1.00  0.00    -0.101 OA 
BRANCH  11  14
HETATM   14  C   UNL     2      -8.572   7.142  67.605  1.00  0.00    -0.122 C  
HETATM   15  H   UNL     2      -9.327   8.048  69.123  1.00  0.00     0.000 HD 
HETATM   16  O   UNL     2      -9.208   7.143  68.860  1.00  0.00    -0.139 OA 
BRANCH  14  17
HETATM   17  C   UNL     2      -9.409   8.014  66.639  1.00  0.00    -0.197 C  
HETATM   18  C   UNL     2      -8.957   9.463  66.664  1.00  0.00    -0.146 C  
HETATM   19  H   UNL     2     -11.276   8.490  66.421  1.00  0.00     0.000 HD 
HETATM   20  O   UNL     2     -10.762   7.955  67.014  1.00  0.00    -0.339 OA 
HETATM   21  O   UNL     2      -9.543  10.361  65.854  1.00  0.00    -0.184 OA 
HETATM   22  O   UNL     2      -8.007   9.827  67.357  1.00  0.00    -0.102 OA 
ENDBRANCH  14  17
ENDBRANCH  11  14
ENDBRANCH   2  11
BRANCH   3  23
HETATM   23  C   UNL     3     -10.482  14.463  64.754  1.00  0.00    -0.367 C  
HETATM   24  O   UNL     3     -10.845  15.785  64.429  1.00  0.00    -0.794 OA 
HETATM   25  H   UNL     3     -10.370  16.323  65.051  1.00  0.00     0.000 HD 
BRANCH  23  26
HETATM   26  C   UNL     3     -10.450  14.407  66.349  1.00  0.00    -0.295 C  
HETATM   27  O   UNL     3      -9.699  13.253  66.637  1.00  0.00    -0.255 OA 
HETATM   28  H   UNL     3      -9.680  13.220  67.586  1.00  0.00     0.000 HD 
BRANCH  26  29
HETATM   29  C   UNL     3     -11.715  14.295  67.331  1.00  0.00    -0.394 C  
HETATM   30  C   UNL     3     -11.846  13.134  68.277  1.00  0.00    -0.349 C  
HETATM   31  O   UNL     3     -12.927  14.312  66.607  1.00  0.00    -0.299 OA 
HETATM   32  O   UNL     3     -12.014  11.886  67.804  1.00  0.00    -0.559 OA 
HETATM   33  O   UNL     3     -11.957  13.341  69.475  1.00  0.00    -0.307 OA 
HETATM   34  H   UNL     3     -13.676  14.245  67.188  1.00  0.00     0.000 HD 
ENDBRANCH  26  29
ENDBRANCH  23  26
ENDBRANCH   3  23
BRANCH   3  35
HETATM   35  C   UNL     3     -11.724  12.130  64.154  1.00  0.00    -0.396 C  
HETATM   36  O   UNL     3     -11.227  11.136  63.308  1.00  0.00    -0.775 OA 
HETATM   37  H   UNL     3     -11.501  10.265  63.572  1.00  0.00     0.000 HD 
ENDBRANCH   3  35
TORSDOF 8
ENDMDL
MODEL       86
REMARK 921   NORMALIZED FREE ENERGY PREDICTED BY IDOCK:   -5.31 KCAL/MOL
REMARK 922        TOTAL FREE ENERGY PREDICTED BY IDOCK:   -9.47 KCAL/MOL
REMARK 923 INTER-LIGAND FREE ENERGY PREDICTED BY IDOCK:   -9.14 KCAL/MOL
REMARK 924 INTRA-LIGAND FREE ENERGY PREDICTED BY IDOCK:   -0.32 KCAL/MOL
REMARK 927      BINDING AFFINITY PREDICTED BY RF-SCORE:    0.00 PKD
ROOT
HETATM    1 MN   UNL     1      -9.923  11.866  65.421  1.00  0.00    -0.213 Mn 
HETATM    2  C   UNL     2      -9.640   6.622  71.120  1.00  0.00    -0.170 C  
HETATM    3  C   UNL     3     -11.653  13.628  64.646  1.00  0.00    -0.371 C  
HETATM    4  H   UNL     3     -12.073  14.982  63.320  1.00  0.00     0.000 HD 
HETATM    5  H   UNL     2      -9.761   6.644  69.210  1.00  0.00     0.000 HD 
HETATM    6  O   UNL     2      -9.609   5.969  69.861  1.00  0.00    -0.154 OA 
HETATM    7  O   UNL     3     -12.560  14.334  63.817  1.00  0.00    -0.821 OA 
ENDROOT
BRANCH   2   8
HETATM    8  C   UNL     2      -9.392   5.526  72.175  1.00  0.00    -0.143 C  
HETATM    9  H   UNL     2      -8.137   5.132  73.656  1.00  0.00     0.000 HD 
HETATM   10  O   UNL     2      -8.290   5.807  73.005  1.00  0.00    -0.118 OA 
ENDBRANCH   2   8
BRANCH   2  11
HETATM   11  C   UNL     2     -11.012   7.395  71.256  1.00  0.00    -0.242 C  
HETATM   12  H   UNL     2     -11.982   8.428  72.631  1.00  0.00     0.000 HD 
HETATM   13  O   UNL     2     -11.157   7.963  72.549  1.00  0.00    -0.304 OA 
BRANCH  11  14
HETATM   14  C   UNL     2     -11.257   8.542  70.222  1.00  0.00    -0.179 C  
HETATM   15  H   UNL     2     -10.364   9.192  68.649  1.00  0.00     0.000 HD 
HETATM   16  O   UNL     2     -10.215   8.496  69.277  1.00  0.00    -0.198 OA 
BRANCH  14  17
HETATM   17  C   UNL     2     -11.311   9.971  70.811  1.00  0.00    -0.360 C  
HETATM   18  C   UNL     2     -12.711  10.326  71.281  1.00  0.00    -0.421 C  
HETATM   19  H   UNL     2     -10.949  11.772  70.191  1.00  0.00     0.000 HD 
HETATM   20  O   UNL     2     -10.916  10.894  69.829  1.00  0.00    -0.255 OA 
HETATM   21  O   UNL     2     -12.941  11.516  71.862  1.00  0.00    -0.440 OA 
HETATM   22  O   UNL     2     -13.636   9.516  71.212  1.00  0.00    -0.360 OA 
ENDBRANCH  14  17
ENDBRANCH  11  14
ENDBRANCH   2  11
BRANCH   3  23
HETATM   23  C   UNL     3     -10.844  14.738  65.428  1.00  0.00    -0.363 C  
HETATM   24  O   UNL     3      -9.495  14.488  65.106  1.00  0.00    -0.418 OA 
HETATM   25  H   UNL     3      -9.009  15.155  65.576  1.00  0.00     0.000 HD 
BRANCH  23  26
HETATM   26  C   UNL     3     -11.000  16.327  65.414  1.00  0.00    -0.197 C  
HETATM   27  O   UNL     3     -11.122  16.648  64.050  1.00  0.00    -1.338 OA 
HETATM   28  H   UNL     3     -11.215  17.593  64.042  1.00  0.00     0.000 HD 
BRANCH  26  29
HETATM   29  C   UNL     3      -9.942  17.400  65.967  1.00  0.00    -0.215 C  
HETATM   30  C   UNL     3      -9.744  17.584  67.445  1.00  0.00    -0.274 C  
HETATM   31  O   UNL     3     -10.220  18.693  65.473  1.00  0.00    -0.474 OA 
HETATM   32  O   UNL     3     -10.739  18.068  68.210  1.00  0.00    -0.323 OA 
HETATM   33  O   UNL     3      -8.631  17.444  67.929  1.00  0.00    -0.223 OA 
HETATM   34  H   UNL     3      -9.593  19.328  65.800  1.00  0.00     0.000 HD 
ENDBRANCH  26  29
ENDBRANCH  23  26
ENDBRANCH   3  23
BRANCH   3  35
HETATM   35  C   UNL     3     -12.456  12.559  65.466  1.00  0.00    -0.155 C  
HETATM   36  O   UNL     3     -12.323  12.736  66.846  1.00  0.00    -0.412 OA 
HETATM   37  H   UNL     3     -12.809  12.089  67.343  1.00  0.00     0.000 HD 
ENDBRANCH   3  35
TORSDOF 8
ENDMDL
MODEL       87
REMARK 921   NORMALIZED FREE ENERGY PREDICTED BY IDOCK:   -5.30 KCAL/MOL
REMARK 922        TOTAL FREE ENERGY PREDICTED BY IDOCK:   -9.45 KCAL/MOL
REMARK 923 INTER-LIGAND FREE ENERGY PREDICTED BY IDOCK:   -8.51 KCAL/MOL
REMARK 924 INTRA-LIGAND FREE ENERGY PREDICTED BY IDOCK:   -0.94 KCAL/MOL
REMARK 927      BINDING AFFINITY PREDICTED BY RF-SCORE:    0.00 PKD
ROOT
HETATM    1 MN   UNL     1     -11.891   8.214  69.007  1.00  0.00    -0.336 Mn 
HETATM    2  C   UNL     2     -10.958  15.109  65.595  1.00  0.00    -0.355 C  
HETATM    3  C   UNL     3     -10.889   7.060  71.095  1.00  0.00    -0.237 C  
HETATM    4  H   UNL     3     -10.836   5.434  72.153  1.00  0.00     0.000 HD 
HETATM    5  H   UNL     2     -10.573  13.272  65.222  1.00  0.00     0.000 HD 
HETATM    6  O   UNL     2     -10.546  14.075  64.715  1.00  0.00    -0.397 OA 
HETATM    7  O   UNL     3     -10.215   6.108  71.900  1.00  0.00    -0.195 OA 
ENDROOT
BRANCH   2   8
HETATM    8  C   UNL     2     -10.914  16.412  64.772  1.00  0.00    -0.231 C  
HETATM    9  H   UNL     2     -11.831  17.231  63.219  1.00  0.00     0.000 HD 
HETATM   10  O   UNL     2     -11.858  16.428  63.726  1.00  0.00    -1.002 OA 
ENDBRANCH   2   8
BRANCH   2  11
HETATM   11  C   UNL     2     -10.032  15.086  66.874  1.00  0.00    -0.244 C  
HETATM   12  H   UNL     2      -9.126  13.743  68.005  1.00  0.00     0.000 HD 
HETATM   13  O   UNL     2      -9.684  13.758  67.235  1.00  0.00    -0.231 OA 
BRANCH  11  14
HETATM   14  C   UNL     2      -8.698  15.896  66.770  1.00  0.00    -0.269 C  
HETATM   15  H   UNL     2      -6.832  15.515  67.030  1.00  0.00     0.000 HD 
HETATM   16  O   UNL     2      -7.642  15.024  67.093  1.00  0.00    -0.202 OA 
BRANCH  14  17
HETATM   17  C   UNL     2      -8.597  17.137  67.689  1.00  0.00    -0.212 C  
HETATM   18  C   UNL     2      -8.131  18.361  66.920  1.00  0.00    -0.245 C  
HETATM   19  H   UNL     2      -7.622  17.638  69.287  1.00  0.00     0.000 HD 
HETATM   20  O   UNL     2      -7.684  16.876  68.723  1.00  0.00    -0.227 OA 
HETATM   21  O   UNL     2      -8.026  19.545  67.547  1.00  0.00    -0.261 OA 
HETATM   22  O   UNL     2      -7.917  18.315  65.709  1.00  0.00    -0.513 OA 
ENDBRANCH  14  17
ENDBRANCH  11  14
ENDBRANCH   2  11
BRANCH   3  23
HETATM   23  C   UNL     3     -12.173   7.477  71.918  1.00  0.00    -0.306 C  
HETATM   24  O   UNL     3     -12.122   6.683  73.081  1.00  0.00    -0.075 OA 
HETATM   25  H   UNL     3     -12.893   6.933  73.575  1.00  0.00     0.000 HD 
BRANCH  23  26
HETATM   26  C   UNL     3     -12.661   8.917  72.403  1.00  0.00    -0.368 C  
HETATM   27  O   UNL     3     -13.702   8.640  73.307  1.00  0.00    -0.888 OA 
HETATM   28  H   UNL     3     -13.993   9.497  73.596  1.00  0.00     0.000 HD 
BRANCH  26  29
HETATM   29  C   UNL     3     -13.256  10.089  71.482  1.00  0.00    -0.401 C  
HETATM   30  C   UNL     3     -12.437  10.672  70.364  1.00  0.00    -0.338 C  
HETATM   31  O   UNL     3     -13.653  11.199  72.259  1.00  0.00    -0.543 OA 
HETATM   32  O   UNL     3     -11.312  11.359  70.632  1.00  0.00     0.024 OA 
HETATM   33  O   UNL     3     -12.873  10.657  69.224  1.00  0.00    -0.103 OA 
HETATM   34  H   UNL     3     -14.006  11.893  71.713  1.00  0.00     0.000 HD 
ENDBRANCH  26  29
ENDBRANCH  23  26
ENDBRANCH   3  23
BRANCH   3  35
HETATM   35  C   UNL     3      -9.865   8.172  70.677  1.00  0.00    -0.181 C  
HETATM   36  O   UNL     3      -9.881   8.422  69.303  1.00  0.00    -0.178 OA 
HETATM   37  H   UNL     3      -9.261   9.096  69.050  1.00  0.00     0.000 HD 
ENDBRANCH   3  35
TORSDOF 8
ENDMDL
MODEL       88
REMARK 921   NORMALIZED FREE ENERGY PREDICTED BY IDOCK:   -5.30 KCAL/MOL
REMARK 922        TOTAL FREE ENERGY PREDICTED BY IDOCK:   -9.45 KCAL/MOL
REMARK 923 INTER-LIGAND FREE ENERGY PREDICTED BY IDOCK:   -8.11 KCAL/MOL
REMARK 924 INTRA-LIGAND FREE ENERGY PREDICTED BY IDOCK:   -1.34 KCAL/MOL
REMARK 927      BINDING AFFINITY PREDICTED BY RF-SCORE:    0.00 PKD
ROOT
HETATM    1 MN   UNL     1     -11.774   9.534  67.898  1.00  0.00    -0.526 Mn 
HETATM    2  C   UNL     2      -9.099   3.795  72.367  1.00  0.00    -0.106 C  
HETATM    3  C   UNL     3     -11.704  12.118  68.010  1.00  0.00    -0.344 C  
HETATM    4  H   UNL     3     -12.275  13.772  67.168  1.00  0.00     0.000 HD 
HETATM    5  H   UNL     2     -10.789   4.532  71.856  1.00  0.00     0.000 HD 
HETATM    6  O   UNL     2     -10.516   3.747  72.316  1.00  0.00    -0.131 OA 
HETATM    7  O   UNL     3     -12.143  13.465  68.058  1.00  0.00    -0.342 OA 
ENDROOT
BRANCH   2   8
HETATM    8  C   UNL     2      -8.655   2.521  73.113  1.00  0.00    -0.071 C  
HETATM    9  H   UNL     2      -8.855   1.689  74.899  1.00  0.00     0.000 HD 
HETATM   10  O   UNL     2      -9.128   2.474  74.440  1.00  0.00    -0.076 OA 
ENDBRANCH   2   8
BRANCH   2  11
HETATM   11  C   UNL     2      -8.661   5.158  73.035  1.00  0.00    -0.114 C  
HETATM   12  H   UNL     2      -7.315   6.572  72.737  1.00  0.00     0.000 HD 
HETATM   13  O   UNL     2      -7.578   5.752  72.335  1.00  0.00    -0.098 OA 
BRANCH  11  14
HETATM   14  C   UNL     2      -9.776   6.248  73.163  1.00  0.00    -0.159 C  
HETATM   15  H   UNL     2     -11.276   6.554  74.325  1.00  0.00     0.000 HD 
HETATM   16  O   UNL     2     -10.599   5.893  74.247  1.00  0.00    -0.246 OA 
BRANCH  14  17
HETATM   17  C   UNL     2     -10.673   6.434  71.916  1.00  0.00    -0.224 C  
HETATM   18  C   UNL     2     -10.445   7.786  71.264  1.00  0.00    -0.206 C  
HETATM   19  H   UNL     2     -12.573   6.449  71.530  1.00  0.00     0.000 HD 
HETATM   20  O   UNL     2     -12.022   6.335  72.295  1.00  0.00    -0.312 OA 
HETATM   21  O   UNL     2     -11.109   8.108  70.140  1.00  0.00    -0.250 OA 
HETATM   22  O   UNL     2      -9.606   8.575  71.698  1.00  0.00    -0.198 OA 
ENDBRANCH  14  17
ENDBRANCH  11  14
ENDBRANCH   2  11
BRANCH   3  23
HETATM   23  C   UNL     3     -10.479  12.109  67.010  1.00  0.00    -0.220 C  
HETATM   24  O   UNL     3     -10.692  10.976  66.198  1.00  0.00    -0.253 OA 
HETATM   25  H   UNL     3      -9.956  10.971  65.598  1.00  0.00     0.000 HD 
BRANCH  23  26
HETATM   26  C   UNL     3      -9.946  13.247  66.026  1.00  0.00    -0.292 C  
HETATM   27  O   UNL     3     -10.049  14.429  66.781  1.00  0.00    -0.257 OA 
HETATM   28  H   UNL     3      -9.732  15.107  66.196  1.00  0.00     0.000 HD 
BRANCH  26  29
HETATM   29  C   UNL     3     -10.563  13.649  64.600  1.00  0.00    -0.430 C  
HETATM   30  C   UNL     3     -12.051  13.661  64.388  1.00  0.00    -0.427 C  
HETATM   31  O   UNL     3     -10.055  12.825  63.572  1.00  0.00    -0.632 OA 
HETATM   32  O   UNL     3     -12.755  12.516  64.448  1.00  0.00    -0.656 OA 
HETATM   33  O   UNL     3     -12.600  14.682  64.006  1.00  0.00    -0.819 OA 
HETATM   34  H   UNL     3     -10.421  13.063  62.728  1.00  0.00     0.000 HD 
ENDBRANCH  26  29
ENDBRANCH  23  26
ENDBRANCH   3  23
BRANCH   3  35
HETATM   35  C   UNL     3     -11.485  11.612  69.477  1.00  0.00    -0.304 C  
HETATM   36  O   UNL     3     -10.301  10.884  69.619  1.00  0.00    -0.415 OA 
HETATM   37  H   UNL     3     -10.169  10.577  70.509  1.00  0.00     0.000 HD 
ENDBRANCH   3  35
TORSDOF 8
ENDMDL
MODEL       89
REMARK 921   NORMALIZED FREE ENERGY PREDICTED BY IDOCK:   -5.28 KCAL/MOL
REMARK 922        TOTAL FREE ENERGY PREDICTED BY IDOCK:   -9.43 KCAL/MOL
REMARK 923 INTER-LIGAND FREE ENERGY PREDICTED BY IDOCK:   -7.73 KCAL/MOL
REMARK 924 INTRA-LIGAND FREE ENERGY PREDICTED BY IDOCK:   -1.70 KCAL/MOL
REMARK 927      BINDING AFFINITY PREDICTED BY RF-SCORE:    0.00 PKD
ROOT
HETATM    1 MN   UNL     1     -10.013  13.552  69.738  1.00  0.00    -0.394 Mn 
HETATM    2  C   UNL     2     -11.362   6.392  72.378  1.00  0.00    -0.287 C  
HETATM    3  C   UNL     3      -9.512  14.577  67.415  1.00  0.00    -0.202 C  
HETATM    4  H   UNL     3      -9.087  16.201  66.441  1.00  0.00     0.000 HD 
HETATM    5  H   UNL     2      -9.999   7.728  72.518  1.00  0.00     0.000 HD 
HETATM    6  O   UNL     2     -10.174   6.906  72.960  1.00  0.00    -0.186 OA 
HETATM    7  O   UNL     3      -8.846  15.284  66.383  1.00  0.00    -0.290 OA 
ENDROOT
BRANCH   2   8
HETATM    8  C   UNL     2     -11.646   5.058  73.097  1.00  0.00    -0.216 C  
HETATM    9  H   UNL     2     -10.870   3.939  74.535  1.00  0.00     0.000 HD 
HETATM   10  O   UNL     2     -10.695   4.761  74.092  1.00  0.00    -0.285 OA 
ENDBRANCH   2   8
BRANCH   2  11
HETATM   11  C   UNL     2     -11.158   6.289  70.815  1.00  0.00    -0.316 C  
HETATM   12  H   UNL     2     -11.174   7.495  69.252  1.00  0.00     0.000 HD 
HETATM   13  O   UNL     2     -11.297   7.557  70.192  1.00  0.00    -0.244 OA 
BRANCH  11  14
HETATM   14  C   UNL     2      -9.792   5.693  70.340  1.00  0.00    -0.194 C  
HETATM   15  H   UNL     2      -8.399   6.236  69.132  1.00  0.00     0.000 HD 
HETATM   16  O   UNL     2      -9.228   6.597  69.420  1.00  0.00    -0.142 OA 
BRANCH  14  17
HETATM   17  C   UNL     2      -9.869   4.303  69.665  1.00  0.00    -0.174 C  
HETATM   18  C   UNL     2      -9.263   3.224  70.545  1.00  0.00    -0.143 C  
HETATM   19  H   UNL     2      -9.219   3.486  68.032  1.00  0.00     0.000 HD 
HETATM   20  O   UNL     2      -9.172   4.339  68.447  1.00  0.00    -0.121 OA 
HETATM   21  O   UNL     2      -9.279   1.943  70.140  1.00  0.00    -0.090 OA 
HETATM   22  O   UNL     2      -8.820   3.482  71.664  1.00  0.00    -0.090 OA 
ENDBRANCH  14  17
ENDBRANCH  11  14
ENDBRANCH   2  11
BRANCH   3  23
HETATM   23  C   UNL     3     -11.036  14.974  67.283  1.00  0.00    -0.334 C  
HETATM   24  O   UNL     3     -11.034  16.382  67.241  1.00  0.00    -0.249 OA 
HETATM   25  H   UNL     3     -11.950  16.621  67.162  1.00  0.00     0.000 HD 
BRANCH  23  26
HETATM   26  C   UNL     3     -12.130  14.515  66.214  1.00  0.00    -0.294 C  
HETATM   27  O   UNL     3     -12.228  13.124  66.398  1.00  0.00    -0.399 OA 
HETATM   28  H   UNL     3     -12.878  12.851  65.762  1.00  0.00     0.000 HD 
BRANCH  26  29
HETATM   29  C   UNL     3     -12.044  14.685  64.620  1.00  0.00    -0.454 C  
HETATM   30  C   UNL     3     -11.840  13.487  63.735  1.00  0.00    -0.381 C  
HETATM   31  O   UNL     3     -11.020  15.585  64.256  1.00  0.00    -0.682 OA 
HETATM   32  O   UNL     3     -10.693  12.787  63.792  1.00  0.00    -0.413 OA 
HETATM   33  O   UNL     3     -12.648  13.241  62.854  1.00  0.00    -0.509 OA 
HETATM   34  H   UNL     3     -10.969  15.685  63.312  1.00  0.00     0.000 HD 
ENDBRANCH  26  29
ENDBRANCH  23  26
ENDBRANCH   3  23
BRANCH   3  35
HETATM   35  C   UNL     3      -9.114  13.063  67.319  1.00  0.00    -0.209 C  
HETATM   36  O   UNL     3      -9.091  12.601  66.001  1.00  0.00    -0.429 OA 
HETATM   37  H   UNL     3      -8.850  11.684  65.943  1.00  0.00     0.000 HD 
ENDBRANCH   3  35
TORSDOF 8
ENDMDL
MODEL       90
REMARK 921   NORMALIZED FREE ENERGY PREDICTED BY IDOCK:   -5.26 KCAL/MOL
REMARK 922        TOTAL FREE ENERGY PREDICTED BY IDOCK:   -9.40 KCAL/MOL
REMARK 923 INTER-LIGAND FREE ENERGY PREDICTED BY IDOCK:   -7.69 KCAL/MOL
REMARK 924 INTRA-LIGAND FREE ENERGY PREDICTED BY IDOCK:   -1.71 KCAL/MOL
REMARK 927      BINDING AFFINITY PREDICTED BY RF-SCORE:    0.00 PKD
ROOT
HETATM    1 MN   UNL     1     -12.624  11.803  68.409  1.00  0.00    -0.300 Mn 
HETATM    2  C   UNL     2      -9.040   5.002  69.389  1.00  0.00    -0.103 C  
HETATM    3  C   UNL     3     -12.357  14.169  69.423  1.00  0.00    -0.205 C  
HETATM    4  H   UNL     3     -13.059  15.979  69.468  1.00  0.00     0.000 HD 
HETATM    5  H   UNL     2     -10.755   5.773  69.746  1.00  0.00     0.000 HD 
HETATM    6  O   UNL     2     -10.400   4.892  69.777  1.00  0.00    -0.260 OA 
HETATM    7  O   UNL     3     -12.671  15.378  70.093  1.00  0.00    -0.335 OA 
ENDROOT
BRANCH   2   8
HETATM    8  C   UNL     2      -8.465   3.573  69.439  1.00  0.00    -0.065 C  
HETATM    9  H   UNL     2      -9.087   1.703  69.243  1.00  0.00     0.000 HD 
HETATM   10  O   UNL     2      -9.442   2.583  69.212  1.00  0.00    -0.137 OA 
ENDBRANCH   2   8
BRANCH   2  11
HETATM   11  C   UNL     2      -8.327   6.052  70.330  1.00  0.00    -0.124 C  
HETATM   12  H   UNL     2      -6.506   6.427  70.992  1.00  0.00     0.000 HD 
HETATM   13  O   UNL     2      -6.935   5.796  70.427  1.00  0.00    -0.060 OA 
BRANCH  11  14
HETATM   14  C   UNL     2      -8.489   7.555  69.926  1.00  0.00    -0.138 C  
HETATM   15  H   UNL     2      -7.310   8.961  69.353  1.00  0.00     0.000 HD 
HETATM   16  O   UNL     2      -7.212   8.049  69.598  1.00  0.00    -0.063 OA 
BRANCH  14  17
HETATM   17  C   UNL     2      -9.099   8.475  71.010  1.00  0.00    -0.179 C  
HETATM   18  C   UNL     2     -10.474   8.975  70.604  1.00  0.00    -0.230 C  
HETATM   19  H   UNL     2      -8.630  10.145  71.875  1.00  0.00     0.000 HD 
HETATM   20  O   UNL     2      -8.256   9.580  71.210  1.00  0.00    -0.276 OA 
HETATM   21  O   UNL     2     -11.177   9.755  71.443  1.00  0.00    -0.366 OA 
HETATM   22  O   UNL     2     -11.000   8.621  69.549  1.00  0.00    -0.179 OA 
ENDBRANCH  14  17
ENDBRANCH  11  14
ENDBRANCH   2  11
BRANCH   3  23
HETATM   23  C   UNL     3     -11.516  14.597  68.154  1.00  0.00    -0.323 C  
HETATM   24  O   UNL     3     -10.176  14.372  68.525  1.00  0.00    -0.231 OA 
HETATM   25  H   UNL     3      -9.671  14.629  67.762  1.00  0.00     0.000 HD 
BRANCH  23  26
HETATM   26  C   UNL     3     -11.628  14.117  66.636  1.00  0.00    -0.384 C  
HETATM   27  O   UNL     3     -11.058  12.831  66.639  1.00  0.00    -0.261 OA 
HETATM   28  H   UNL     3     -11.124  12.545  65.736  1.00  0.00     0.000 HD 
BRANCH  26  29
HETATM   29  C   UNL     3     -10.968  14.824  65.355  1.00  0.00    -0.359 C  
HETATM   30  C   UNL     3     -11.835  15.413  64.277  1.00  0.00    -0.199 C  
HETATM   31  O   UNL     3     -10.095  13.945  64.678  1.00  0.00    -0.589 OA 
HETATM   32  O   UNL     3     -12.617  14.620  63.523  1.00  0.00    -0.705 OA 
HETATM   33  O   UNL     3     -11.713  16.591  63.980  1.00  0.00    -1.111 OA 
HETATM   34  H   UNL     3      -9.704  14.363  63.920  1.00  0.00     0.000 HD 
ENDBRANCH  26  29
ENDBRANCH  23  26
ENDBRANCH   3  23
BRANCH   3  35
HETATM   35  C   UNL     3     -11.717  13.178  70.455  1.00  0.00    -0.061 C  
HETATM   36  O   UNL     3     -10.985  12.163  69.835  1.00  0.00    -0.453 OA 
HETATM   37  H   UNL     3     -10.597  11.562  70.460  1.00  0.00     0.000 HD 
ENDBRANCH   3  35
TORSDOF 8
ENDMDL
MODEL       91
REMARK 921   NORMALIZED FREE ENERGY PREDICTED BY IDOCK:   -5.26 KCAL/MOL
REMARK 922        TOTAL FREE ENERGY PREDICTED BY IDOCK:   -9.40 KCAL/MOL
REMARK 923 INTER-LIGAND FREE ENERGY PREDICTED BY IDOCK:   -8.04 KCAL/MOL
REMARK 924 INTRA-LIGAND FREE ENERGY PREDICTED BY IDOCK:   -1.36 KCAL/MOL
REMARK 927      BINDING AFFINITY PREDICTED BY RF-SCORE:    0.00 PKD
ROOT
HETATM    1 MN   UNL     1      -8.427   7.580  66.942  1.00  0.00    -0.106 Mn 
HETATM    2  C   UNL     2     -11.025  14.640  65.082  1.00  0.00    -0.386 C  
HETATM    3  C   UNL     3      -9.110   5.781  68.672  1.00  0.00    -0.114 C  
HETATM    4  H   UNL     3      -8.688   4.041  69.422  1.00  0.00     0.000 HD 
HETATM    5  H   UNL     2      -9.472  13.860  65.882  1.00  0.00     0.000 HD 
HETATM    6  O   UNL     2      -9.693  14.727  65.564  1.00  0.00    -0.328 OA 
HETATM    7  O   UNL     3      -9.025   4.866  69.752  1.00  0.00    -0.094 OA 
ENDROOT
BRANCH   2   8
HETATM    8  C   UNL     2     -11.384  16.048  64.567  1.00  0.00    -0.295 C  
HETATM    9  H   UNL     2     -12.723  16.914  63.392  1.00  0.00     0.000 HD 
HETATM   10  O   UNL     2     -12.502  16.046  63.709  1.00  0.00    -0.784 OA 
ENDBRANCH   2   8
BRANCH   2  11
HETATM   11  C   UNL     2     -11.948  14.086  66.237  1.00  0.00    -0.432 C  
HETATM   12  H   UNL     2     -12.804  12.379  66.739  1.00  0.00     0.000 HD 
HETATM   13  O   UNL     2     -12.249  12.713  66.044  1.00  0.00    -0.564 OA 
BRANCH  11  14
HETATM   14  C   UNL     2     -11.389  14.231  67.691  1.00  0.00    -0.324 C  
HETATM   15  H   UNL     2     -11.657  13.327  69.366  1.00  0.00     0.000 HD 
HETATM   16  O   UNL     2     -11.997  13.240  68.484  1.00  0.00    -0.339 OA 
BRANCH  14  17
HETATM   17  C   UNL     2     -11.628  15.602  68.365  1.00  0.00    -0.350 C  
HETATM   18  C   UNL     2     -10.318  16.300  68.687  1.00  0.00    -0.263 C  
HETATM   19  H   UNL     2     -12.494  16.257  69.971  1.00  0.00     0.000 HD 
HETATM   20  O   UNL     2     -12.347  15.415  69.557  1.00  0.00    -0.277 OA 
HETATM   21  O   UNL     2     -10.331  17.525  69.238  1.00  0.00    -0.327 OA 
HETATM   22  O   UNL     2      -9.235  15.801  68.385  1.00  0.00    -0.185 OA 
ENDBRANCH  14  17
ENDBRANCH  11  14
ENDBRANCH   2  11
BRANCH   3  23
HETATM   23  C   UNL     3      -9.915   5.026  67.541  1.00  0.00    -0.167 C  
HETATM   24  O   UNL     3     -11.137   5.722  67.450  1.00  0.00    -0.390 OA 
HETATM   25  H   UNL     3     -11.620   5.268  66.770  1.00  0.00     0.000 HD 
BRANCH  23  26
HETATM   26  C   UNL     3      -9.502   4.685  66.037  1.00  0.00    -0.171 C  
HETATM   27  O   UNL     3      -9.309   5.944  65.440  1.00  0.00    -0.365 OA 
HETATM   28  H   UNL     3      -9.064   5.741  64.545  1.00  0.00     0.000 HD 
BRANCH  26  29
HETATM   29  C   UNL     3     -10.380   3.882  64.960  1.00  0.00    -0.105 C  
HETATM   30  C   UNL     3      -9.851   3.636  63.574  1.00  0.00    -0.159 C  
HETATM   31  O   UNL     3     -11.637   4.494  64.765  1.00  0.00    -0.988 OA 
HETATM   32  O   UNL     3      -9.637   4.666  62.736  1.00  0.00    -0.086 OA 
HETATM   33  O   UNL     3      -9.762   2.493  63.154  1.00  0.00    -0.094 OA 
HETATM   34  H   UNL     3     -12.157   4.018  64.127  1.00  0.00     0.000 HD 
ENDBRANCH  26  29
ENDBRANCH  23  26
ENDBRANCH   3  23
BRANCH   3  35
HETATM   35  C   UNL     3      -9.666   7.143  69.215  1.00  0.00    -0.159 C  
HETATM   36  O   UNL     3     -10.041   8.013  68.189  1.00  0.00    -0.183 OA 
HETATM   37  H   UNL     3     -10.378   8.838  68.518  1.00  0.00     0.000 HD 
ENDBRANCH   3  35
TORSDOF 8
ENDMDL
MODEL       92
REMARK 921   NORMALIZED FREE ENERGY PREDICTED BY IDOCK:   -5.26 KCAL/MOL
REMARK 922        TOTAL FREE ENERGY PREDICTED BY IDOCK:   -9.39 KCAL/MOL
REMARK 923 INTER-LIGAND FREE ENERGY PREDICTED BY IDOCK:   -7.15 KCAL/MOL
REMARK 924 INTRA-LIGAND FREE ENERGY PREDICTED BY IDOCK:   -2.25 KCAL/MOL
REMARK 927      BINDING AFFINITY PREDICTED BY RF-SCORE:    0.00 PKD
ROOT
HETATM    1 MN   UNL     1      -7.922  14.626  68.134  1.00  0.00    -0.108 Mn 
HETATM    2  C   UNL     2      -8.999   7.306  70.437  1.00  0.00    -0.151 C  
HETATM    3  C   UNL     3      -9.340  16.359  66.837  1.00  0.00    -0.227 C  
HETATM    4  H   UNL     3      -9.381  18.143  66.073  1.00  0.00     0.000 HD 
HETATM    5  H   UNL     2      -7.909   8.259  69.186  1.00  0.00     0.000 HD 
HETATM    6  O   UNL     2      -7.920   7.369  69.519  1.00  0.00    -0.121 OA 
HETATM    7  O   UNL     3      -9.729  17.290  65.842  1.00  0.00    -0.498 OA 
ENDROOT
BRANCH   2   8
HETATM    8  C   UNL     2      -9.016   5.862  70.977  1.00  0.00    -0.142 C  
HETATM    9  H   UNL     2      -9.314   4.907  72.686  1.00  0.00     0.000 HD 
HETATM   10  O   UNL     2      -9.304   5.797  72.354  1.00  0.00    -0.144 OA 
ENDBRANCH   2   8
BRANCH   2  11
HETATM   11  C   UNL     2     -10.319   7.769  69.703  1.00  0.00    -0.212 C  
HETATM   12  H   UNL     2     -12.246   7.921  70.107  1.00  0.00     0.000 HD 
HETATM   13  O   UNL     2     -11.452   7.642  70.548  1.00  0.00    -0.274 OA 
BRANCH  11  14
HETATM   14  C   UNL     2     -10.320   9.235  69.155  1.00  0.00    -0.211 C  
HETATM   15  H   UNL     2     -11.181  10.884  69.638  1.00  0.00     0.000 HD 
HETATM   16  O   UNL     2     -11.180   9.995  69.970  1.00  0.00    -0.254 OA 
BRANCH  14  17
HETATM   17  C   UNL     2     -10.777   9.398  67.686  1.00  0.00    -0.230 C  
HETATM   18  C   UNL     2      -9.595   9.616  66.757  1.00  0.00    -0.173 C  
HETATM   19  H   UNL     2     -11.921  10.602  66.686  1.00  0.00     0.000 HD 
HETATM   20  O   UNL     2     -11.640  10.501  67.588  1.00  0.00    -0.447 OA 
HETATM   21  O   UNL     2      -9.797   9.736  65.435  1.00  0.00    -0.306 OA 
HETATM   22  O   UNL     2      -8.439   9.611  67.179  1.00  0.00    -0.129 OA 
ENDBRANCH  14  17
ENDBRANCH  11  14
ENDBRANCH   2  11
BRANCH   3  23
HETATM   23  C   UNL     3      -9.768  17.010  68.213  1.00  0.00    -0.275 C  
HETATM   24  O   UNL     3     -10.771  17.938  67.870  1.00  0.00    -0.392 OA 
HETATM   25  H   UNL     3     -11.027  18.329  68.697  1.00  0.00     0.000 HD 
BRANCH  23  26
HETATM   26  C   UNL     3     -10.263  16.324  69.567  1.00  0.00    -0.251 C  
HETATM   27  O   UNL     3      -9.361  15.262  69.763  1.00  0.00    -0.416 OA 
HETATM   28  H   UNL     3      -9.656  14.853  70.568  1.00  0.00     0.000 HD 
BRANCH  26  29
HETATM   29  C   UNL     3     -11.699  15.659  69.836  1.00  0.00    -0.362 C  
HETATM   30  C   UNL     3     -11.837  14.169  69.976  1.00  0.00    -0.323 C  
HETATM   31  O   UNL     3     -12.625  16.016  68.831  1.00  0.00    -0.265 OA 
HETATM   32  O   UNL     3     -11.581  13.361  68.932  1.00  0.00    -0.269 OA 
HETATM   33  O   UNL     3     -12.331  13.700  70.990  1.00  0.00    -0.356 OA 
HETATM   34  H   UNL     3     -13.475  15.623  68.990  1.00  0.00     0.000 HD 
ENDBRANCH  26  29
ENDBRANCH  23  26
ENDBRANCH   3  23
BRANCH   3  35
HETATM   35  C   UNL     3      -9.916  14.952  66.456  1.00  0.00    -0.265 C  
HETATM   36  O   UNL     3     -11.313  14.921  66.486  1.00  0.00    -0.348 OA 
HETATM   37  H   UNL     3     -11.662  14.068  66.255  1.00  0.00     0.000 HD 
ENDBRANCH   3  35
TORSDOF 8
ENDMDL
MODEL       93
REMARK 921   NORMALIZED FREE ENERGY PREDICTED BY IDOCK:   -5.26 KCAL/MOL
REMARK 922        TOTAL FREE ENERGY PREDICTED BY IDOCK:   -9.39 KCAL/MOL
REMARK 923 INTER-LIGAND FREE ENERGY PREDICTED BY IDOCK:   -7.90 KCAL/MOL
REMARK 924 INTRA-LIGAND FREE ENERGY PREDICTED BY IDOCK:   -1.49 KCAL/MOL
REMARK 927      BINDING AFFINITY PREDICTED BY RF-SCORE:    0.00 PKD
ROOT
HETATM    1 MN   UNL     1      -8.946  14.116  69.671  1.00  0.00    -0.355 Mn 
HETATM    2  C   UNL     2      -6.618   7.359  72.668  1.00  0.00    -0.059 C  
HETATM    3  C   UNL     3     -10.494  14.810  67.718  1.00  0.00    -0.254 C  
HETATM    4  H   UNL     3     -11.218  16.296  66.699  1.00  0.00     0.000 HD 
HETATM    5  H   UNL     2      -5.858   8.825  71.701  1.00  0.00     0.000 HD 
HETATM    6  O   UNL     2      -5.503   8.069  72.153  1.00  0.00    -0.035 OA 
HETATM    7  O   UNL     3     -10.935  15.408  66.511  1.00  0.00    -0.315 OA 
ENDROOT
BRANCH   2   8
HETATM    8  C   UNL     2      -6.041   6.133  73.402  1.00  0.00    -0.062 C  
HETATM    9  H   UNL     2      -6.510   4.934  74.908  1.00  0.00     0.000 HD 
HETATM   10  O   UNL     2      -6.865   5.690  74.456  1.00  0.00    -0.079 OA 
ENDBRANCH   2   8
BRANCH   2  11
HETATM   11  C   UNL     2      -7.606   7.034  71.479  1.00  0.00    -0.089 C  
HETATM   12  H   UNL     2      -8.277   5.441  70.524  1.00  0.00     0.000 HD 
HETATM   13  O   UNL     2      -7.683   5.637  71.239  1.00  0.00    -0.103 OA 
BRANCH  11  14
HETATM   14  C   UNL     2      -9.073   7.551  71.645  1.00  0.00    -0.134 C  
HETATM   15  H   UNL     2      -9.910   9.084  72.447  1.00  0.00     0.000 HD 
HETATM   16  O   UNL     2      -9.019   8.770  72.345  1.00  0.00    -0.379 OA 
BRANCH  14  17
HETATM   17  C   UNL     2     -10.033   6.602  72.399  1.00  0.00    -0.166 C  
HETATM   18  C   UNL     2     -11.422   6.612  71.785  1.00  0.00    -0.291 C  
HETATM   19  H   UNL     2     -10.718   6.424  74.205  1.00  0.00     0.000 HD 
HETATM   20  O   UNL     2     -10.128   7.007  73.741  1.00  0.00    -0.288 OA 
HETATM   21  O   UNL     2     -12.381   5.814  72.284  1.00  0.00    -0.136 OA 
HETATM   22  O   UNL     2     -11.676   7.284  70.785  1.00  0.00    -0.299 OA 
ENDBRANCH  14  17
ENDBRANCH  11  14
ENDBRANCH   2  11
BRANCH   3  23
HETATM   23  C   UNL     3     -11.668  15.033  68.753  1.00  0.00    -0.334 C  
HETATM   24  O   UNL     3     -12.589  14.004  68.473  1.00  0.00    -0.395 OA 
HETATM   25  H   UNL     3     -13.294  14.138  69.095  1.00  0.00     0.000 HD 
BRANCH  23  26
HETATM   26  C   UNL     3     -11.628  15.151  70.344  1.00  0.00    -0.292 C  
HETATM   27  O   UNL     3     -11.428  13.830  70.782  1.00  0.00    -0.491 OA 
HETATM   28  H   UNL     3     -11.404  13.900  71.729  1.00  0.00     0.000 HD 
BRANCH  26  29
HETATM   29  C   UNL     3     -12.800  15.696  71.296  1.00  0.00    -0.487 C  
HETATM   30  C   UNL     3     -12.990  15.127  72.675  1.00  0.00    -0.400 C  
HETATM   31  O   UNL     3     -14.062  15.573  70.675  1.00  0.00    -0.849 OA 
HETATM   32  O   UNL     3     -13.361  13.844  72.836  1.00  0.00    -0.604 OA 
HETATM   33  O   UNL     3     -12.962  15.868  73.644  1.00  0.00    -0.532 OA 
HETATM   34  H   UNL     3     -14.756  15.896  71.239  1.00  0.00     0.000 HD 
ENDBRANCH  26  29
ENDBRANCH  23  26
ENDBRANCH   3  23
BRANCH   3  35
HETATM   35  C   UNL     3     -10.029  13.345  67.407  1.00  0.00    -0.230 C  
HETATM   36  O   UNL     3     -10.987  12.623  66.690  1.00  0.00    -0.247 OA 
HETATM   37  H   UNL     3     -10.705  11.735  66.502  1.00  0.00     0.000 HD 
ENDBRANCH   3  35
TORSDOF 8
ENDMDL
MODEL       94
REMARK 921   NORMALIZED FREE ENERGY PREDICTED BY IDOCK:   -5.26 KCAL/MOL
REMARK 922        TOTAL FREE ENERGY PREDICTED BY IDOCK:   -9.39 KCAL/MOL
REMARK 923 INTER-LIGAND FREE ENERGY PREDICTED BY IDOCK:   -7.90 KCAL/MOL
REMARK 924 INTRA-LIGAND FREE ENERGY PREDICTED BY IDOCK:   -1.49 KCAL/MOL
REMARK 927      BINDING AFFINITY PREDICTED BY RF-SCORE:    0.00 PKD
ROOT
HETATM    1 MN   UNL     1     -10.230  14.415  70.416  1.00  0.00    -0.418 Mn 
HETATM    2  C   UNL     2     -11.140   6.995  72.458  1.00  0.00    -0.274 C  
HETATM    3  C   UNL     3      -9.204  15.635  68.378  1.00  0.00    -0.191 C  
HETATM    4  H   UNL     3      -8.769  17.358  67.597  1.00  0.00     0.000 HD 
HETATM    5  H   UNL     2     -10.128   8.515  73.029  1.00  0.00     0.000 HD 
HETATM    6  O   UNL     2     -10.295   7.652  73.389  1.00  0.00    -0.341 OA 
HETATM    7  O   UNL     3      -8.375  16.494  67.614  1.00  0.00    -0.163 OA 
ENDROOT
BRANCH   2   8
HETATM    8  C   UNL     2     -11.411   5.594  73.042  1.00  0.00    -0.192 C  
HETATM    9  H   UNL     2     -10.746   4.426  74.497  1.00  0.00     0.000 HD 
HETATM   10  O   UNL     2     -10.578   5.289  74.136  1.00  0.00    -0.278 OA 
ENDBRANCH   2   8
BRANCH   2  11
HETATM   11  C   UNL     2     -10.443   7.013  71.040  1.00  0.00    -0.212 C  
HETATM   12  H   UNL     2      -9.931   5.717  69.641  1.00  0.00     0.000 HD 
HETATM   13  O   UNL     2     -10.350   5.706  70.494  1.00  0.00    -0.222 OA 
BRANCH  11  14
HETATM   14  C   UNL     2     -11.121   7.914  69.955  1.00  0.00    -0.162 C  
HETATM   15  H   UNL     2     -11.064   8.039  68.038  1.00  0.00     0.000 HD 
HETATM   16  O   UNL     2     -10.653   7.492  68.697  1.00  0.00    -0.197 OA 
BRANCH  14  17
HETATM   17  C   UNL     2     -10.853   9.432  70.086  1.00  0.00    -0.249 C  
HETATM   18  C   UNL     2     -12.072  10.168  70.614  1.00  0.00    -0.319 C  
HETATM   19  H   UNL     2     -10.354  10.887  68.906  1.00  0.00     0.000 HD 
HETATM   20  O   UNL     2     -10.518   9.955  68.826  1.00  0.00    -0.196 OA 
HETATM   21  O   UNL     2     -12.011  11.492  70.834  1.00  0.00    -0.307 OA 
HETATM   22  O   UNL     2     -13.101   9.567  70.921  1.00  0.00    -0.238 OA 
ENDBRANCH  14  17
ENDBRANCH  11  14
ENDBRANCH   2  11
BRANCH   3  23
HETATM   23  C   UNL     3     -10.654  15.798  67.770  1.00  0.00    -0.292 C  
HETATM   24  O   UNL     3     -10.504  16.754  66.746  1.00  0.00    -0.301 OA 
HETATM   25  H   UNL     3     -11.375  16.852  66.381  1.00  0.00     0.000 HD 
BRANCH  23  26
HETATM   26  C   UNL     3     -11.656  14.700  67.188  1.00  0.00    -0.378 C  
HETATM   27  O   UNL     3     -11.535  13.618  68.079  1.00  0.00    -0.274 OA 
HETATM   28  H   UNL     3     -12.131  12.964  67.732  1.00  0.00     0.000 HD 
BRANCH  26  29
HETATM   29  C   UNL     3     -11.588  14.011  65.739  1.00  0.00    -0.339 C  
HETATM   30  C   UNL     3     -12.088  12.608  65.538  1.00  0.00    -0.458 C  
HETATM   31  O   UNL     3     -10.268  14.002  65.238  1.00  0.00    -0.344 OA 
HETATM   32  O   UNL     3     -11.471  11.573  66.135  1.00  0.00    -0.308 OA 
HETATM   33  O   UNL     3     -12.957  12.389  64.708  1.00  0.00    -0.786 OA 
HETATM   34  H   UNL     3     -10.228  13.594  64.381  1.00  0.00     0.000 HD 
ENDBRANCH  26  29
ENDBRANCH  23  26
ENDBRANCH   3  23
BRANCH   3  35
HETATM   35  C   UNL     3      -8.553  14.209  68.406  1.00  0.00    -0.176 C  
HETATM   36  O   UNL     3      -7.847  13.968  69.588  1.00  0.00    -0.282 OA 
HETATM   37  H   UNL     3      -7.453  13.104  69.605  1.00  0.00     0.000 HD 
ENDBRANCH   3  35
TORSDOF 8
ENDMDL
MODEL       95
REMARK 921   NORMALIZED FREE ENERGY PREDICTED BY IDOCK:   -5.25 KCAL/MOL
REMARK 922        TOTAL FREE ENERGY PREDICTED BY IDOCK:   -9.38 KCAL/MOL
REMARK 923 INTER-LIGAND FREE ENERGY PREDICTED BY IDOCK:   -6.87 KCAL/MOL
REMARK 924 INTRA-LIGAND FREE ENERGY PREDICTED BY IDOCK:   -2.51 KCAL/MOL
REMARK 927      BINDING AFFINITY PREDICTED BY RF-SCORE:    0.00 PKD
ROOT
HETATM    1 MN   UNL     1      -9.233  12.804  64.991  1.00  0.00    -0.425 Mn 
HETATM    2  C   UNL     2      -6.624   7.095  69.536  1.00  0.00    -0.044 C  
HETATM    3  C   UNL     3     -11.561  13.529  64.125  1.00  0.00    -0.376 C  
HETATM    4  H   UNL     3     -12.532  14.778  63.000  1.00  0.00     0.000 HD 
HETATM    5  H   UNL     2      -6.523   7.609  67.696  1.00  0.00     0.000 HD 
HETATM    6  O   UNL     2      -6.083   6.959  68.232  1.00  0.00    -0.030 OA 
HETATM    7  O   UNL     3     -12.610  13.859  63.231  1.00  0.00    -0.824 OA 
ENDROOT
BRANCH   2   8
HETATM    8  C   UNL     2      -5.911   6.041  70.406  1.00  0.00    -0.021 C  
HETATM    9  H   UNL     2      -4.918   4.341  70.182  1.00  0.00     0.000 HD 
HETATM   10  O   UNL     2      -5.358   4.991  69.646  1.00  0.00    -0.003 OA 
ENDBRANCH   2   8
BRANCH   2  11
HETATM   11  C   UNL     2      -8.195   6.951  69.451  1.00  0.00    -0.131 C  
HETATM   12  H   UNL     2      -9.578   5.640  69.969  1.00  0.00     0.000 HD 
HETATM   13  O   UNL     2      -8.633   5.726  70.019  1.00  0.00    -0.124 OA 
BRANCH  11  14
HETATM   14  C   UNL     2      -9.026   8.091  70.128  1.00  0.00    -0.150 C  
HETATM   15  H   UNL     2      -8.750   9.956  70.507  1.00  0.00     0.000 HD 
HETATM   16  O   UNL     2      -8.247   9.263  70.097  1.00  0.00    -0.128 OA 
BRANCH  14  17
HETATM   17  C   UNL     2      -9.447   7.830  71.593  1.00  0.00    -0.144 C  
HETATM   18  C   UNL     2     -10.950   7.955  71.770  1.00  0.00    -0.243 C  
HETATM   19  H   UNL     2      -9.071   8.602  73.332  1.00  0.00     0.000 HD 
HETATM   20  O   UNL     2      -8.813   8.762  72.432  1.00  0.00    -0.391 OA 
HETATM   21  O   UNL     2     -11.504   7.720  72.971  1.00  0.00    -0.372 OA 
HETATM   22  O   UNL     2     -11.690   8.195  70.817  1.00  0.00    -0.276 OA 
ENDBRANCH  14  17
ENDBRANCH  11  14
ENDBRANCH   2  11
BRANCH   3  23
HETATM   23  C   UNL     3     -11.630  14.612  65.275  1.00  0.00    -0.354 C  
HETATM   24  O   UNL     3     -12.691  14.187  66.099  1.00  0.00    -0.494 OA 
HETATM   25  H   UNL     3     -12.732  14.838  66.790  1.00  0.00     0.000 HD 
BRANCH  23  26
HETATM   26  C   UNL     3     -10.494  15.129  66.270  1.00  0.00    -0.307 C  
HETATM   27  O   UNL     3      -9.313  15.056  65.511  1.00  0.00    -0.443 OA 
HETATM   28  H   UNL     3      -8.637  15.364  66.103  1.00  0.00     0.000 HD 
BRANCH  26  29
HETATM   29  C   UNL     3     -10.084  14.479  67.679  1.00  0.00    -0.228 C  
HETATM   30  C   UNL     3      -8.709  13.904  67.882  1.00  0.00    -0.184 C  
HETATM   31  O   UNL     3     -10.969  13.440  68.041  1.00  0.00    -0.232 OA 
HETATM   32  O   UNL     3      -8.315  12.822  67.189  1.00  0.00    -0.183 OA 
HETATM   33  O   UNL     3      -8.007  14.323  68.789  1.00  0.00    -0.139 OA 
HETATM   34  H   UNL     3     -10.725  13.055  68.875  1.00  0.00     0.000 HD 
ENDBRANCH  26  29
ENDBRANCH  23  26
ENDBRANCH   3  23
BRANCH   3  35
HETATM   35  C   UNL     3     -11.690  12.013  64.506  1.00  0.00    -0.305 C  
HETATM   36  O   UNL     3     -11.228  11.747  65.798  1.00  0.00    -0.322 OA 
HETATM   37  H   UNL     3     -11.306  10.829  66.028  1.00  0.00     0.000 HD 
ENDBRANCH   3  35
TORSDOF 8
ENDMDL
MODEL       96
REMARK 921   NORMALIZED FREE ENERGY PREDICTED BY IDOCK:   -5.24 KCAL/MOL
REMARK 922        TOTAL FREE ENERGY PREDICTED BY IDOCK:   -9.37 KCAL/MOL
REMARK 923 INTER-LIGAND FREE ENERGY PREDICTED BY IDOCK:   -8.09 KCAL/MOL
REMARK 924 INTRA-LIGAND FREE ENERGY PREDICTED BY IDOCK:   -1.28 KCAL/MOL
REMARK 927      BINDING AFFINITY PREDICTED BY RF-SCORE:    0.00 PKD
ROOT
HETATM    1 MN   UNL     1     -10.261   6.983  68.313  1.00  0.00    -0.147 Mn 
HETATM    2  C   UNL     2     -11.138  14.102  65.381  1.00  0.00    -0.321 C  
HETATM    3  C   UNL     3      -9.270   6.019  70.501  1.00  0.00    -0.156 C  
HETATM    4  H   UNL     3      -8.848   4.403  71.490  1.00  0.00     0.000 HD 
HETATM    5  H   UNL     2     -10.116  12.527  65.014  1.00  0.00     0.000 HD 
HETATM    6  O   UNL     2     -10.277  13.341  64.550  1.00  0.00    -0.382 OA 
HETATM    7  O   UNL     3      -8.453   5.260  71.376  1.00  0.00    -0.121 OA 
ENDROOT
BRANCH   2   8
HETATM    8  C   UNL     2     -11.400  15.422  64.628  1.00  0.00    -0.355 C  
HETATM    9  H   UNL     2     -12.750  16.205  63.409  1.00  0.00     0.000 HD 
HETATM   10  O   UNL     2     -12.588  15.392  63.872  1.00  0.00    -0.725 OA 
ENDBRANCH   2   8
BRANCH   2  11
HETATM   11  C   UNL     2     -10.467  14.256  66.803  1.00  0.00    -0.273 C  
HETATM   12  H   UNL     2      -9.394  13.157  68.044  1.00  0.00     0.000 HD 
HETATM   13  O   UNL     2      -9.798  13.065  67.189  1.00  0.00    -0.222 OA 
BRANCH  11  14
HETATM   14  C   UNL     2      -9.440  15.426  66.953  1.00  0.00    -0.230 C  
HETATM   15  H   UNL     2      -7.556  15.568  67.310  1.00  0.00     0.000 HD 
HETATM   16  O   UNL     2      -8.180  14.857  67.219  1.00  0.00    -0.182 OA 
BRANCH  14  17
HETATM   17  C   UNL     2      -9.753  16.450  68.070  1.00  0.00    -0.235 C  
HETATM   18  C   UNL     2      -9.930  17.849  67.507  1.00  0.00    -0.322 C  
HETATM   19  H   UNL     2      -8.889  17.092  69.682  1.00  0.00     0.000 HD 
HETATM   20  O   UNL     2      -8.698  16.464  68.997  1.00  0.00    -0.248 OA 
HETATM   21  O   UNL     2     -10.249  18.865  68.327  1.00  0.00    -0.369 OA 
HETATM   22  O   UNL     2      -9.861  18.068  66.298  1.00  0.00    -0.359 OA 
ENDBRANCH  14  17
ENDBRANCH  11  14
ENDBRANCH   2  11
BRANCH   3  23
HETATM   23  C   UNL     3     -10.731   5.926  71.099  1.00  0.00    -0.265 C  
HETATM   24  O   UNL     3     -10.537   5.663  72.469  1.00  0.00    -0.203 OA 
HETATM   25  H   UNL     3     -11.414   5.607  72.828  1.00  0.00     0.000 HD 
BRANCH  23  26
HETATM   26  C   UNL     3     -11.940   6.966  71.028  1.00  0.00    -0.374 C  
HETATM   27  O   UNL     3     -11.770   7.606  69.788  1.00  0.00    -0.442 OA 
HETATM   28  H   UNL     3     -12.489   8.225  69.745  1.00  0.00     0.000 HD 
BRANCH  26  29
HETATM   29  C   UNL     3     -12.227   8.173  72.045  1.00  0.00    -0.339 C  
HETATM   30  C   UNL     3     -13.444   9.039  71.877  1.00  0.00    -0.425 C  
HETATM   31  O   UNL     3     -11.142   9.076  72.089  1.00  0.00    -0.350 OA 
HETATM   32  O   UNL     3     -13.574   9.828  70.795  1.00  0.00    -0.227 OA 
HETATM   33  O   UNL     3     -14.242   9.147  72.796  1.00  0.00    -0.552 OA 
HETATM   34  H   UNL     3     -11.313   9.791  72.691  1.00  0.00     0.000 HD 
ENDBRANCH  26  29
ENDBRANCH  23  26
ENDBRANCH   3  23
BRANCH   3  35
HETATM   35  C   UNL     3      -8.619   7.433  70.313  1.00  0.00    -0.145 C  
HETATM   36  O   UNL     3      -8.644   8.191  71.486  1.00  0.00    -0.118 OA 
HETATM   37  H   UNL     3      -8.249   9.048  71.372  1.00  0.00     0.000 HD 
ENDBRANCH   3  35
TORSDOF 8
ENDMDL
MODEL       97
REMARK 921   NORMALIZED FREE ENERGY PREDICTED BY IDOCK:   -5.21 KCAL/MOL
REMARK 922        TOTAL FREE ENERGY PREDICTED BY IDOCK:   -9.32 KCAL/MOL
REMARK 923 INTER-LIGAND FREE ENERGY PREDICTED BY IDOCK:   -7.60 KCAL/MOL
REMARK 924 INTRA-LIGAND FREE ENERGY PREDICTED BY IDOCK:   -1.72 KCAL/MOL
REMARK 927      BINDING AFFINITY PREDICTED BY RF-SCORE:    0.00 PKD
ROOT
HETATM    1 MN   UNL     1     -11.181   6.801  69.360  1.00  0.00    -0.212 Mn 
HETATM    2  C   UNL     2     -11.199  14.549  69.230  1.00  0.00    -0.281 C  
HETATM    3  C   UNL     3     -10.131   4.953  67.884  1.00  0.00    -0.085 C  
HETATM    4  H   UNL     3      -9.969   3.041  67.587  1.00  0.00     0.000 HD 
HETATM    5  H   UNL     2     -12.442  13.118  68.967  1.00  0.00     0.000 HD 
HETATM    6  O   UNL     2     -12.520  14.060  69.058  1.00  0.00    -0.214 OA 
HETATM    7  O   UNL     3     -10.021   3.818  67.042  1.00  0.00    -0.101 OA 
ENDROOT
BRANCH   2   8
HETATM    8  C   UNL     2     -11.327  16.078  69.378  1.00  0.00    -0.355 C  
HETATM    9  H   UNL     2     -10.624  17.726  68.534  1.00  0.00     0.000 HD 
HETATM   10  O   UNL     2     -10.545  16.784  68.443  1.00  0.00    -0.316 OA 
ENDBRANCH   2   8
BRANCH   2  11
HETATM   11  C   UNL     2     -10.315  14.058  68.017  1.00  0.00    -0.240 C  
HETATM   12  H   UNL     2      -8.822  12.803  67.704  1.00  0.00     0.000 HD 
HETATM   13  O   UNL     2      -9.354  13.099  68.433  1.00  0.00    -0.207 OA 
BRANCH  11  14
HETATM   14  C   UNL     2     -11.091  13.434  66.811  1.00  0.00    -0.292 C  
HETATM   15  H   UNL     2     -10.859  11.907  65.665  1.00  0.00     0.000 HD 
HETATM   16  O   UNL     2     -10.388  12.287  66.398  1.00  0.00    -0.221 OA 
BRANCH  14  17
HETATM   17  C   UNL     2     -11.271  14.358  65.583  1.00  0.00    -0.323 C  
HETATM   18  C   UNL     2     -12.379  13.860  64.671  1.00  0.00    -0.388 C  
HETATM   19  H   UNL     2     -10.182  14.971  64.102  1.00  0.00     0.000 HD 
HETATM   20  O   UNL     2     -10.071  14.404  64.856  1.00  0.00    -0.379 OA 
HETATM   21  O   UNL     2     -12.707  14.561  63.573  1.00  0.00    -0.707 OA 
HETATM   22  O   UNL     2     -13.041  12.861  64.952  1.00  0.00    -0.799 OA 
ENDBRANCH  14  17
ENDBRANCH  11  14
ENDBRANCH   2  11
BRANCH   3  23
HETATM   23  C   UNL     3      -8.944   4.826  68.921  1.00  0.00    -0.108 C  
HETATM   24  O   UNL     3      -8.005   5.791  68.505  1.00  0.00    -0.099 OA 
HETATM   25  H   UNL     3      -7.292   5.715  69.128  1.00  0.00     0.000 HD 
BRANCH  23  26
HETATM   26  C   UNL     3      -8.958   4.901  70.515  1.00  0.00    -0.120 C  
HETATM   27  O   UNL     3     -10.016   4.054  70.890  1.00  0.00    -0.183 OA 
HETATM   28  H   UNL     3     -10.025   4.099  71.838  1.00  0.00     0.000 HD 
BRANCH  26  29
HETATM   29  C   UNL     3      -9.183   6.213  71.412  1.00  0.00    -0.143 C  
HETATM   30  C   UNL     3     -10.398   6.339  72.288  1.00  0.00    -0.190 C  
HETATM   31  O   UNL     3      -9.184   7.381  70.619  1.00  0.00    -0.156 OA 
HETATM   32  O   UNL     3     -11.625   6.417  71.743  1.00  0.00    -0.290 OA 
HETATM   33  O   UNL     3     -10.263   6.529  73.487  1.00  0.00    -0.213 OA 
HETATM   34  H   UNL     3      -9.318   8.158  71.151  1.00  0.00     0.000 HD 
ENDBRANCH  26  29
ENDBRANCH  23  26
ENDBRANCH   3  23
BRANCH   3  35
HETATM   35  C   UNL     3     -10.215   6.234  66.985  1.00  0.00    -0.201 C  
HETATM   36  O   UNL     3     -11.531   6.665  66.793  1.00  0.00    -0.776 OA 
HETATM   37  H   UNL     3     -11.582   7.442  66.248  1.00  0.00     0.000 HD 
ENDBRANCH   3  35
TORSDOF 8
ENDMDL
MODEL       98
REMARK 921   NORMALIZED FREE ENERGY PREDICTED BY IDOCK:   -5.19 KCAL/MOL
REMARK 922        TOTAL FREE ENERGY PREDICTED BY IDOCK:   -9.30 KCAL/MOL
REMARK 923 INTER-LIGAND FREE ENERGY PREDICTED BY IDOCK:   -7.70 KCAL/MOL
REMARK 924 INTRA-LIGAND FREE ENERGY PREDICTED BY IDOCK:   -1.60 KCAL/MOL
REMARK 927      BINDING AFFINITY PREDICTED BY RF-SCORE:    0.00 PKD
ROOT
HETATM    1 MN   UNL     1     -11.361  10.148  67.096  1.00  0.00    -0.274 Mn 
HETATM    2  C   UNL     2     -10.774  17.772  65.837  1.00  0.00    -0.116 C  
HETATM    3  C   UNL     3      -9.775   8.323  68.019  1.00  0.00    -0.161 C  
HETATM    4  H   UNL     3      -9.563   6.430  68.397  1.00  0.00     0.000 HD 
HETATM    5  H   UNL     2     -10.933  16.166  64.807  1.00  0.00     0.000 HD 
HETATM    6  O   UNL     2     -10.984  17.094  64.608  1.00  0.00    -1.005 OA 
HETATM    7  O   UNL     3      -9.004   7.136  68.090  1.00  0.00    -0.129 OA 
ENDROOT
BRANCH   2   8
HETATM    8  C   UNL     2     -10.858  19.277  65.513  1.00  0.00    -0.059 C  
HETATM    9  H   UNL     2     -11.190  20.991  66.449  1.00  0.00     0.000 HD 
HETATM   10  O   UNL     2     -11.138  20.063  66.648  1.00  0.00    -0.170 OA 
ENDBRANCH   2   8
BRANCH   2  11
HETATM   11  C   UNL     2      -9.403  17.287  66.455  1.00  0.00    -0.258 C  
HETATM   12  H   UNL     2      -7.571  17.988  66.688  1.00  0.00     0.000 HD 
HETATM   13  O   UNL     2      -8.396  18.278  66.316  1.00  0.00    -0.371 OA 
BRANCH  11  14
HETATM   14  C   UNL     2      -9.438  16.879  67.965  1.00  0.00    -0.243 C  
HETATM   15  H   UNL     2      -8.180  16.872  69.418  1.00  0.00     0.000 HD 
HETATM   16  O   UNL     2      -8.159  17.120  68.502  1.00  0.00    -0.241 OA 
BRANCH  14  17
HETATM   17  C   UNL     2      -9.812  15.406  68.249  1.00  0.00    -0.213 C  
HETATM   18  C   UNL     2     -11.234  15.283  68.769  1.00  0.00    -0.287 C  
HETATM   19  H   UNL     2      -9.161  13.974  69.383  1.00  0.00     0.000 HD 
HETATM   20  O   UNL     2      -8.932  14.879  69.208  1.00  0.00    -0.178 OA 
HETATM   21  O   UNL     2     -11.748  14.070  69.032  1.00  0.00    -0.284 OA 
HETATM   22  O   UNL     2     -11.960  16.269  68.888  1.00  0.00    -0.224 OA 
ENDBRANCH  14  17
ENDBRANCH  11  14
ENDBRANCH   2  11
BRANCH   3  23
HETATM   23  C   UNL     3     -10.470   8.460  69.432  1.00  0.00    -0.217 C  
HETATM   24  O   UNL     3      -9.890   7.441  70.213  1.00  0.00    -0.186 OA 
HETATM   25  H   UNL     3     -10.308   7.524  71.062  1.00  0.00     0.000 HD 
BRANCH  23  26
HETATM   26  C   UNL     3     -10.592   9.725  70.399  1.00  0.00    -0.304 C  
HETATM   27  O   UNL     3     -10.654   9.167  71.689  1.00  0.00    -0.339 OA 
HETATM   28  H   UNL     3     -10.728   9.919  72.264  1.00  0.00     0.000 HD 
BRANCH  26  29
HETATM   29  C   UNL     3     -11.764  10.822  70.401  1.00  0.00    -0.351 C  
HETATM   30  C   UNL     3     -12.774  10.858  71.514  1.00  0.00    -0.428 C  
HETATM   31  O   UNL     3     -12.531  10.753  69.217  1.00  0.00    -0.668 OA 
HETATM   32  O   UNL     3     -13.633   9.838  71.686  1.00  0.00    -0.353 OA 
HETATM   33  O   UNL     3     -12.920  11.880  72.165  1.00  0.00    -0.365 OA 
HETATM   34  H   UNL     3     -13.225  11.403  69.218  1.00  0.00     0.000 HD 
ENDBRANCH  26  29
ENDBRANCH  23  26
ENDBRANCH   3  23
BRANCH   3  35
HETATM   35  C   UNL     3      -8.854   9.486  67.513  1.00  0.00    -0.125 C  
HETATM   36  O   UNL     3      -9.144   9.862  66.199  1.00  0.00    -0.148 OA 
HETATM   37  H   UNL     3      -8.586  10.567  65.892  1.00  0.00     0.000 HD 
ENDBRANCH   3  35
TORSDOF 8
ENDMDL
MODEL       99
REMARK 921   NORMALIZED FREE ENERGY PREDICTED BY IDOCK:   -5.19 KCAL/MOL
REMARK 922        TOTAL FREE ENERGY PREDICTED BY IDOCK:   -9.29 KCAL/MOL
REMARK 923 INTER-LIGAND FREE ENERGY PREDICTED BY IDOCK:   -7.03 KCAL/MOL
REMARK 924 INTRA-LIGAND FREE ENERGY PREDICTED BY IDOCK:   -2.26 KCAL/MOL
REMARK 927      BINDING AFFINITY PREDICTED BY RF-SCORE:    0.00 PKD
ROOT
HETATM    1 MN   UNL     1      -8.734  14.297  65.465  1.00  0.00    -0.440 Mn 
HETATM    2  C   UNL     2      -8.697   7.300  68.797  1.00  0.00    -0.125 C  
HETATM    3  C   UNL     3     -10.547  16.080  64.984  1.00  0.00    -0.316 C  
HETATM    4  H   UNL     3     -10.920  17.803  64.172  1.00  0.00     0.000 HD 
HETATM    5  H   UNL     2      -8.452   8.048  67.053  1.00  0.00     0.000 HD 
HETATM    6  O   UNL     2      -8.319   7.188  67.434  1.00  0.00    -0.118 OA 
HETATM    7  O   UNL     3     -11.381  16.978  64.273  1.00  0.00    -1.191 OA 
ENDROOT
BRANCH   2   8
HETATM    8  C   UNL     2      -8.480   5.905  69.416  1.00  0.00    -0.113 C  
HETATM    9  H   UNL     2      -7.077   4.903  70.391  1.00  0.00     0.000 HD 
HETATM   10  O   UNL     2      -7.210   5.762  70.009  1.00  0.00    -0.065 OA 
ENDBRANCH   2   8
BRANCH   2  11
HETATM   11  C   UNL     2     -10.176   7.850  68.870  1.00  0.00    -0.205 C  
HETATM   12  H   UNL     2     -11.838   7.461  69.863  1.00  0.00     0.000 HD 
HETATM   13  O   UNL     2     -10.948   7.130  69.818  1.00  0.00    -0.244 OA 
BRANCH  11  14
HETATM   14  C   UNL     2     -10.326   9.368  69.216  1.00  0.00    -0.208 C  
HETATM   15  H   UNL     2     -11.451  10.412  70.375  1.00  0.00     0.000 HD 
HETATM   16  O   UNL     2     -11.359   9.490  70.164  1.00  0.00    -0.239 OA 
BRANCH  14  17
HETATM   17  C   UNL     2     -10.654  10.296  68.023  1.00  0.00    -0.231 C  
HETATM   18  C   UNL     2      -9.426  11.060  67.558  1.00  0.00    -0.163 C  
HETATM   19  H   UNL     2     -11.844  11.787  67.675  1.00  0.00     0.000 HD 
HETATM   20  O   UNL     2     -11.642  11.217  68.407  1.00  0.00    -0.280 OA 
HETATM   21  O   UNL     2      -9.511  11.885  66.501  1.00  0.00    -0.206 OA 
HETATM   22  O   UNL     2      -8.326  10.886  68.082  1.00  0.00    -0.114 OA 
ENDBRANCH  14  17
ENDBRANCH  11  14
ENDBRANCH   2  11
BRANCH   3  23
HETATM   23  C   UNL     3     -10.094  16.862  66.281  1.00  0.00    -0.324 C  
HETATM   24  O   UNL     3     -11.086  16.570  67.237  1.00  0.00    -0.153 OA 
HETATM   25  H   UNL     3     -10.814  17.040  68.016  1.00  0.00     0.000 HD 
BRANCH  23  26
HETATM   26  C   UNL     3      -8.709  16.824  67.075  1.00  0.00    -0.204 C  
HETATM   27  O   UNL     3      -7.740  16.660  66.069  1.00  0.00    -0.226 OA 
HETATM   28  H   UNL     3      -6.917  16.637  66.541  1.00  0.00     0.000 HD 
BRANCH  26  29
HETATM   29  C   UNL     3      -8.276  15.761  68.198  1.00  0.00    -0.141 C  
HETATM   30  C   UNL     3      -6.827  15.421  68.409  1.00  0.00    -0.115 C  
HETATM   31  O   UNL     3      -8.916  14.518  68.000  1.00  0.00    -0.168 OA 
HETATM   32  O   UNL     3      -6.129  14.793  67.446  1.00  0.00    -0.338 OA 
HETATM   33  O   UNL     3      -6.324  15.573  69.511  1.00  0.00    -0.135 OA 
HETATM   34  H   UNL     3      -8.660  13.889  68.665  1.00  0.00     0.000 HD 
ENDBRANCH  26  29
ENDBRANCH  23  26
ENDBRANCH   3  23
BRANCH   3  35
HETATM   35  C   UNL     3     -11.307  14.719  65.150  1.00  0.00    -0.379 C  
HETATM   36  O   UNL     3     -11.232  13.923  64.004  1.00  0.00    -0.588 OA 
HETATM   37  H   UNL     3     -11.693  13.098  64.104  1.00  0.00     0.000 HD 
ENDBRANCH   3  35
TORSDOF 8
ENDMDL
MODEL      100
REMARK 921   NORMALIZED FREE ENERGY PREDICTED BY IDOCK:   -5.19 KCAL/MOL
REMARK 922        TOTAL FREE ENERGY PREDICTED BY IDOCK:   -9.29 KCAL/MOL
REMARK 923 INTER-LIGAND FREE ENERGY PREDICTED BY IDOCK:   -8.03 KCAL/MOL
REMARK 924 INTRA-LIGAND FREE ENERGY PREDICTED BY IDOCK:   -1.26 KCAL/MOL
REMARK 927      BINDING AFFINITY PREDICTED BY RF-SCORE:    0.00 PKD
ROOT
HETATM    1 MN   UNL     1     -10.742  12.355  69.797  1.00  0.00    -0.390 Mn 
HETATM    2  C   UNL     2     -10.607   5.420  73.254  1.00  0.00    -0.249 C  
HETATM    3  C   UNL     3      -9.552  13.397  67.749  1.00  0.00    -0.213 C  
HETATM    4  H   UNL     3      -9.302  15.005  66.691  1.00  0.00     0.000 HD 
HETATM    5  H   UNL     2     -10.062   7.214  73.639  1.00  0.00     0.000 HD 
HETATM    6  O   UNL     2     -10.132   6.415  74.148  1.00  0.00    -0.268 OA 
HETATM    7  O   UNL     3      -8.759  14.276  66.969  1.00  0.00    -0.214 OA 
ENDROOT
BRANCH   2   8
HETATM    8  C   UNL     2     -10.720   4.124  74.080  1.00  0.00    -0.243 C  
HETATM    9  H   UNL     2     -11.645   2.374  73.997  1.00  0.00     0.000 HD 
HETATM   10  O   UNL     2     -11.575   3.173  73.488  1.00  0.00    -0.174 OA 
ENDBRANCH   2   8
BRANCH   2  11
HETATM   11  C   UNL     2      -9.633   5.348  72.012  1.00  0.00    -0.155 C  
HETATM   12  H   UNL     2      -8.053   4.308  71.446  1.00  0.00     0.000 HD 
HETATM   13  O   UNL     2      -8.638   4.352  72.193  1.00  0.00    -0.109 OA 
BRANCH  11  14
HETATM   14  C   UNL     2     -10.308   5.074  70.627  1.00  0.00    -0.208 C  
HETATM   15  H   UNL     2     -10.242   3.669  69.317  1.00  0.00     0.000 HD 
HETATM   16  O   UNL     2      -9.833   3.836  70.158  1.00  0.00    -0.188 OA 
BRANCH  14  17
HETATM   17  C   UNL     2     -10.045   6.138  69.535  1.00  0.00    -0.185 C  
HETATM   18  C   UNL     2     -10.782   7.432  69.830  1.00  0.00    -0.241 C  
HETATM   19  H   UNL     2     -10.314   6.296  67.621  1.00  0.00     0.000 HD 
HETATM   20  O   UNL     2     -10.475   5.644  68.292  1.00  0.00    -0.198 OA 
HETATM   21  O   UNL     2     -10.638   8.486  69.009  1.00  0.00    -0.216 OA 
HETATM   22  O   UNL     2     -11.455   7.568  70.851  1.00  0.00    -0.274 OA 
ENDBRANCH  14  17
ENDBRANCH  11  14
ENDBRANCH   2  11
BRANCH   3  23
HETATM   23  C   UNL     3     -10.836  13.101  66.876  1.00  0.00    -0.265 C  
HETATM   24  O   UNL     3     -11.670  12.338  67.718  1.00  0.00    -0.333 OA 
HETATM   25  H   UNL     3     -12.441  12.160  67.193  1.00  0.00     0.000 HD 
BRANCH  23  26
HETATM   26  C   UNL     3     -11.809  14.104  66.104  1.00  0.00    -0.407 C  
HETATM   27  O   UNL     3     -12.933  14.206  66.942  1.00  0.00    -0.254 OA 
HETATM   28  H   UNL     3     -13.512  14.803  66.483  1.00  0.00     0.000 HD 
BRANCH  26  29
HETATM   29  C   UNL     3     -12.440  13.894  64.642  1.00  0.00    -0.325 C  
HETATM   30  C   UNL     3     -12.100  12.674  63.833  1.00  0.00    -0.487 C  
HETATM   31  O   UNL     3     -12.146  14.985  63.797  1.00  0.00    -0.918 OA 
HETATM   32  O   UNL     3     -10.844  12.477  63.395  1.00  0.00    -0.439 OA 
HETATM   33  O   UNL     3     -12.994  11.942  63.438  1.00  0.00    -0.730 OA 
HETATM   34  H   UNL     3     -12.519  14.861  62.932  1.00  0.00     0.000 HD 
ENDBRANCH  26  29
ENDBRANCH  23  26
ENDBRANCH   3  23
BRANCH   3  35
HETATM   35  C   UNL     3      -8.657  12.194  68.208  1.00  0.00    -0.175 C  
HETATM   36  O   UNL     3      -9.403  11.040  68.460  1.00  0.00    -0.174 OA 
HETATM   37  H   UNL     3      -8.860  10.311  68.738  1.00  0.00     0.000 HD 
ENDBRANCH   3  35
TORSDOF 8
ENDMDL
MODEL      101
REMARK 921   NORMALIZED FREE ENERGY PREDICTED BY IDOCK:   -5.18 KCAL/MOL
REMARK 922        TOTAL FREE ENERGY PREDICTED BY IDOCK:   -9.28 KCAL/MOL
REMARK 923 INTER-LIGAND FREE ENERGY PREDICTED BY IDOCK:   -7.03 KCAL/MOL
REMARK 924 INTRA-LIGAND FREE ENERGY PREDICTED BY IDOCK:   -2.25 KCAL/MOL
REMARK 927      BINDING AFFINITY PREDICTED BY RF-SCORE:    0.00 PKD
ROOT
HETATM    1 MN   UNL     1     -11.204  11.042  68.570  1.00  0.00    -0.171 Mn 
HETATM    2  C   UNL     2     -10.151  18.428  66.474  1.00  0.00    -0.388 C  
HETATM    3  C   UNL     3      -9.652   9.134  69.375  1.00  0.00    -0.165 C  
HETATM    4  H   UNL     3      -9.551   7.267  69.897  1.00  0.00     0.000 HD 
HETATM    5  H   UNL     2     -10.648  16.772  65.654  1.00  0.00     0.000 HD 
HETATM    6  O   UNL     2     -10.649  17.680  65.375  1.00  0.00    -0.657 OA 
HETATM    7  O   UNL     3      -8.996   7.879  69.427  1.00  0.00    -0.144 OA 
ENDROOT
BRANCH   2   8
HETATM    8  C   UNL     2     -10.153  19.902  66.022  1.00  0.00    -0.487 C  
HETATM    9  H   UNL     2     -11.171  21.094  64.811  1.00  0.00     0.000 HD 
HETATM   10  O   UNL     2     -11.170  20.185  65.089  1.00  0.00    -0.187 OA 
ENDBRANCH   2   8
BRANCH   2  11
HETATM   11  C   UNL     2      -8.741  17.847  66.886  1.00  0.00    -0.246 C  
HETATM   12  H   UNL     2      -7.179  18.411  67.954  1.00  0.00     0.000 HD 
HETATM   13  O   UNL     2      -8.027  18.760  67.706  1.00  0.00    -0.248 OA 
BRANCH  11  14
HETATM   14  C   UNL     2      -8.757  16.474  67.635  1.00  0.00    -0.190 C  
HETATM   15  H   UNL     2      -9.575  15.787  69.233  1.00  0.00     0.000 HD 
HETATM   16  O   UNL     2      -9.565  16.621  68.778  1.00  0.00    -0.237 OA 
BRANCH  14  17
HETATM   17  C   UNL     2      -7.375  15.944  68.085  1.00  0.00    -0.127 C  
HETATM   18  C   UNL     2      -7.233  14.457  67.808  1.00  0.00    -0.175 C  
HETATM   19  H   UNL     2      -6.371  15.839  69.740  1.00  0.00     0.000 HD 
HETATM   20  O   UNL     2      -7.219  16.165  69.463  1.00  0.00    -0.217 OA 
HETATM   21  O   UNL     2      -6.080  13.830  68.095  1.00  0.00    -0.094 OA 
HETATM   22  O   UNL     2      -8.128  13.820  67.253  1.00  0.00    -0.175 OA 
ENDBRANCH  14  17
ENDBRANCH  11  14
ENDBRANCH   2  11
BRANCH   3  23
HETATM   23  C   UNL     3     -10.056   9.461  70.868  1.00  0.00    -0.296 C  
HETATM   24  O   UNL     3     -11.072  10.431  70.757  1.00  0.00    -0.373 OA 
HETATM   25  H   UNL     3     -11.314  10.628  71.654  1.00  0.00     0.000 HD 
BRANCH  23  26
HETATM   26  C   UNL     3     -10.520   8.488  72.045  1.00  0.00    -0.336 C  
HETATM   27  O   UNL     3      -9.389   7.691  72.298  1.00  0.00    -0.139 OA 
HETATM   28  H   UNL     3      -9.665   7.111  72.998  1.00  0.00     0.000 HD 
BRANCH  26  29
HETATM   29  C   UNL     3     -11.729   7.432  71.997  1.00  0.00    -0.289 C  
HETATM   30  C   UNL     3     -11.451   5.960  71.874  1.00  0.00    -0.225 C  
HETATM   31  O   UNL     3     -12.621   7.723  70.943  1.00  0.00    -0.515 OA 
HETATM   32  O   UNL     3     -10.883   5.466  70.760  1.00  0.00    -0.222 OA 
HETATM   33  O   UNL     3     -11.883   5.190  72.718  1.00  0.00    -0.219 OA 
HETATM   34  H   UNL     3     -13.336   7.098  70.914  1.00  0.00     0.000 HD 
ENDBRANCH  26  29
ENDBRANCH  23  26
ENDBRANCH   3  23
BRANCH   3  35
HETATM   35  C   UNL     3      -8.737  10.144  68.601  1.00  0.00    -0.128 C  
HETATM   36  O   UNL     3      -8.826  11.442  69.110  1.00  0.00    -0.378 OA 
HETATM   37  H   UNL     3      -8.271  12.054  68.641  1.00  0.00     0.000 HD 
ENDBRANCH   3  35
TORSDOF 8
ENDMDL
MODEL      102
REMARK 921   NORMALIZED FREE ENERGY PREDICTED BY IDOCK:   -5.16 KCAL/MOL
REMARK 922        TOTAL FREE ENERGY PREDICTED BY IDOCK:   -9.26 KCAL/MOL
REMARK 923 INTER-LIGAND FREE ENERGY PREDICTED BY IDOCK:   -7.73 KCAL/MOL
REMARK 924 INTRA-LIGAND FREE ENERGY PREDICTED BY IDOCK:   -1.53 KCAL/MOL
REMARK 927      BINDING AFFINITY PREDICTED BY RF-SCORE:    0.00 PKD
ROOT
HETATM    1 MN   UNL     1      -8.038   7.035  70.000  1.00  0.00    -0.103 Mn 
HETATM    2  C   UNL     2     -11.539  12.400  65.639  1.00  0.00    -0.392 C  
HETATM    3  C   UNL     3      -7.950   6.516  72.534  1.00  0.00    -0.104 C  
HETATM    4  H   UNL     3      -7.186   5.376  73.908  1.00  0.00     0.000 HD 
HETATM    5  H   UNL     2      -9.760  11.930  66.163  1.00  0.00     0.000 HD 
HETATM    6  O   UNL     2     -10.131  12.529  65.526  1.00  0.00    -0.267 OA 
HETATM    7  O   UNL     3      -7.431   6.292  73.834  1.00  0.00    -0.087 OA 
ENDROOT
BRANCH   2   8
HETATM    8  C   UNL     2     -12.142  13.371  64.605  1.00  0.00    -0.410 C  
HETATM    9  H   UNL     2     -13.628  14.673  64.464  1.00  0.00     0.000 HD 
HETATM   10  O   UNL     2     -13.257  14.073  65.101  1.00  0.00    -0.768 OA 
ENDBRANCH   2   8
BRANCH   2  11
HETATM   11  C   UNL     2     -11.954  12.666  67.140  1.00  0.00    -0.256 C  
HETATM   12  H   UNL     2     -12.392  11.610  68.750  1.00  0.00     0.000 HD 
HETATM   13  O   UNL     2     -12.143  11.450  67.847  1.00  0.00    -0.646 OA 
BRANCH  11  14
HETATM   14  C   UNL     2     -10.961  13.534  67.982  1.00  0.00    -0.251 C  
HETATM   15  H   UNL     2      -9.916  13.277  69.574  1.00  0.00     0.000 HD 
HETATM   16  O   UNL     2     -10.519  12.750  69.063  1.00  0.00    -0.130 OA 
BRANCH  14  17
HETATM   17  C   UNL     2     -11.541  14.852  68.547  1.00  0.00    -0.323 C  
HETATM   18  C   UNL     2     -10.446  15.865  68.830  1.00  0.00    -0.233 C  
HETATM   19  H   UNL     2     -12.586  15.392  70.088  1.00  0.00     0.000 HD 
HETATM   20  O   UNL     2     -12.230  14.583  69.741  1.00  0.00    -0.315 OA 
HETATM   21  O   UNL     2     -10.766  17.087  69.287  1.00  0.00    -0.323 OA 
HETATM   22  O   UNL     2      -9.266  15.621  68.580  1.00  0.00    -0.188 OA 
ENDBRANCH  14  17
ENDBRANCH  11  14
ENDBRANCH   2  11
BRANCH   3  23
HETATM   23  C   UNL     3      -9.061   5.410  72.327  1.00  0.00    -0.142 C  
HETATM   24  O   UNL     3      -9.226   4.830  73.600  1.00  0.00    -0.121 OA 
HETATM   25  H   UNL     3      -9.893   4.166  73.475  1.00  0.00     0.000 HD 
BRANCH  23  26
HETATM   26  C   UNL     3     -10.531   5.531  71.717  1.00  0.00    -0.228 C  
HETATM   27  O   UNL     3     -10.330   6.092  70.443  1.00  0.00    -0.192 OA 
HETATM   28  H   UNL     3     -11.204   6.165  70.080  1.00  0.00     0.000 HD 
BRANCH  26  29
HETATM   29  C   UNL     3     -11.753   6.380  72.319  1.00  0.00    -0.290 C  
HETATM   30  C   UNL     3     -12.522   7.334  71.448  1.00  0.00    -0.383 C  
HETATM   31  O   UNL     3     -11.343   7.151  73.429  1.00  0.00    -0.560 OA 
HETATM   32  O   UNL     3     -11.922   8.426  70.941  1.00  0.00    -0.270 OA 
HETATM   33  O   UNL     3     -13.730   7.204  71.328  1.00  0.00    -0.343 OA 
HETATM   34  H   UNL     3     -12.066   7.654  73.785  1.00  0.00     0.000 HD 
ENDBRANCH  26  29
ENDBRANCH  23  26
ENDBRANCH   3  23
BRANCH   3  35
HETATM   35  C   UNL     3      -8.354   8.026  72.412  1.00  0.00    -0.153 C  
HETATM   36  O   UNL     3      -8.903   8.528  73.595  1.00  0.00    -0.249 OA 
HETATM   37  H   UNL     3      -9.148   9.443  73.521  1.00  0.00     0.000 HD 
ENDBRANCH   3  35
TORSDOF 8
ENDMDL
MODEL      103
REMARK 921   NORMALIZED FREE ENERGY PREDICTED BY IDOCK:   -5.15 KCAL/MOL
REMARK 922        TOTAL FREE ENERGY PREDICTED BY IDOCK:   -9.23 KCAL/MOL
REMARK 923 INTER-LIGAND FREE ENERGY PREDICTED BY IDOCK:   -6.63 KCAL/MOL
REMARK 924 INTRA-LIGAND FREE ENERGY PREDICTED BY IDOCK:   -2.59 KCAL/MOL
REMARK 927      BINDING AFFINITY PREDICTED BY RF-SCORE:    0.00 PKD
ROOT
HETATM    1 MN   UNL     1      -7.942  17.173  69.088  1.00  0.00    -0.214 Mn 
HETATM    2  C   UNL     2      -9.871   9.673  68.778  1.00  0.00    -0.165 C  
HETATM    3  C   UNL     3      -6.423  18.726  67.683  1.00  0.00    -0.206 C  
HETATM    4  H   UNL     3      -5.695  20.517  67.503  1.00  0.00     0.000 HD 
HETATM    5  H   UNL     2      -8.872  10.841  69.919  1.00  0.00     0.000 HD 
HETATM    6  O   UNL     2      -9.181   9.945  69.988  1.00  0.00    -0.226 OA 
HETATM    7  O   UNL     3      -5.386  19.632  67.346  1.00  0.00    -0.162 OA 
ENDROOT
BRANCH   2   8
HETATM    8  C   UNL     2     -10.372   8.220  68.891  1.00  0.00    -0.215 C  
HETATM    9  H   UNL     2      -9.739   6.467  69.561  1.00  0.00     0.000 HD 
HETATM   10  O   UNL     2      -9.430   7.363  69.492  1.00  0.00    -0.156 OA 
ENDBRANCH   2   8
BRANCH   2  11
HETATM   11  C   UNL     2      -8.901   9.963  67.565  1.00  0.00    -0.128 C  
HETATM   12  H   UNL     2      -8.544   9.230  65.767  1.00  0.00     0.000 HD 
HETATM   13  O   UNL     2      -9.126   9.056  66.497  1.00  0.00    -0.146 OA 
BRANCH  11  14
HETATM   14  C   UNL     2      -8.969  11.405  66.962  1.00  0.00    -0.166 C  
HETATM   15  H   UNL     2      -7.860  12.974  67.020  1.00  0.00     0.000 HD 
HETATM   16  O   UNL     2      -7.820  12.099  67.385  1.00  0.00    -0.149 OA 
BRANCH  14  17
HETATM   17  C   UNL     2     -10.210  12.237  67.362  1.00  0.00    -0.203 C  
HETATM   18  C   UNL     2     -10.789  12.978  66.169  1.00  0.00    -0.279 C  
HETATM   19  H   UNL     2     -10.607  13.685  68.589  1.00  0.00     0.000 HD 
HETATM   20  O   UNL     2      -9.846  13.173  68.343  1.00  0.00    -0.228 OA 
HETATM   21  O   UNL     2     -11.899  13.721  66.318  1.00  0.00    -0.357 OA 
HETATM   22  O   UNL     2     -10.309  12.856  65.043  1.00  0.00    -0.304 OA 
ENDBRANCH  14  17
ENDBRANCH  11  14
ENDBRANCH   2  11
BRANCH   3  23
HETATM   23  C   UNL     3      -7.700  19.239  66.904  1.00  0.00    -0.246 C  
HETATM   24  O   UNL     3      -7.784  18.404  65.772  1.00  0.00    -0.509 OA 
HETATM   25  H   UNL     3      -8.551  18.712  65.304  1.00  0.00     0.000 HD 
BRANCH  23  26
HETATM   26  C   UNL     3      -9.203  19.432  67.406  1.00  0.00    -0.305 C  
HETATM   27  O   UNL     3      -9.116  19.313  68.805  1.00  0.00    -0.365 OA 
HETATM   28  H   UNL     3     -10.010  19.428  69.104  1.00  0.00     0.000 HD 
BRANCH  26  29
HETATM   29  C   UNL     3     -10.468  18.520  67.024  1.00  0.00    -0.402 C  
HETATM   30  C   UNL     3     -10.589  17.121  67.561  1.00  0.00    -0.323 C  
HETATM   31  O   UNL     3     -10.597  18.385  65.625  1.00  0.00    -0.622 OA 
HETATM   32  O   UNL     3      -9.708  16.173  67.195  1.00  0.00    -0.228 OA 
HETATM   33  O   UNL     3     -11.578  16.803  68.203  1.00  0.00    -0.040 OA 
HETATM   34  H   UNL     3     -11.346  17.845  65.399  1.00  0.00     0.000 HD 
ENDBRANCH  26  29
ENDBRANCH  23  26
ENDBRANCH   3  23
BRANCH   3  35
HETATM   35  C   UNL     3      -5.914  17.267  67.422  1.00  0.00    -0.142 C  
HETATM   36  O   UNL     3      -6.963  16.354  67.278  1.00  0.00    -0.146 OA 
HETATM   37  H   UNL     3      -6.654  15.470  67.120  1.00  0.00     0.000 HD 
ENDBRANCH   3  35
TORSDOF 8
ENDMDL
MODEL      104
REMARK 921   NORMALIZED FREE ENERGY PREDICTED BY IDOCK:   -5.10 KCAL/MOL
REMARK 922        TOTAL FREE ENERGY PREDICTED BY IDOCK:   -9.17 KCAL/MOL
REMARK 923 INTER-LIGAND FREE ENERGY PREDICTED BY IDOCK:   -7.73 KCAL/MOL
REMARK 924 INTRA-LIGAND FREE ENERGY PREDICTED BY IDOCK:   -1.43 KCAL/MOL
REMARK 927      BINDING AFFINITY PREDICTED BY RF-SCORE:    0.00 PKD
ROOT
HETATM    1 MN   UNL     1      -9.861  14.375  69.583  1.00  0.00    -0.307 Mn 
HETATM    2  C   UNL     2     -10.384   7.075  72.133  1.00  0.00    -0.191 C  
HETATM    3  C   UNL     3      -9.066  15.488  67.387  1.00  0.00    -0.199 C  
HETATM    4  H   UNL     3      -8.752  17.169  66.468  1.00  0.00     0.000 HD 
HETATM    5  H   UNL     2      -9.361   8.646  72.514  1.00  0.00     0.000 HD 
HETATM    6  O   UNL     2      -9.471   7.804  72.938  1.00  0.00    -0.186 OA 
HETATM    7  O   UNL     3      -8.336  16.315  66.498  1.00  0.00    -0.248 OA 
ENDROOT
BRANCH   2   8
HETATM    8  C   UNL     2     -10.563   5.708  72.822  1.00  0.00    -0.228 C  
HETATM    9  H   UNL     2     -11.996   4.639  73.676  1.00  0.00     0.000 HD 
HETATM   10  O   UNL     2     -11.886   5.482  73.252  1.00  0.00    -0.024 OA 
ENDBRANCH   2   8
BRANCH   2  11
HETATM   11  C   UNL     2      -9.828   7.021  70.656  1.00  0.00    -0.182 C  
HETATM   12  H   UNL     2      -8.912   5.725  69.481  1.00  0.00     0.000 HD 
HETATM   13  O   UNL     2      -9.246   5.758  70.369  1.00  0.00    -0.149 OA 
BRANCH  11  14
HETATM   14  C   UNL     2     -10.865   7.315  69.522  1.00  0.00    -0.209 C  
HETATM   15  H   UNL     2     -12.185   6.296  68.565  1.00  0.00     0.000 HD 
HETATM   16  O   UNL     2     -11.555   6.118  69.254  1.00  0.00    -0.329 OA 
BRANCH  14  17
HETATM   17  C   UNL     2     -10.270   7.837  68.193  1.00  0.00    -0.202 C  
HETATM   18  C   UNL     2     -10.422   9.343  68.070  1.00  0.00    -0.228 C  
HETATM   19  H   UNL     2     -10.567   7.547  66.299  1.00  0.00     0.000 HD 
HETATM   20  O   UNL     2     -10.932   7.226  67.115  1.00  0.00    -0.327 OA 
HETATM   21  O   UNL     2      -9.924   9.981  66.997  1.00  0.00    -0.186 OA 
HETATM   22  O   UNL     2     -10.928  10.013  68.971  1.00  0.00    -0.223 OA 
ENDBRANCH  14  17
ENDBRANCH  11  14
ENDBRANCH   2  11
BRANCH   3  23
HETATM   23  C   UNL     3     -10.572  15.587  66.915  1.00  0.00    -0.307 C  
HETATM   24  O   UNL     3     -10.499  16.080  65.597  1.00  0.00    -0.358 OA 
HETATM   25  H   UNL     3     -11.404  16.139  65.314  1.00  0.00     0.000 HD 
BRANCH  23  26
HETATM   26  C   UNL     3     -11.719  14.476  66.894  1.00  0.00    -0.382 C  
HETATM   27  O   UNL     3     -12.055  14.305  68.249  1.00  0.00    -0.492 OA 
HETATM   28  H   UNL     3     -12.737  13.644  68.237  1.00  0.00     0.000 HD 
BRANCH  26  29
HETATM   29  C   UNL     3     -11.591  12.975  66.339  1.00  0.00    -0.363 C  
HETATM   30  C   UNL     3     -12.150  12.610  64.993  1.00  0.00    -0.444 C  
HETATM   31  O   UNL     3     -12.165  12.048  67.235  1.00  0.00    -0.496 OA 
HETATM   32  O   UNL     3     -13.476  12.652  64.772  1.00  0.00    -0.608 OA 
HETATM   33  O   UNL     3     -11.417  12.123  64.145  1.00  0.00    -0.339 OA 
HETATM   34  H   UNL     3     -12.089  11.159  66.906  1.00  0.00     0.000 HD 
ENDBRANCH  26  29
ENDBRANCH  23  26
ENDBRANCH   3  23
BRANCH   3  35
HETATM   35  C   UNL     3      -8.380  14.079  67.435  1.00  0.00    -0.196 C  
HETATM   36  O   UNL     3      -6.994  14.156  67.276  1.00  0.00    -0.328 OA 
HETATM   37  H   UNL     3      -6.579  13.302  67.305  1.00  0.00     0.000 HD 
ENDBRANCH   3  35
TORSDOF 8
ENDMDL
MODEL      105
REMARK 921   NORMALIZED FREE ENERGY PREDICTED BY IDOCK:   -5.09 KCAL/MOL
REMARK 922        TOTAL FREE ENERGY PREDICTED BY IDOCK:   -9.15 KCAL/MOL
REMARK 923 INTER-LIGAND FREE ENERGY PREDICTED BY IDOCK:   -6.82 KCAL/MOL
REMARK 924 INTRA-LIGAND FREE ENERGY PREDICTED BY IDOCK:   -2.33 KCAL/MOL
REMARK 927      BINDING AFFINITY PREDICTED BY RF-SCORE:    0.00 PKD
ROOT
HETATM    1 MN   UNL     1     -10.752   5.306  64.927  1.00  0.00    -0.397 Mn 
HETATM    2  C   UNL     2     -12.341  12.885  65.220  1.00  0.00    -0.490 C  
HETATM    3  C   UNL     3      -8.710   3.896  64.195  1.00  0.00    -0.111 C  
HETATM    4  H   UNL     3      -8.013   2.102  63.938  1.00  0.00     0.000 HD 
HETATM    5  H   UNL     2     -12.910  11.348  64.232  1.00  0.00     0.000 HD 
HETATM    6  O   UNL     2     -13.223  12.241  64.314  1.00  0.00    -0.785 OA 
HETATM    7  O   UNL     3      -7.926   2.941  63.499  1.00  0.00    -0.075 OA 
ENDROOT
BRANCH   2   8
HETATM    8  C   UNL     2     -12.849  14.334  65.352  1.00  0.00    -0.302 C  
HETATM    9  H   UNL     2     -13.281  15.880  64.191  1.00  0.00     0.000 HD 
HETATM   10  O   UNL     2     -12.968  14.987  64.110  1.00  0.00    -0.511 OA 
ENDBRANCH   2   8
BRANCH   2  11
HETATM   11  C   UNL     2     -10.863  12.732  64.684  1.00  0.00    -0.335 C  
HETATM   12  H   UNL     2      -9.098  13.560  64.996  1.00  0.00     0.000 HD 
HETATM   13  O   UNL     2      -9.987  13.652  65.318  1.00  0.00    -0.283 OA 
BRANCH  11  14
HETATM   14  C   UNL     2     -10.222  11.313  64.835  1.00  0.00    -0.286 C  
HETATM   15  H   UNL     2      -8.693  10.582  65.743  1.00  0.00     0.000 HD 
HETATM   16  O   UNL     2      -9.083  11.443  65.651  1.00  0.00    -0.209 OA 
BRANCH  14  17
HETATM   17  C   UNL     2      -9.796  10.629  63.515  1.00  0.00    -0.326 C  
HETATM   18  C   UNL     2      -8.838   9.478  63.769  1.00  0.00    -0.210 C  
HETATM   19  H   UNL     2      -8.901  11.152  61.876  1.00  0.00     0.000 HD 
HETATM   20  O   UNL     2      -9.163  11.571  62.687  1.00  0.00    -0.340 OA 
HETATM   21  O   UNL     2      -8.393   8.738  62.740  1.00  0.00    -0.187 OA 
HETATM   22  O   UNL     2      -8.514   9.154  64.911  1.00  0.00    -0.155 OA 
ENDBRANCH  14  17
ENDBRANCH  11  14
ENDBRANCH   2  11
BRANCH   3  23
HETATM   23  C   UNL     3      -8.271   3.779  65.709  1.00  0.00    -0.105 C  
HETATM   24  O   UNL     3      -7.033   4.450  65.773  1.00  0.00    -0.056 OA 
HETATM   25  H   UNL     3      -6.770   4.379  66.683  1.00  0.00     0.000 HD 
BRANCH  23  26
HETATM   26  C   UNL     3      -9.050   4.190  67.040  1.00  0.00    -0.143 C  
HETATM   27  O   UNL     3     -10.408   4.042  66.704  1.00  0.00    -0.287 OA 
HETATM   28  H   UNL     3     -10.872   4.286  67.496  1.00  0.00     0.000 HD 
BRANCH  26  29
HETATM   29  C   UNL     3      -8.995   5.611  67.785  1.00  0.00    -0.107 C  
HETATM   30  C   UNL     3     -10.189   6.524  67.777  1.00  0.00    -0.167 C  
HETATM   31  O   UNL     3      -7.930   6.402  67.301  1.00  0.00    -0.110 OA 
HETATM   32  O   UNL     3     -10.623   7.067  66.625  1.00  0.00    -0.239 OA 
HETATM   33  O   UNL     3     -10.671   6.900  68.834  1.00  0.00    -0.216 OA 
HETATM   34  H   UNL     3      -7.897   7.243  67.741  1.00  0.00     0.000 HD 
ENDBRANCH  26  29
ENDBRANCH  23  26
ENDBRANCH   3  23
BRANCH   3  35
HETATM   35  C   UNL     3      -8.567   5.279  63.471  1.00  0.00    -0.048 C  
HETATM   36  O   UNL     3      -8.662   6.356  64.356  1.00  0.00    -0.336 OA 
HETATM   37  H   UNL     3      -8.575   7.195  63.918  1.00  0.00     0.000 HD 
ENDBRANCH   3  35
TORSDOF 8
ENDMDL
MODEL      106
REMARK 921   NORMALIZED FREE ENERGY PREDICTED BY IDOCK:   -5.08 KCAL/MOL
REMARK 922        TOTAL FREE ENERGY PREDICTED BY IDOCK:   -9.14 KCAL/MOL
REMARK 923 INTER-LIGAND FREE ENERGY PREDICTED BY IDOCK:   -7.93 KCAL/MOL
REMARK 924 INTRA-LIGAND FREE ENERGY PREDICTED BY IDOCK:   -1.21 KCAL/MOL
REMARK 927      BINDING AFFINITY PREDICTED BY RF-SCORE:    0.00 PKD
ROOT
HETATM    1 MN   UNL     1      -9.984  11.284  65.381  1.00  0.00    -0.196 Mn 
HETATM    2  C   UNL     2      -6.915   6.971  71.041  1.00  0.00    -0.065 C  
HETATM    3  C   UNL     3     -11.913  13.002  65.238  1.00  0.00    -0.407 C  
HETATM    4  H   UNL     3     -12.942  14.158  64.066  1.00  0.00     0.000 HD 
HETATM    5  H   UNL     2      -7.927   6.707  69.439  1.00  0.00     0.000 HD 
HETATM    6  O   UNL     2      -7.469   6.131  70.041  1.00  0.00    -0.082 OA 
HETATM    7  O   UNL     3     -13.120  13.624  64.831  1.00  0.00    -0.713 OA 
ENDROOT
BRANCH   2   8
HETATM    8  C   UNL     2      -6.171   6.038  72.017  1.00  0.00    -0.041 C  
HETATM    9  H   UNL     2      -6.580   4.817  73.523  1.00  0.00     0.000 HD 
HETATM   10  O   UNL     2      -7.038   5.392  72.921  1.00  0.00    -0.084 OA 
ENDBRANCH   2   8
BRANCH   2  11
HETATM   11  C   UNL     2      -8.074   7.834  71.680  1.00  0.00    -0.105 C  
HETATM   12  H   UNL     2      -8.283   9.594  72.549  1.00  0.00     0.000 HD 
HETATM   13  O   UNL     2      -7.586   9.075  72.165  1.00  0.00    -0.344 OA 
BRANCH  11  14
HETATM   14  C   UNL     2      -9.286   8.153  70.744  1.00  0.00    -0.150 C  
HETATM   15  H   UNL     2      -9.739   9.555  69.508  1.00  0.00     0.000 HD 
HETATM   16  O   UNL     2      -9.003   9.360  70.077  1.00  0.00    -0.175 OA 
BRANCH  14  17
HETATM   17  C   UNL     2     -10.654   8.301  71.450  1.00  0.00    -0.223 C  
HETATM   18  C   UNL     2     -11.731   7.492  70.749  1.00  0.00    -0.256 C  
HETATM   19  H   UNL     2     -11.872   9.744  71.886  1.00  0.00     0.000 HD 
HETATM   20  O   UNL     2     -11.033   9.654  71.453  1.00  0.00    -0.360 OA 
HETATM   21  O   UNL     2     -12.979   7.465  71.248  1.00  0.00    -0.351 OA 
HETATM   22  O   UNL     2     -11.474   6.793  69.770  1.00  0.00    -0.304 OA 
ENDBRANCH  14  17
ENDBRANCH  11  14
ENDBRANCH   2  11
BRANCH   3  23
HETATM   23  C   UNL     3     -10.855  14.171  65.354  1.00  0.00    -0.337 C  
HETATM   24  O   UNL     3     -10.068  14.055  64.190  1.00  0.00    -0.617 OA 
HETATM   25  H   UNL     3      -9.433  14.757  64.260  1.00  0.00     0.000 HD 
BRANCH  23  26
HETATM   26  C   UNL     3     -11.072  15.738  65.569  1.00  0.00    -0.190 C  
HETATM   27  O   UNL     3     -11.265  16.241  64.270  1.00  0.00    -1.101 OA 
HETATM   28  H   UNL     3     -11.394  17.173  64.398  1.00  0.00     0.000 HD 
BRANCH  26  29
HETATM   29  C   UNL     3     -10.032  16.769  66.227  1.00  0.00    -0.320 C  
HETATM   30  C   UNL     3     -10.416  18.206  66.443  1.00  0.00    -0.350 C  
HETATM   31  O   UNL     3      -8.828  16.822  65.491  1.00  0.00    -0.354 OA 
HETATM   32  O   UNL     3     -10.657  19.012  65.393  1.00  0.00    -0.517 OA 
HETATM   33  O   UNL     3     -10.356  18.686  67.564  1.00  0.00    -0.367 OA 
HETATM   34  H   UNL     3      -8.213  17.432  65.880  1.00  0.00     0.000 HD 
ENDBRANCH  26  29
ENDBRANCH  23  26
ENDBRANCH   3  23
BRANCH   3  35
HETATM   35  C   UNL     3     -12.207  12.121  66.501  1.00  0.00     0.360 C  
HETATM   36  O   UNL     3     -11.307  12.365  67.541  1.00  0.00    -0.274 OA 
HETATM   37  H   UNL     3     -11.485  11.830  68.307  1.00  0.00     0.000 HD 
ENDBRANCH   3  35
TORSDOF 8
ENDMDL
MODEL      107
REMARK 921   NORMALIZED FREE ENERGY PREDICTED BY IDOCK:   -5.05 KCAL/MOL
REMARK 922        TOTAL FREE ENERGY PREDICTED BY IDOCK:   -9.09 KCAL/MOL
REMARK 923 INTER-LIGAND FREE ENERGY PREDICTED BY IDOCK:   -7.72 KCAL/MOL
REMARK 924 INTRA-LIGAND FREE ENERGY PREDICTED BY IDOCK:   -1.37 KCAL/MOL
REMARK 927      BINDING AFFINITY PREDICTED BY RF-SCORE:    0.00 PKD
ROOT
HETATM    1 MN   UNL     1      -9.153  14.035  69.935  1.00  0.00    -0.319 Mn 
HETATM    2  C   UNL     2      -9.488   6.304  70.338  1.00  0.00    -0.161 C  
HETATM    3  C   UNL     3     -10.216  15.831  68.406  1.00  0.00    -0.223 C  
HETATM    4  H   UNL     3     -10.312  17.725  67.989  1.00  0.00     0.000 HD 
HETATM    5  H   UNL     2      -8.204   7.652  69.899  1.00  0.00     0.000 HD 
HETATM    6  O   UNL     2      -8.162   6.715  70.050  1.00  0.00    -0.125 OA 
HETATM    7  O   UNL     3     -10.332  16.912  67.496  1.00  0.00    -0.301 OA 
ENDROOT
BRANCH   2   8
HETATM    8  C   UNL     2      -9.420   4.783  70.583  1.00  0.00    -0.171 C  
HETATM    9  H   UNL     2     -10.298   3.408  71.706  1.00  0.00     0.000 HD 
HETATM   10  O   UNL     2     -10.340   4.345  71.555  1.00  0.00    -0.139 OA 
ENDBRANCH   2   8
BRANCH   2  11
HETATM   11  C   UNL     2     -10.430   6.757  69.153  1.00  0.00    -0.216 C  
HETATM   12  H   UNL     2     -11.248   8.425  68.487  1.00  0.00     0.000 HD 
HETATM   13  O   UNL     2     -10.682   8.153  69.200  1.00  0.00    -0.197 OA 
BRANCH  11  14
HETATM   14  C   UNL     2      -9.920   6.432  67.711  1.00  0.00    -0.128 C  
HETATM   15  H   UNL     2     -10.179   7.178  65.958  1.00  0.00     0.000 HD 
HETATM   16  O   UNL     2     -10.488   7.375  66.834  1.00  0.00    -0.302 OA 
BRANCH  14  17
HETATM   17  C   UNL     2     -10.261   5.017  67.185  1.00  0.00    -0.186 C  
HETATM   18  C   UNL     2      -9.009   4.181  66.988  1.00  0.00    -0.127 C  
HETATM   19  H   UNL     2     -11.140   4.259  65.632  1.00  0.00     0.000 HD 
HETATM   20  O   UNL     2     -10.931   5.127  65.955  1.00  0.00    -0.214 OA 
HETATM   21  O   UNL     2      -9.113   2.906  66.575  1.00  0.00    -0.148 OA 
HETATM   22  O   UNL     2      -7.894   4.619  67.269  1.00  0.00    -0.089 OA 
ENDBRANCH  14  17
ENDBRANCH  11  14
ENDBRANCH   2  11
BRANCH   3  23
HETATM   23  C   UNL     3     -11.324  16.084  69.505  1.00  0.00    -0.344 C  
HETATM   24  O   UNL     3     -12.529  15.686  68.892  1.00  0.00    -0.572 OA 
HETATM   25  H   UNL     3     -13.194  15.838  69.552  1.00  0.00     0.000 HD 
BRANCH  23  26
HETATM   26  C   UNL     3     -11.417  15.563  71.011  1.00  0.00    -0.383 C  
HETATM   27  O   UNL     3     -11.586  14.173  70.884  1.00  0.00    -0.509 OA 
HETATM   28  H   UNL     3     -11.641  13.863  71.780  1.00  0.00     0.000 HD 
BRANCH  26  29
HETATM   29  C   UNL     3     -12.513  15.983  72.106  1.00  0.00    -0.454 C  
HETATM   30  C   UNL     3     -12.593  15.261  73.422  1.00  0.00    -0.525 C  
HETATM   31  O   UNL     3     -13.819  15.916  71.574  1.00  0.00    -0.418 OA 
HETATM   32  O   UNL     3     -12.945  13.964  73.465  1.00  0.00    -0.292 OA 
HETATM   33  O   UNL     3     -12.492  15.889  74.464  1.00  0.00    -0.634 OA 
HETATM   34  H   UNL     3     -14.468  16.165  72.222  1.00  0.00     0.000 HD 
ENDBRANCH  26  29
ENDBRANCH  23  26
ENDBRANCH   3  23
BRANCH   3  35
HETATM   35  C   UNL     3     -10.249  14.491  67.593  1.00  0.00    -0.225 C  
HETATM   36  O   UNL     3     -11.149  14.537  66.525  1.00  0.00    -0.318 OA 
HETATM   37  H   UNL     3     -11.168  13.725  66.032  1.00  0.00     0.000 HD 
ENDBRANCH   3  35
TORSDOF 8
ENDMDL
MODEL      108
REMARK 921   NORMALIZED FREE ENERGY PREDICTED BY IDOCK:   -5.05 KCAL/MOL
REMARK 922        TOTAL FREE ENERGY PREDICTED BY IDOCK:   -9.08 KCAL/MOL
REMARK 923 INTER-LIGAND FREE ENERGY PREDICTED BY IDOCK:   -6.83 KCAL/MOL
REMARK 924 INTRA-LIGAND FREE ENERGY PREDICTED BY IDOCK:   -2.25 KCAL/MOL
REMARK 927      BINDING AFFINITY PREDICTED BY RF-SCORE:    0.00 PKD
ROOT
HETATM    1 MN   UNL     1     -11.267  11.831  65.246  1.00  0.00    -0.276 Mn 
HETATM    2  C   UNL     2      -9.079   4.459  66.205  1.00  0.00    -0.130 C  
HETATM    3  C   UNL     3     -11.267  13.944  66.740  1.00  0.00    -0.318 C  
HETATM    4  H   UNL     3     -11.758  15.818  66.861  1.00  0.00     0.000 HD 
HETATM    5  H   UNL     2     -10.703   5.443  65.970  1.00  0.00     0.000 HD 
HETATM    6  O   UNL     2     -10.476   4.521  65.963  1.00  0.00    -0.277 OA 
HETATM    7  O   UNL     3     -11.737  15.076  67.453  1.00  0.00    -0.338 OA 
ENDROOT
BRANCH   2   8
HETATM    8  C   UNL     2      -8.710   2.962  66.194  1.00  0.00    -0.133 C  
HETATM    9  H   UNL     2      -9.128   1.326  65.159  1.00  0.00     0.000 HD 
HETATM   10  O   UNL     2      -9.356   2.249  65.166  1.00  0.00    -0.130 OA 
ENDBRANCH   2   8
BRANCH   2  11
HETATM   11  C   UNL     2      -8.762   5.225  67.549  1.00  0.00    -0.106 C  
HETATM   12  H   UNL     2      -7.263   5.390  68.824  1.00  0.00     0.000 HD 
HETATM   13  O   UNL     2      -7.454   4.929  68.016  1.00  0.00    -0.073 OA 
BRANCH  11  14
HETATM   14  C   UNL     2      -8.886   6.783  67.496  1.00  0.00    -0.117 C  
HETATM   15  H   UNL     2      -7.659   8.264  67.496  1.00  0.00     0.000 HD 
HETATM   16  O   UNL     2      -7.584   7.317  67.528  1.00  0.00    -0.104 OA 
BRANCH  14  17
HETATM   17  C   UNL     2      -9.700   7.427  68.644  1.00  0.00    -0.152 C  
HETATM   18  C   UNL     2     -10.317   8.747  68.215  1.00  0.00    -0.207 C  
HETATM   19  H   UNL     2      -9.354   8.054  70.445  1.00  0.00     0.000 HD 
HETATM   20  O   UNL     2      -8.854   7.658  69.741  1.00  0.00    -0.139 OA 
HETATM   21  O   UNL     2     -11.096   9.431  69.069  1.00  0.00    -0.125 OA 
HETATM   22  O   UNL     2     -10.183   9.175  67.069  1.00  0.00    -0.226 OA 
ENDBRANCH  14  17
ENDBRANCH  11  14
ENDBRANCH   2  11
BRANCH   3  23
HETATM   23  C   UNL     3      -9.922  14.408  66.051  1.00  0.00    -0.317 C  
HETATM   24  O   UNL     3     -10.140  14.205  64.674  1.00  0.00    -0.587 OA 
HETATM   25  H   UNL     3      -9.332  14.484  64.260  1.00  0.00     0.000 HD 
BRANCH  23  26
HETATM   26  C   UNL     3      -9.134  15.792  66.161  1.00  0.00    -0.342 C  
HETATM   27  O   UNL     3      -9.011  16.009  67.545  1.00  0.00    -0.191 OA 
HETATM   28  H   UNL     3      -8.543  16.833  67.611  1.00  0.00     0.000 HD 
BRANCH  26  29
HETATM   29  C   UNL     3      -9.612  17.216  65.592  1.00  0.00     0.175 C  
HETATM   30  C   UNL     3      -9.816  18.379  66.522  1.00  0.00    -0.359 C  
HETATM   31  O   UNL     3     -10.825  17.101  64.880  1.00  0.00    -0.751 OA 
HETATM   32  O   UNL     3     -10.789  18.345  67.450  1.00  0.00    -0.403 OA 
HETATM   33  O   UNL     3      -9.203  19.418  66.334  1.00  0.00    -0.335 OA 
HETATM   34  H   UNL     3     -11.108  17.944  64.544  1.00  0.00     0.000 HD 
ENDBRANCH  26  29
ENDBRANCH  23  26
ENDBRANCH   3  23
BRANCH   3  35
HETATM   35  C   UNL     3     -11.232  12.719  67.718  1.00  0.00    -0.275 C  
HETATM   36  O   UNL     3     -12.106  11.701  67.328  1.00  0.00    -0.595 OA 
HETATM   37  H   UNL     3     -12.084  10.958  67.920  1.00  0.00     0.000 HD 
ENDBRANCH   3  35
TORSDOF 8
ENDMDL
MODEL      109
REMARK 921   NORMALIZED FREE ENERGY PREDICTED BY IDOCK:   -5.04 KCAL/MOL
REMARK 922        TOTAL FREE ENERGY PREDICTED BY IDOCK:   -9.08 KCAL/MOL
REMARK 923 INTER-LIGAND FREE ENERGY PREDICTED BY IDOCK:   -7.51 KCAL/MOL
REMARK 924 INTRA-LIGAND FREE ENERGY PREDICTED BY IDOCK:   -1.57 KCAL/MOL
REMARK 927      BINDING AFFINITY PREDICTED BY RF-SCORE:    0.00 PKD
ROOT
HETATM    1 MN   UNL     1     -10.840   5.199  64.956  1.00  0.00    -0.399 Mn 
HETATM    2  C   UNL     2     -12.330  12.804  64.901  1.00  0.00    -0.490 C  
HETATM    3  C   UNL     3      -8.702   3.760  65.181  1.00  0.00    -0.116 C  
HETATM    4  H   UNL     3      -7.978   1.958  65.178  1.00  0.00     0.000 HD 
HETATM    5  H   UNL     2     -12.383  11.334  63.677  1.00  0.00     0.000 HD 
HETATM    6  O   UNL     2     -12.691  12.232  63.654  1.00  0.00    -0.713 OA 
HETATM    7  O   UNL     3      -7.691   2.813  64.878  1.00  0.00    -0.075 OA 
ENDROOT
BRANCH   2   8
HETATM    8  C   UNL     2     -12.831  14.261  64.863  1.00  0.00    -0.104 C  
HETATM    9  H   UNL     2     -12.999  15.752  63.569  1.00  0.00     0.000 HD 
HETATM   10  O   UNL     2     -12.690  14.854  63.593  1.00  0.00    -0.689 OA 
ENDBRANCH   2   8
BRANCH   2  11
HETATM   11  C   UNL     2     -10.773  12.628  65.107  1.00  0.00    -0.292 C  
HETATM   12  H   UNL     2      -9.190  13.779  65.369  1.00  0.00     0.000 HD 
HETATM   13  O   UNL     2     -10.126  13.884  65.245  1.00  0.00    -0.334 OA 
BRANCH  11  14
HETATM   14  C   UNL     2     -10.338  11.754  66.329  1.00  0.00    -0.224 C  
HETATM   15  H   UNL     2      -9.774   9.935  66.590  1.00  0.00     0.000 HD 
HETATM   16  O   UNL     2     -10.038  10.466  65.848  1.00  0.00    -0.247 OA 
BRANCH  14  17
HETATM   17  C   UNL     2     -11.388  11.615  67.458  1.00  0.00    -0.298 C  
HETATM   18  C   UNL     2     -10.997  12.423  68.683  1.00  0.00    -0.247 C  
HETATM   19  H   UNL     2     -12.145  10.179  68.516  1.00  0.00     0.000 HD 
HETATM   20  O   UNL     2     -11.501  10.264  67.824  1.00  0.00    -0.351 OA 
HETATM   21  O   UNL     2     -11.812  12.457  69.750  1.00  0.00    -0.317 OA 
HETATM   22  O   UNL     2      -9.979  13.115  68.697  1.00  0.00    -0.204 OA 
ENDBRANCH  14  17
ENDBRANCH  11  14
ENDBRANCH   2  11
BRANCH   3  23
HETATM   23  C   UNL     3      -9.021   3.559  66.716  1.00  0.00    -0.150 C  
HETATM   24  O   UNL     3      -8.102   2.581  67.145  1.00  0.00    -0.073 OA 
HETATM   25  H   UNL     3      -8.294   2.461  68.067  1.00  0.00     0.000 HD 
BRANCH  23  26
HETATM   26  C   UNL     3      -9.095   4.627  67.900  1.00  0.00    -0.119 C  
HETATM   27  O   UNL     3      -9.603   3.898  68.990  1.00  0.00    -0.175 OA 
HETATM   28  H   UNL     3      -9.648   4.534  69.694  1.00  0.00     0.000 HD 
BRANCH  26  29
HETATM   29  C   UNL     3      -9.953   5.984  67.915  1.00  0.00    -0.131 C  
HETATM   30  C   UNL     3     -10.478   6.540  69.209  1.00  0.00    -0.219 C  
HETATM   31  O   UNL     3     -11.084   5.884  67.076  1.00  0.00    -0.517 OA 
HETATM   32  O   UNL     3     -11.404   5.865  69.913  1.00  0.00    -0.364 OA 
HETATM   33  O   UNL     3     -10.183   7.676  69.544  1.00  0.00    -0.198 OA 
HETATM   34  H   UNL     3     -11.592   6.687  67.086  1.00  0.00     0.000 HD 
ENDBRANCH  26  29
ENDBRANCH  23  26
ENDBRANCH   3  23
BRANCH   3  35
HETATM   35  C   UNL     3      -8.228   5.170  64.686  1.00  0.00    -0.132 C  
HETATM   36  O   UNL     3      -8.951   5.615  63.576  1.00  0.00    -0.334 OA 
HETATM   37  H   UNL     3      -8.664   6.470  63.276  1.00  0.00     0.000 HD 
ENDBRANCH   3  35
TORSDOF 8
ENDMDL
MODEL      110
REMARK 921   NORMALIZED FREE ENERGY PREDICTED BY IDOCK:   -5.04 KCAL/MOL
REMARK 922        TOTAL FREE ENERGY PREDICTED BY IDOCK:   -9.07 KCAL/MOL
REMARK 923 INTER-LIGAND FREE ENERGY PREDICTED BY IDOCK:   -6.76 KCAL/MOL
REMARK 924 INTRA-LIGAND FREE ENERGY PREDICTED BY IDOCK:   -2.31 KCAL/MOL
REMARK 927      BINDING AFFINITY PREDICTED BY RF-SCORE:    0.00 PKD
ROOT
HETATM    1 MN   UNL     1     -12.593  11.847  67.712  1.00  0.00    -0.214 Mn 
HETATM    2  C   UNL     2      -9.287   5.104  69.626  1.00  0.00    -0.129 C  
HETATM    3  C   UNL     3     -11.925  14.336  67.939  1.00  0.00    -0.329 C  
HETATM    4  H   UNL     3     -12.481  16.174  67.653  1.00  0.00     0.000 HD 
HETATM    5  H   UNL     2     -10.795   6.153  70.162  1.00  0.00     0.000 HD 
HETATM    6  O   UNL     2     -10.498   5.270  70.347  1.00  0.00    -0.271 OA 
HETATM    7  O   UNL     3     -11.976  15.704  68.307  1.00  0.00    -0.246 OA 
ENDROOT
BRANCH   2   8
HETATM    8  C   UNL     2      -8.805   3.671  69.926  1.00  0.00    -0.090 C  
HETATM    9  H   UNL     2      -9.412   1.803  69.664  1.00  0.00     0.000 HD 
HETATM   10  O   UNL     2      -9.709   2.686  69.479  1.00  0.00    -0.047 OA 
ENDBRANCH   2   8
BRANCH   2  11
HETATM   11  C   UNL     2      -8.287   6.255  70.039  1.00  0.00    -0.129 C  
HETATM   12  H   UNL     2      -7.002   7.467  69.158  1.00  0.00     0.000 HD 
HETATM   13  O   UNL     2      -7.603   6.774  68.909  1.00  0.00    -0.100 OA 
BRANCH  11  14
HETATM   14  C   UNL     2      -8.918   7.473  70.792  1.00  0.00    -0.149 C  
HETATM   15  H   UNL     2      -9.614   9.192  70.288  1.00  0.00     0.000 HD 
HETATM   16  O   UNL     2      -9.231   8.453  69.832  1.00  0.00    -0.149 OA 
BRANCH  14  17
HETATM   17  C   UNL     2      -8.023   8.124  71.873  1.00  0.00    -0.121 C  
HETATM   18  C   UNL     2      -8.753   8.245  73.199  1.00  0.00    -0.221 C  
HETATM   19  H   UNL     2      -7.092   9.808  72.111  1.00  0.00     0.000 HD 
HETATM   20  O   UNL     2      -7.641   9.407  71.448  1.00  0.00    -0.340 OA 
HETATM   21  O   UNL     2      -8.117   8.750  74.269  1.00  0.00    -0.341 OA 
HETATM   22  O   UNL     2      -9.899   7.819  73.342  1.00  0.00    -0.290 OA 
ENDBRANCH  14  17
ENDBRANCH  11  14
ENDBRANCH   2  11
BRANCH   3  23
HETATM   23  C   UNL     3     -11.431  14.321  66.437  1.00  0.00    -0.355 C  
HETATM   24  O   UNL     3     -10.209  15.021  66.458  1.00  0.00    -0.262 OA 
HETATM   25  H   UNL     3      -9.913  15.011  65.556  1.00  0.00     0.000 HD 
BRANCH  23  26
HETATM   26  C   UNL     3     -11.206  13.094  65.441  1.00  0.00    -0.291 C  
HETATM   27  O   UNL     3     -12.358  12.304  65.602  1.00  0.00    -0.619 OA 
HETATM   28  H   UNL     3     -12.224  11.574  65.010  1.00  0.00     0.000 HD 
BRANCH  26  29
HETATM   29  C   UNL     3     -10.004  12.030  65.485  1.00  0.00    -0.241 C  
HETATM   30  C   UNL     3     -10.218  10.662  66.069  1.00  0.00    -0.247 C  
HETATM   31  O   UNL     3      -8.887  12.549  66.174  1.00  0.00    -0.419 OA 
HETATM   32  O   UNL     3     -10.488  10.516  67.379  1.00  0.00    -0.213 OA 
HETATM   33  O   UNL     3      -9.992   9.672  65.390  1.00  0.00    -0.316 OA 
HETATM   34  H   UNL     3      -8.176  11.920  66.200  1.00  0.00     0.000 HD 
ENDBRANCH  26  29
ENDBRANCH  23  26
ENDBRANCH   3  23
BRANCH   3  35
HETATM   35  C   UNL     3     -11.092  13.561  69.017  1.00  0.00    -0.250 C  
HETATM   36  O   UNL     3      -9.729  13.521  68.709  1.00  0.00    -0.385 OA 
HETATM   37  H   UNL     3      -9.224  13.051  69.363  1.00  0.00     0.000 HD 
ENDBRANCH   3  35
TORSDOF 8
ENDMDL
MODEL      111
REMARK 921   NORMALIZED FREE ENERGY PREDICTED BY IDOCK:   -5.04 KCAL/MOL
REMARK 922        TOTAL FREE ENERGY PREDICTED BY IDOCK:   -9.07 KCAL/MOL
REMARK 923 INTER-LIGAND FREE ENERGY PREDICTED BY IDOCK:   -7.77 KCAL/MOL
REMARK 924 INTRA-LIGAND FREE ENERGY PREDICTED BY IDOCK:   -1.30 KCAL/MOL
REMARK 927      BINDING AFFINITY PREDICTED BY RF-SCORE:    0.00 PKD
ROOT
HETATM    1 MN   UNL     1     -11.469  13.544  68.554  1.00  0.00    -0.217 Mn 
HETATM    2  C   UNL     2     -11.244   6.560  71.904  1.00  0.00    -0.272 C  
HETATM    3  C   UNL     3     -10.171  14.689  66.630  1.00  0.00    -0.274 C  
HETATM    4  H   UNL     3      -9.923  16.329  65.622  1.00  0.00     0.000 HD 
HETATM    5  H   UNL     2     -10.833   8.372  72.361  1.00  0.00     0.000 HD 
HETATM    6  O   UNL     2     -10.901   7.560  72.850  1.00  0.00    -0.307 OA 
HETATM    7  O   UNL     3      -9.366  15.625  65.934  1.00  0.00    -0.335 OA 
ENDROOT
BRANCH   2   8
HETATM    8  C   UNL     2     -11.355   5.243  72.697  1.00  0.00    -0.231 C  
HETATM    9  H   UNL     2     -10.571   4.397  74.308  1.00  0.00     0.000 HD 
HETATM   10  O   UNL     2     -10.503   5.208  73.819  1.00  0.00    -0.213 OA 
ENDBRANCH   2   8
BRANCH   2  11
HETATM   11  C   UNL     2     -10.167   6.565  70.748  1.00  0.00    -0.187 C  
HETATM   12  H   UNL     2      -9.906   5.716  68.984  1.00  0.00     0.000 HD 
HETATM   13  O   UNL     2     -10.553   5.713  69.680  1.00  0.00    -0.282 OA 
BRANCH  11  14
HETATM   14  C   UNL     2      -9.838   7.961  70.123  1.00  0.00    -0.184 C  
HETATM   15  H   UNL     2     -10.413   8.947  68.577  1.00  0.00     0.000 HD 
HETATM   16  O   UNL     2     -10.613   8.100  68.956  1.00  0.00    -0.215 OA 
BRANCH  14  17
HETATM   17  C   UNL     2      -8.355   8.191  69.749  1.00  0.00    -0.124 C  
HETATM   18  C   UNL     2      -7.558   8.711  70.932  1.00  0.00    -0.090 C  
HETATM   19  H   UNL     2      -7.369   9.270  68.475  1.00  0.00     0.000 HD 
HETATM   20  O   UNL     2      -8.279   9.128  68.705  1.00  0.00    -0.111 OA 
HETATM   21  O   UNL     2      -6.238   8.930  70.805  1.00  0.00    -0.035 OA 
HETATM   22  O   UNL     2      -8.077   8.868  72.036  1.00  0.00    -0.355 OA 
ENDBRANCH  14  17
ENDBRANCH  11  14
ENDBRANCH   2  11
BRANCH   3  23
HETATM   23  C   UNL     3     -11.360  14.341  65.647  1.00  0.00    -0.317 C  
HETATM   24  O   UNL     3     -10.915  14.778  64.384  1.00  0.00    -0.612 OA 
HETATM   25  H   UNL     3     -11.629  14.569  63.793  1.00  0.00     0.000 HD 
BRANCH  23  26
HETATM   26  C   UNL     3     -12.106  12.955  65.384  1.00  0.00    -0.454 C  
HETATM   27  O   UNL     3     -11.943  12.243  66.586  1.00  0.00    -0.598 OA 
HETATM   28  H   UNL     3     -12.386  11.418  66.429  1.00  0.00     0.000 HD 
BRANCH  26  29
HETATM   29  C   UNL     3     -11.751  11.875  64.250  1.00  0.00    -0.303 C  
HETATM   30  C   UNL     3     -10.329  11.440  64.028  1.00  0.00    -0.362 C  
HETATM   31  O   UNL     3     -12.204  12.298  62.981  1.00  0.00    -0.687 OA 
HETATM   32  O   UNL     3      -9.412  12.315  63.579  1.00  0.00    -0.167 OA 
HETATM   33  O   UNL     3     -10.040  10.256  64.104  1.00  0.00    -0.287 OA 
HETATM   34  H   UNL     3     -11.994  11.659  62.310  1.00  0.00     0.000 HD 
ENDBRANCH  26  29
ENDBRANCH  23  26
ENDBRANCH   3  23
BRANCH   3  35
HETATM   35  C   UNL     3      -9.253  13.527  67.145  1.00  0.00    -0.236 C  
HETATM   36  O   UNL     3      -9.362  13.334  68.525  1.00  0.00    -0.315 OA 
HETATM   37  H   UNL     3      -8.805  12.630  68.837  1.00  0.00     0.000 HD 
ENDBRANCH   3  35
TORSDOF 8
ENDMDL
MODEL      112
REMARK 921   NORMALIZED FREE ENERGY PREDICTED BY IDOCK:   -5.03 KCAL/MOL
REMARK 922        TOTAL FREE ENERGY PREDICTED BY IDOCK:   -9.06 KCAL/MOL
REMARK 923 INTER-LIGAND FREE ENERGY PREDICTED BY IDOCK:   -7.91 KCAL/MOL
REMARK 924 INTRA-LIGAND FREE ENERGY PREDICTED BY IDOCK:   -1.15 KCAL/MOL
REMARK 927      BINDING AFFINITY PREDICTED BY RF-SCORE:    0.00 PKD
ROOT
HETATM    1 MN   UNL     1     -12.264  11.461  66.470  1.00  0.00    -0.193 Mn 
HETATM    2  C   UNL     2      -9.955   4.261  64.772  1.00  0.00    -0.150 C  
HETATM    3  C   UNL     3     -11.870  13.087  68.444  1.00  0.00    -0.334 C  
HETATM    4  H   UNL     3     -12.301  14.823  69.198  1.00  0.00     0.000 HD 
HETATM    5  H   UNL     2     -11.578   5.166  65.227  1.00  0.00     0.000 HD 
HETATM    6  O   UNL     2     -11.366   4.296  64.909  1.00  0.00    -0.278 OA 
HETATM    7  O   UNL     3     -12.135  13.951  69.536  1.00  0.00    -0.321 OA 
ENDROOT
BRANCH   2   8
HETATM    8  C   UNL     2      -9.611   2.850  64.256  1.00  0.00    -0.152 C  
HETATM    9  H   UNL     2      -8.689   2.003  62.721  1.00  0.00     0.000 HD 
HETATM   10  O   UNL     2      -8.901   2.873  63.039  1.00  0.00    -0.088 OA 
ENDBRANCH   2   8
BRANCH   2  11
HETATM   11  C   UNL     2      -9.300   4.654  66.155  1.00  0.00    -0.153 C  
HETATM   12  H   UNL     2      -7.737   4.126  67.240  1.00  0.00     0.000 HD 
HETATM   13  O   UNL     2      -8.131   3.890  66.409  1.00  0.00    -0.096 OA 
BRANCH  11  14
HETATM   14  C   UNL     2      -8.909   6.159  66.326  1.00  0.00    -0.146 C  
HETATM   15  H   UNL     2      -7.508   7.124  67.220  1.00  0.00     0.000 HD 
HETATM   16  O   UNL     2      -7.746   6.211  67.117  1.00  0.00    -0.098 OA 
BRANCH  14  17
HETATM   17  C   UNL     2      -9.982   7.057  66.986  1.00  0.00    -0.210 C  
HETATM   18  C   UNL     2      -9.945   8.468  66.427  1.00  0.00    -0.244 C  
HETATM   19  H   UNL     2     -10.412   7.663  68.777  1.00  0.00     0.000 HD 
HETATM   20  O   UNL     2      -9.754   7.112  68.371  1.00  0.00    -0.140 OA 
HETATM   21  O   UNL     2     -10.836   9.380  66.853  1.00  0.00    -0.149 OA 
HETATM   22  O   UNL     2      -9.163   8.784  65.531  1.00  0.00    -0.203 OA 
ENDBRANCH  14  17
ENDBRANCH  11  14
ENDBRANCH   2  11
BRANCH   3  23
HETATM   23  C   UNL     3     -10.741  13.806  67.602  1.00  0.00    -0.249 C  
HETATM   24  O   UNL     3      -9.649  13.907  68.486  1.00  0.00    -0.213 OA 
HETATM   25  H   UNL     3      -8.971  14.339  67.979  1.00  0.00     0.000 HD 
BRANCH  23  26
HETATM   26  C   UNL     3     -10.113  13.422  66.185  1.00  0.00    -0.302 C  
HETATM   27  O   UNL     3      -8.813  13.957  66.229  1.00  0.00    -0.462 OA 
HETATM   28  H   UNL     3      -8.439  13.729  65.386  1.00  0.00     0.000 HD 
BRANCH  26  29
HETATM   29  C   UNL     3     -10.659  13.864  64.742  1.00  0.00    -0.426 C  
HETATM   30  C   UNL     3     -12.134  13.857  64.450  1.00  0.00    -0.443 C  
HETATM   31  O   UNL     3     -10.082  13.085  63.716  1.00  0.00    -0.710 OA 
HETATM   32  O   UNL     3     -12.819  12.700  64.431  1.00  0.00    -0.712 OA 
HETATM   33  O   UNL     3     -12.681  14.883  64.074  1.00  0.00    -0.792 OA 
HETATM   34  H   UNL     3     -10.405  13.347  62.861  1.00  0.00     0.000 HD 
ENDBRANCH  26  29
ENDBRANCH  23  26
ENDBRANCH   3  23
BRANCH   3  35
HETATM   35  C   UNL     3     -11.595  11.648  69.002  1.00  0.00    -0.316 C  
HETATM   36  O   UNL     3     -12.248  11.414  70.216  1.00  0.00    -0.332 OA 
HETATM   37  H   UNL     3     -12.081  10.541  70.554  1.00  0.00     0.000 HD 
ENDBRANCH   3  35
TORSDOF 8
ENDMDL
MODEL      113
REMARK 921   NORMALIZED FREE ENERGY PREDICTED BY IDOCK:   -5.02 KCAL/MOL
REMARK 922        TOTAL FREE ENERGY PREDICTED BY IDOCK:   -9.05 KCAL/MOL
REMARK 923 INTER-LIGAND FREE ENERGY PREDICTED BY IDOCK:   -6.51 KCAL/MOL
REMARK 924 INTRA-LIGAND FREE ENERGY PREDICTED BY IDOCK:   -2.54 KCAL/MOL
REMARK 927      BINDING AFFINITY PREDICTED BY RF-SCORE:    0.00 PKD
ROOT
HETATM    1 MN   UNL     1      -6.428   9.430  68.439  1.00  0.00    -0.048 Mn 
HETATM    2  C   UNL     2     -11.128  14.494  64.928  1.00  0.00    -0.394 C  
HETATM    3  C   UNL     3      -6.578   7.979  70.576  1.00  0.00    -0.037 C  
HETATM    4  H   UNL     3      -5.645   6.726  71.728  1.00  0.00     0.000 HD 
HETATM    5  H   UNL     2      -9.461  14.513  65.867  1.00  0.00     0.000 HD 
HETATM    6  O   UNL     2      -9.941  15.147  65.348  1.00  0.00    -0.344 OA 
HETATM    7  O   UNL     3      -6.263   7.438  71.848  1.00  0.00    -0.040 OA 
ENDROOT
BRANCH   2   8
HETATM    8  C   UNL     2     -11.907  15.523  64.085  1.00  0.00    -0.084 C  
HETATM    9  H   UNL     2     -11.795  17.436  63.582  1.00  0.00     0.000 HD 
HETATM   10  O   UNL     2     -11.315  16.801  64.102  1.00  0.00    -1.194 OA 
ENDBRANCH   2   8
BRANCH   2  11
HETATM   11  C   UNL     2     -11.886  13.950  66.203  1.00  0.00    -0.400 C  
HETATM   12  H   UNL     2     -12.698  12.258  66.815  1.00  0.00     0.000 HD 
HETATM   13  O   UNL     2     -12.243  12.585  66.048  1.00  0.00    -0.605 OA 
BRANCH  11  14
HETATM   14  C   UNL     2     -11.119  14.072  67.560  1.00  0.00    -0.298 C  
HETATM   15  H   UNL     2      -9.865  12.988  68.535  1.00  0.00     0.000 HD 
HETATM   16  O   UNL     2     -10.331  12.915  67.711  1.00  0.00    -0.215 OA 
BRANCH  14  17
HETATM   17  C   UNL     2     -12.007  14.218  68.818  1.00  0.00    -0.311 C  
HETATM   18  C   UNL     2     -11.875  15.601  69.433  1.00  0.00    -0.375 C  
HETATM   19  H   UNL     2     -12.170  13.350  70.544  1.00  0.00     0.000 HD 
HETATM   20  O   UNL     2     -11.625  13.261  69.772  1.00  0.00    -0.276 OA 
HETATM   21  O   UNL     2     -12.608  15.926  70.512  1.00  0.00    -0.377 OA 
HETATM   22  O   UNL     2     -11.165  16.466  68.921  1.00  0.00    -0.332 OA 
ENDBRANCH  14  17
ENDBRANCH  11  14
ENDBRANCH   2  11
BRANCH   3  23
HETATM   23  C   UNL     3      -7.001   6.744  69.685  1.00  0.00    -0.063 C  
HETATM   24  O   UNL     3      -8.290   6.402  70.140  1.00  0.00    -0.129 OA 
HETATM   25  H   UNL     3      -8.544   5.659  69.605  1.00  0.00     0.000 HD 
BRANCH  23  26
HETATM   26  C   UNL     3      -7.053   6.591  68.096  1.00  0.00    -0.083 C  
HETATM   27  O   UNL     3      -5.981   7.379  67.640  1.00  0.00    -0.035 OA 
HETATM   28  H   UNL     3      -6.012   7.288  66.695  1.00  0.00     0.000 HD 
BRANCH  26  29
HETATM   29  C   UNL     3      -8.268   7.005  67.132  1.00  0.00    -0.118 C  
HETATM   30  C   UNL     3      -8.144   8.187  66.212  1.00  0.00    -0.107 C  
HETATM   31  O   UNL     3      -9.449   7.240  67.869  1.00  0.00    -0.135 OA 
HETATM   32  O   UNL     3      -8.028   9.430  66.714  1.00  0.00    -0.107 OA 
HETATM   33  O   UNL     3      -8.306   8.039  65.011  1.00  0.00    -0.147 OA 
HETATM   34  H   UNL     3     -10.168   7.485  67.298  1.00  0.00     0.000 HD 
ENDBRANCH  26  29
ENDBRANCH  23  26
ENDBRANCH   3  23
BRANCH   3  35
HETATM   35  C   UNL     3      -7.599   9.153  70.773  1.00  0.00    -0.133 C  
HETATM   36  O   UNL     3      -8.421   9.337  69.659  1.00  0.00    -0.120 OA 
HETATM   37  H   UNL     3      -9.039  10.049  69.779  1.00  0.00     0.000 HD 
ENDBRANCH   3  35
TORSDOF 8
ENDMDL
MODEL      114
REMARK 921   NORMALIZED FREE ENERGY PREDICTED BY IDOCK:   -5.02 KCAL/MOL
REMARK 922        TOTAL FREE ENERGY PREDICTED BY IDOCK:   -9.04 KCAL/MOL
REMARK 923 INTER-LIGAND FREE ENERGY PREDICTED BY IDOCK:   -7.22 KCAL/MOL
REMARK 924 INTRA-LIGAND FREE ENERGY PREDICTED BY IDOCK:   -1.82 KCAL/MOL
REMARK 927      BINDING AFFINITY PREDICTED BY RF-SCORE:    0.00 PKD
ROOT
HETATM    1 MN   UNL     1      -7.987  17.313  65.941  1.00  0.00    -0.222 Mn 
HETATM    2  C   UNL     2      -8.309   9.767  64.203  1.00  0.00    -0.168 C  
HETATM    3  C   UNL     3      -9.712  19.087  66.698  1.00  0.00    -0.341 C  
HETATM    4  H   UNL     3      -9.997  20.956  67.138  1.00  0.00     0.000 HD 
HETATM    5  H   UNL     2      -8.003  11.425  63.298  1.00  0.00     0.000 HD 
HETATM    6  O   UNL     2      -7.914  10.510  63.060  1.00  0.00    -0.152 OA 
HETATM    7  O   UNL     3     -10.495  20.268  66.710  1.00  0.00    -0.374 OA 
ENDROOT
BRANCH   2   8
HETATM    8  C   UNL     2      -8.163   8.282  63.818  1.00  0.00    -0.083 C  
HETATM    9  H   UNL     2      -7.846   7.180  62.203  1.00  0.00     0.000 HD 
HETATM   10  O   UNL     2      -7.936   8.095  62.440  1.00  0.00    -0.140 OA 
ENDBRANCH   2   8
BRANCH   2  11
HETATM   11  C   UNL     2      -9.764  10.218  64.623  1.00  0.00    -0.333 C  
HETATM   12  H   UNL     2     -11.189   9.615  65.849  1.00  0.00     0.000 HD 
HETATM   13  O   UNL     2     -10.314   9.343  65.596  1.00  0.00    -0.063 OA 
BRANCH  11  14
HETATM   14  C   UNL     2      -9.895  11.671  65.188  1.00  0.00    -0.249 C  
HETATM   15  H   UNL     2      -9.336  12.582  66.786  1.00  0.00     0.000 HD 
HETATM   16  O   UNL     2      -9.257  11.700  66.443  1.00  0.00    -0.201 OA 
BRANCH  14  17
HETATM   17  C   UNL     2     -11.341  12.189  65.370  1.00  0.00    -0.338 C  
HETATM   18  C   UNL     2     -11.455  13.658  65.003  1.00  0.00    -0.327 C  
HETATM   19  H   UNL     2     -12.617  12.342  66.821  1.00  0.00     0.000 HD 
HETATM   20  O   UNL     2     -11.729  12.025  66.710  1.00  0.00    -0.523 OA 
HETATM   21  O   UNL     2     -12.650  14.270  65.058  1.00  0.00    -0.550 OA 
HETATM   22  O   UNL     2     -10.488  14.291  64.580  1.00  0.00    -0.425 OA 
ENDBRANCH  14  17
ENDBRANCH  11  14
ENDBRANCH   2  11
BRANCH   3  23
HETATM   23  C   UNL     3      -9.247  18.873  68.194  1.00  0.00    -0.320 C  
HETATM   24  O   UNL     3     -10.173  17.954  68.725  1.00  0.00    -0.367 OA 
HETATM   25  H   UNL     3      -9.893  17.826  69.624  1.00  0.00     0.000 HD 
BRANCH  23  26
HETATM   26  C   UNL     3      -7.826  18.437  68.777  1.00  0.00    -0.264 C  
HETATM   27  O   UNL     3      -6.910  19.268  68.107  1.00  0.00    -0.245 OA 
HETATM   28  H   UNL     3      -6.065  19.009  68.453  1.00  0.00     0.000 HD 
BRANCH  26  29
HETATM   29  C   UNL     3      -7.158  16.981  68.686  1.00  0.00    -0.210 C  
HETATM   30  C   UNL     3      -8.012  15.760  68.488  1.00  0.00    -0.141 C  
HETATM   31  O   UNL     3      -6.384  16.700  69.833  1.00  0.00    -0.209 OA 
HETATM   32  O   UNL     3      -8.883  15.377  69.439  1.00  0.00    -0.245 OA 
HETATM   33  O   UNL     3      -7.806  15.026  67.534  1.00  0.00    -0.150 OA 
HETATM   34  H   UNL     3      -5.989  15.838  69.779  1.00  0.00     0.000 HD 
ENDBRANCH  26  29
ENDBRANCH  23  26
ENDBRANCH   3  23
BRANCH   3  35
HETATM   35  C   UNL     3     -10.533  17.953  65.993  1.00  0.00    -0.293 C  
HETATM   36  O   UNL     3     -10.104  16.675  66.362  1.00  0.00    -0.287 OA 
HETATM   37  H   UNL     3     -10.602  15.988  65.934  1.00  0.00     0.000 HD 
ENDBRANCH   3  35
TORSDOF 8
ENDMDL
MODEL      115
REMARK 921   NORMALIZED FREE ENERGY PREDICTED BY IDOCK:   -5.01 KCAL/MOL
REMARK 922        TOTAL FREE ENERGY PREDICTED BY IDOCK:   -9.04 KCAL/MOL
REMARK 923 INTER-LIGAND FREE ENERGY PREDICTED BY IDOCK:   -7.83 KCAL/MOL
REMARK 924 INTRA-LIGAND FREE ENERGY PREDICTED BY IDOCK:   -1.20 KCAL/MOL
REMARK 927      BINDING AFFINITY PREDICTED BY RF-SCORE:    0.00 PKD
ROOT
HETATM    1 MN   UNL     1     -12.842  13.058  68.787  1.00  0.00    -0.105 Mn 
HETATM    2  C   UNL     2      -9.502   6.133  67.817  1.00  0.00    -0.115 C  
HETATM    3  C   UNL     3     -12.838  14.840  70.663  1.00  0.00    -0.343 C  
HETATM    4  H   UNL     3     -13.551  16.548  71.249  1.00  0.00     0.000 HD 
HETATM    5  H   UNL     2     -11.261   6.843  68.068  1.00  0.00     0.000 HD 
HETATM    6  O   UNL     2     -10.913   5.991  67.834  1.00  0.00    -0.302 OA 
HETATM    7  O   UNL     3     -13.309  15.728  71.663  1.00  0.00    -0.487 OA 
ENDROOT
BRANCH   2   8
HETATM    8  C   UNL     2      -8.938   4.750  67.436  1.00  0.00    -0.109 C  
HETATM    9  H   UNL     2      -7.701   3.386  68.166  1.00  0.00     0.000 HD 
HETATM   10  O   UNL     2      -8.048   4.239  68.401  1.00  0.00    -0.080 OA 
ENDBRANCH   2   8
BRANCH   2  11
HETATM   11  C   UNL     2      -9.032   6.693  69.218  1.00  0.00    -0.135 C  
HETATM   12  H   UNL     2      -8.366   8.393  69.969  1.00  0.00     0.000 HD 
HETATM   13  O   UNL     2      -8.648   8.056  69.127  1.00  0.00    -0.135 OA 
BRANCH  11  14
HETATM   14  C   UNL     2     -10.072   6.588  70.382  1.00  0.00    -0.184 C  
HETATM   15  H   UNL     2     -11.281   5.241  71.030  1.00  0.00     0.000 HD 
HETATM   16  O   UNL     2     -10.650   5.305  70.324  1.00  0.00    -0.278 OA 
BRANCH  14  17
HETATM   17  C   UNL     2     -11.213   7.632  70.354  1.00  0.00    -0.244 C  
HETATM   18  C   UNL     2     -10.995   8.721  71.390  1.00  0.00    -0.289 C  
HETATM   19  H   UNL     2     -13.136   7.634  70.601  1.00  0.00     0.000 HD 
HETATM   20  O   UNL     2     -12.435   6.993  70.618  1.00  0.00    -0.295 OA 
HETATM   21  O   UNL     2     -11.866   9.740  71.483  1.00  0.00    -0.379 OA 
HETATM   22  O   UNL     2      -9.993   8.735  72.105  1.00  0.00    -0.320 OA 
ENDBRANCH  14  17
ENDBRANCH  11  14
ENDBRANCH   2  11
BRANCH   3  23
HETATM   23  C   UNL     3     -11.736  15.648  69.868  1.00  0.00    -0.362 C  
HETATM   24  O   UNL     3     -10.516  15.253  70.452  1.00  0.00    -0.458 OA 
HETATM   25  H   UNL     3      -9.854  15.739  69.974  1.00  0.00     0.000 HD 
BRANCH  23  26
HETATM   26  C   UNL     3     -11.453  15.730  68.299  1.00  0.00    -0.337 C  
HETATM   27  O   UNL     3     -10.811  14.515  68.001  1.00  0.00    -0.238 OA 
HETATM   28  H   UNL     3     -10.642  14.563  67.067  1.00  0.00     0.000 HD 
BRANCH  26  29
HETATM   29  C   UNL     3     -10.561  16.829  67.541  1.00  0.00    -0.309 C  
HETATM   30  C   UNL     3     -10.272  16.695  66.072  1.00  0.00    -0.351 C  
HETATM   31  O   UNL     3      -9.295  16.969  68.150  1.00  0.00    -0.241 OA 
HETATM   32  O   UNL     3      -9.525  15.674  65.616  1.00  0.00    -0.320 OA 
HETATM   33  O   UNL     3     -10.581  17.598  65.310  1.00  0.00    -0.663 OA 
HETATM   34  H   UNL     3      -8.767  17.619  67.701  1.00  0.00     0.000 HD 
ENDBRANCH  26  29
ENDBRANCH  23  26
ENDBRANCH   3  23
BRANCH   3  35
HETATM   35  C   UNL     3     -12.438  13.487  71.346  1.00  0.00    -0.255 C  
HETATM   36  O   UNL     3     -11.625  12.697  70.528  1.00  0.00    -0.496 OA 
HETATM   37  H   UNL     3     -11.383  11.877  70.942  1.00  0.00     0.000 HD 
ENDBRANCH   3  35
TORSDOF 8
ENDMDL
MODEL      116
REMARK 921   NORMALIZED FREE ENERGY PREDICTED BY IDOCK:   -5.01 KCAL/MOL
REMARK 922        TOTAL FREE ENERGY PREDICTED BY IDOCK:   -9.03 KCAL/MOL
REMARK 923 INTER-LIGAND FREE ENERGY PREDICTED BY IDOCK:   -7.56 KCAL/MOL
REMARK 924 INTRA-LIGAND FREE ENERGY PREDICTED BY IDOCK:   -1.47 KCAL/MOL
REMARK 927      BINDING AFFINITY PREDICTED BY RF-SCORE:    0.00 PKD
ROOT
HETATM    1 MN   UNL     1      -8.277  10.320  65.551  1.00  0.00    -0.120 Mn 
HETATM    2  C   UNL     2      -9.932  17.846  66.369  1.00  0.00    -0.358 C  
HETATM    3  C   UNL     3      -7.866   8.354  67.182  1.00  0.00    -0.100 C  
HETATM    4  H   UNL     3      -7.398   6.476  67.339  1.00  0.00     0.000 HD 
HETATM    5  H   UNL     2      -8.474  16.767  65.760  1.00  0.00     0.000 HD 
HETATM    6  O   UNL     2      -8.675  17.695  65.729  1.00  0.00    -0.511 OA 
HETATM    7  O   UNL     3      -7.225   7.270  67.833  1.00  0.00    -0.085 OA 
ENDROOT
BRANCH   2   8
HETATM    8  C   UNL     2     -10.258  19.352  66.318  1.00  0.00    -0.478 C  
HETATM    9  H   UNL     2      -9.358  21.089  66.632  1.00  0.00     0.000 HD 
HETATM   10  O   UNL     2      -9.157  20.161  66.663  1.00  0.00    -0.346 OA 
ENDBRANCH   2   8
BRANCH   2  11
HETATM   11  C   UNL     2      -9.842  17.222  67.817  1.00  0.00    -0.281 C  
HETATM   12  H   UNL     2     -10.492  17.637  69.635  1.00  0.00     0.000 HD 
HETATM   13  O   UNL     2     -10.545  18.012  68.764  1.00  0.00    -0.249 OA 
BRANCH  11  14
HETATM   14  C   UNL     2     -10.368  15.756  67.965  1.00  0.00    -0.252 C  
HETATM   15  H   UNL     2      -9.676  14.110  68.677  1.00  0.00     0.000 HD 
HETATM   16  O   UNL     2      -9.357  15.000  68.587  1.00  0.00    -0.188 OA 
BRANCH  14  17
HETATM   17  C   UNL     2     -10.756  15.050  66.645  1.00  0.00    -0.312 C  
HETATM   18  C   UNL     2     -11.842  14.012  66.868  1.00  0.00    -0.430 C  
HETATM   19  H   UNL     2      -9.862  13.979  65.298  1.00  0.00     0.000 HD 
HETATM   20  O   UNL     2      -9.625  14.413  66.109  1.00  0.00    -0.297 OA 
HETATM   21  O   UNL     2     -12.337  13.326  65.824  1.00  0.00    -0.438 OA 
HETATM   22  O   UNL     2     -12.340  13.833  67.979  1.00  0.00    -0.241 OA 
ENDBRANCH  14  17
ENDBRANCH  11  14
ENDBRANCH   2  11
BRANCH   3  23
HETATM   23  C   UNL     3      -9.365   7.895  66.977  1.00  0.00    -0.160 C  
HETATM   24  O   UNL     3      -9.599   8.053  65.597  1.00  0.00    -0.412 OA 
HETATM   25  H   UNL     3     -10.500   7.778  65.474  1.00  0.00     0.000 HD 
BRANCH  23  26
HETATM   26  C   UNL     3     -10.088   6.530  67.381  1.00  0.00    -0.162 C  
HETATM   27  O   UNL     3     -11.374   6.644  66.823  1.00  0.00    -0.745 OA 
HETATM   28  H   UNL     3     -11.804   5.832  67.063  1.00  0.00     0.000 HD 
BRANCH  26  29
HETATM   29  C   UNL     3     -10.364   5.995  68.869  1.00  0.00    -0.218 C  
HETATM   30  C   UNL     3     -11.144   6.828  69.848  1.00  0.00    -0.323 C  
HETATM   31  O   UNL     3      -9.157   5.687  69.535  1.00  0.00    -0.123 OA 
HETATM   32  O   UNL     3     -10.652   8.001  70.286  1.00  0.00    -0.222 OA 
HETATM   33  O   UNL     3     -12.150   6.369  70.366  1.00  0.00    -0.305 OA 
HETATM   34  H   UNL     3      -9.321   5.371  70.415  1.00  0.00     0.000 HD 
ENDBRANCH  26  29
ENDBRANCH  23  26
ENDBRANCH   3  23
BRANCH   3  35
HETATM   35  C   UNL     3      -7.581   9.663  67.997  1.00  0.00    -0.083 C  
HETATM   36  O   UNL     3      -8.697  10.500  68.067  1.00  0.00    -0.124 OA 
HETATM   37  H   UNL     3      -8.524  11.294  68.561  1.00  0.00     0.000 HD 
ENDBRANCH   3  35
TORSDOF 8
ENDMDL
MODEL      117
REMARK 921   NORMALIZED FREE ENERGY PREDICTED BY IDOCK:   -5.00 KCAL/MOL
REMARK 922        TOTAL FREE ENERGY PREDICTED BY IDOCK:   -9.01 KCAL/MOL
REMARK 923 INTER-LIGAND FREE ENERGY PREDICTED BY IDOCK:   -7.87 KCAL/MOL
REMARK 924 INTRA-LIGAND FREE ENERGY PREDICTED BY IDOCK:   -1.14 KCAL/MOL
REMARK 927      BINDING AFFINITY PREDICTED BY RF-SCORE:    0.00 PKD
ROOT
HETATM    1 MN   UNL     1     -11.326  15.519  68.387  1.00  0.00    -0.245 Mn 
HETATM    2  C   UNL     2      -9.968   8.157  70.387  1.00  0.00    -0.188 C  
HETATM    3  C   UNL     3     -10.098  17.272  66.933  1.00  0.00    -0.304 C  
HETATM    4  H   UNL     3     -10.099  19.105  66.295  1.00  0.00     0.000 HD 
HETATM    5  H   UNL     2     -10.017   9.875  71.228  1.00  0.00     0.000 HD 
HETATM    6  O   UNL     2      -9.962   8.980  71.543  1.00  0.00    -0.295 OA 
HETATM    7  O   UNL     3      -9.442  18.470  66.555  1.00  0.00    -0.305 OA 
ENDROOT
BRANCH   2   8
HETATM    8  C   UNL     2      -9.879   6.705  70.898  1.00  0.00    -0.183 C  
HETATM    9  H   UNL     2     -10.068   5.702  72.596  1.00  0.00     0.000 HD 
HETATM   10  O   UNL     2     -10.123   6.597  72.281  1.00  0.00    -0.175 OA 
ENDBRANCH   2   8
BRANCH   2  11
HETATM   11  C   UNL     2      -8.794   8.612  69.434  1.00  0.00    -0.144 C  
HETATM   12  H   UNL     2      -6.872   8.230  69.189  1.00  0.00     0.000 HD 
HETATM   13  O   UNL     2      -7.578   7.956  69.763  1.00  0.00    -0.086 OA 
BRANCH  11  14
HETATM   14  C   UNL     2      -9.031   8.394  67.903  1.00  0.00    -0.137 C  
HETATM   15  H   UNL     2     -10.564   8.176  66.764  1.00  0.00     0.000 HD 
HETATM   16  O   UNL     2     -10.420   8.308  67.694  1.00  0.00    -0.239 OA 
BRANCH  14  17
HETATM   17  C   UNL     2      -8.372   7.132  67.298  1.00  0.00    -0.119 C  
HETATM   18  C   UNL     2      -8.188   7.266  65.797  1.00  0.00    -0.135 C  
HETATM   19  H   UNL     2      -8.778   5.240  67.187  1.00  0.00     0.000 HD 
HETATM   20  O   UNL     2      -9.183   6.015  67.558  1.00  0.00    -0.114 OA 
HETATM   21  O   UNL     2      -7.591   6.281  65.105  1.00  0.00    -0.081 OA 
HETATM   22  O   UNL     2      -8.506   8.294  65.201  1.00  0.00    -0.169 OA 
ENDBRANCH  14  17
ENDBRANCH  11  14
ENDBRANCH   2  11
BRANCH   3  23
HETATM   23  C   UNL     3     -11.062  16.922  65.730  1.00  0.00     0.238 C  
HETATM   24  O   UNL     3     -11.222  18.138  65.037  1.00  0.00    -0.496 OA 
HETATM   25  H   UNL     3     -11.802  17.927  64.315  1.00  0.00     0.000 HD 
BRANCH  23  26
HETATM   26  C   UNL     3     -10.934  15.799  64.602  1.00  0.00    -0.314 C  
HETATM   27  O   UNL     3     -11.972  16.097  63.701  1.00  0.00    -1.375 OA 
HETATM   28  H   UNL     3     -11.896  15.430  63.029  1.00  0.00     0.000 HD 
BRANCH  26  29
HETATM   29  C   UNL     3     -11.054  14.212  64.810  1.00  0.00    -0.387 C  
HETATM   30  C   UNL     3     -12.204  13.628  65.582  1.00  0.00    -0.454 C  
HETATM   31  O   UNL     3      -9.897  13.689  65.428  1.00  0.00    -0.488 OA 
HETATM   32  O   UNL     3     -12.339  13.880  66.896  1.00  0.00    -0.410 OA 
HETATM   33  O   UNL     3     -12.927  12.798  65.054  1.00  0.00    -0.811 OA 
HETATM   34  H   UNL     3      -9.968  12.749  65.552  1.00  0.00     0.000 HD 
ENDBRANCH  26  29
ENDBRANCH  23  26
ENDBRANCH   3  23
BRANCH   3  35
HETATM   35  C   UNL     3      -9.014  16.224  67.362  1.00  0.00    -0.187 C  
HETATM   36  O   UNL     3      -8.123  15.925  66.328  1.00  0.00    -0.271 OA 
HETATM   37  H   UNL     3      -7.466  15.290  66.588  1.00  0.00     0.000 HD 
ENDBRANCH   3  35
TORSDOF 8
ENDMDL
MODEL      118
REMARK 921   NORMALIZED FREE ENERGY PREDICTED BY IDOCK:   -4.99 KCAL/MOL
REMARK 922        TOTAL FREE ENERGY PREDICTED BY IDOCK:   -9.00 KCAL/MOL
REMARK 923 INTER-LIGAND FREE ENERGY PREDICTED BY IDOCK:   -7.11 KCAL/MOL
REMARK 924 INTRA-LIGAND FREE ENERGY PREDICTED BY IDOCK:   -1.89 KCAL/MOL
REMARK 927      BINDING AFFINITY PREDICTED BY RF-SCORE:    0.00 PKD
ROOT
HETATM    1 MN   UNL     1     -10.540  14.516  68.766  1.00  0.00    -0.201 Mn 
HETATM    2  C   UNL     2      -8.838   7.727  72.092  1.00  0.00    -0.133 C  
HETATM    3  C   UNL     3      -9.751  15.753  66.634  1.00  0.00    -0.249 C  
HETATM    4  H   UNL     3      -9.894  17.378  65.582  1.00  0.00     0.000 HD 
HETATM    5  H   UNL     2      -8.594   9.590  72.453  1.00  0.00     0.000 HD 
HETATM    6  O   UNL     2      -8.471   8.792  72.954  1.00  0.00    -0.409 OA 
HETATM    7  O   UNL     3      -9.205  16.760  65.799  1.00  0.00    -0.520 OA 
ENDROOT
BRANCH   2   8
HETATM    8  C   UNL     2      -8.639   6.432  72.905  1.00  0.00    -0.124 C  
HETATM    9  H   UNL     2      -9.733   4.999  73.725  1.00  0.00     0.000 HD 
HETATM   10  O   UNL     2      -9.855   5.796  73.224  1.00  0.00    -0.160 OA 
ENDBRANCH   2   8
BRANCH   2  11
HETATM   11  C   UNL     2      -7.986   7.830  70.766  1.00  0.00    -0.101 C  
HETATM   12  H   UNL     2      -6.081   7.904  70.249  1.00  0.00     0.000 HD 
HETATM   13  O   UNL     2      -6.594   7.842  71.046  1.00  0.00    -0.038 OA 
BRANCH  11  14
HETATM   14  C   UNL     2      -8.229   6.707  69.705  1.00  0.00    -0.127 C  
HETATM   15  H   UNL     2      -7.146   5.755  68.433  1.00  0.00     0.000 HD 
HETATM   16  O   UNL     2      -6.998   6.438  69.077  1.00  0.00    -0.066 OA 
BRANCH  14  17
HETATM   17  C   UNL     2      -9.268   7.038  68.608  1.00  0.00    -0.131 C  
HETATM   18  C   UNL     2     -10.498   6.155  68.723  1.00  0.00    -0.243 C  
HETATM   19  H   UNL     2      -9.325   7.048  66.670  1.00  0.00     0.000 HD 
HETATM   20  O   UNL     2      -8.688   6.845  67.344  1.00  0.00    -0.120 OA 
HETATM   21  O   UNL     2     -11.528   6.329  67.877  1.00  0.00    -0.123 OA 
HETATM   22  O   UNL     2     -10.611   5.326  69.625  1.00  0.00    -0.294 OA 
ENDBRANCH  14  17
ENDBRANCH  11  14
ENDBRANCH   2  11
BRANCH   3  23
HETATM   23  C   UNL     3     -11.035  15.227  65.877  1.00  0.00    -0.325 C  
HETATM   24  O   UNL     3     -10.582  14.921  64.578  1.00  0.00    -0.588 OA 
HETATM   25  H   UNL     3     -11.354  14.606  64.124  1.00  0.00     0.000 HD 
BRANCH  23  26
HETATM   26  C   UNL     3     -12.051  14.058  66.263  1.00  0.00    -0.456 C  
HETATM   27  O   UNL     3     -12.513  14.412  67.543  1.00  0.00    -0.599 OA 
HETATM   28  H   UNL     3     -13.117  13.716  67.774  1.00  0.00     0.000 HD 
BRANCH  26  29
HETATM   29  C   UNL     3     -11.708  12.496  66.400  1.00  0.00    -0.397 C  
HETATM   30  C   UNL     3     -11.444  11.888  67.750  1.00  0.00    -0.319 C  
HETATM   31  O   UNL     3     -10.584  12.148  65.619  1.00  0.00    -0.246 OA 
HETATM   32  O   UNL     3     -10.366  12.259  68.464  1.00  0.00    -0.226 OA 
HETATM   33  O   UNL     3     -12.119  10.945  68.131  1.00  0.00    -0.563 OA 
HETATM   34  H   UNL     3     -10.381  11.223  65.701  1.00  0.00     0.000 HD 
ENDBRANCH  26  29
ENDBRANCH  23  26
ENDBRANCH   3  23
BRANCH   3  35
HETATM   35  C   UNL     3      -8.615  14.733  66.992  1.00  0.00    -0.234 C  
HETATM   36  O   UNL     3      -7.963  15.060  68.184  1.00  0.00    -0.122 OA 
HETATM   37  H   UNL     3      -7.274  14.442  68.401  1.00  0.00     0.000 HD 
ENDBRANCH   3  35
TORSDOF 8
ENDMDL
MODEL      119
REMARK 921   NORMALIZED FREE ENERGY PREDICTED BY IDOCK:   -4.98 KCAL/MOL
REMARK 922        TOTAL FREE ENERGY PREDICTED BY IDOCK:   -8.98 KCAL/MOL
REMARK 923 INTER-LIGAND FREE ENERGY PREDICTED BY IDOCK:   -7.00 KCAL/MOL
REMARK 924 INTRA-LIGAND FREE ENERGY PREDICTED BY IDOCK:   -1.98 KCAL/MOL
REMARK 927      BINDING AFFINITY PREDICTED BY RF-SCORE:    0.00 PKD
ROOT
HETATM    1 MN   UNL     1     -12.375  11.251  67.923  1.00  0.00    -0.232 Mn 
HETATM    2  C   UNL     2      -9.069   4.511  66.000  1.00  0.00    -0.130 C  
HETATM    3  C   UNL     3     -12.426  12.717  70.055  1.00  0.00     0.019 C  
HETATM    4  H   UNL     3     -13.144  14.323  70.875  1.00  0.00     0.000 HD 
HETATM    5  H   UNL     2     -10.829   5.201  66.295  1.00  0.00     0.000 HD 
HETATM    6  O   UNL     2     -10.481   4.390  65.942  1.00  0.00    -0.250 OA 
HETATM    7  O   UNL     3     -12.926  13.444  71.164  1.00  0.00    -0.304 OA 
ENDROOT
BRANCH   2   8
HETATM    8  C   UNL     2      -8.504   3.196  65.427  1.00  0.00    -0.102 C  
HETATM    9  H   UNL     2      -7.121   2.598  64.141  1.00  0.00     0.000 HD 
HETATM   10  O   UNL     2      -7.470   3.408  64.494  1.00  0.00    -0.072 OA 
ENDBRANCH   2   8
BRANCH   2  11
HETATM   11  C   UNL     2      -8.648   4.837  67.488  1.00  0.00    -0.104 C  
HETATM   12  H   UNL     2      -6.984   5.124  68.512  1.00  0.00     0.000 HD 
HETATM   13  O   UNL     2      -7.237   4.927  67.617  1.00  0.00    -0.068 OA 
BRANCH  11  14
HETATM   14  C   UNL     2      -9.248   6.146  68.099  1.00  0.00    -0.117 C  
HETATM   15  H   UNL     2      -9.127   8.026  67.714  1.00  0.00     0.000 HD 
HETATM   16  O   UNL     2      -8.763   7.231  67.344  1.00  0.00    -0.120 OA 
BRANCH  14  17
HETATM   17  C   UNL     2      -8.910   6.404  69.586  1.00  0.00    -0.137 C  
HETATM   18  C   UNL     2     -10.163   6.663  70.404  1.00  0.00    -0.188 C  
HETATM   19  H   UNL     2      -7.859   7.681  70.597  1.00  0.00     0.000 HD 
HETATM   20  O   UNL     2      -8.066   7.523  69.684  1.00  0.00    -0.122 OA 
HETATM   21  O   UNL     2     -10.068   6.866  71.729  1.00  0.00    -0.186 OA 
HETATM   22  O   UNL     2     -11.283   6.617  69.894  1.00  0.00    -0.311 OA 
ENDBRANCH  14  17
ENDBRANCH  11  14
ENDBRANCH   2  11
BRANCH   3  23
HETATM   23  C   UNL     3     -11.286  13.621  69.437  1.00  0.00    -0.196 C  
HETATM   24  O   UNL     3     -10.405  12.710  68.821  1.00  0.00    -0.343 OA 
HETATM   25  H   UNL     3      -9.720  13.254  68.450  1.00  0.00     0.000 HD 
BRANCH  23  26
HETATM   26  C   UNL     3     -11.385  14.864  68.439  1.00  0.00    -0.303 C  
HETATM   27  O   UNL     3     -12.650  15.418  68.706  1.00  0.00    -0.432 OA 
HETATM   28  H   UNL     3     -12.710  16.157  68.112  1.00  0.00     0.000 HD 
BRANCH  26  29
HETATM   29  C   UNL     3     -11.320  14.814  66.836  1.00  0.00    -0.355 C  
HETATM   30  C   UNL     3     -12.204  13.875  66.065  1.00  0.00    -0.462 C  
HETATM   31  O   UNL     3     -10.012  14.534  66.386  1.00  0.00    -0.270 OA 
HETATM   32  O   UNL     3     -12.049  12.544  66.181  1.00  0.00    -0.571 OA 
HETATM   33  O   UNL     3     -12.960  14.317  65.213  1.00  0.00    -0.679 OA 
HETATM   34  H   UNL     3      -9.973  14.505  65.437  1.00  0.00     0.000 HD 
ENDBRANCH  26  29
ENDBRANCH  23  26
ENDBRANCH   3  23
BRANCH   3  35
HETATM   35  C   UNL     3     -12.066  11.267  70.530  1.00  0.00    -0.387 C  
HETATM   36  O   UNL     3     -12.992  10.317  70.092  1.00  0.00    -0.576 OA 
HETATM   37  H   UNL     3     -12.774   9.438  70.381  1.00  0.00     0.000 HD 
ENDBRANCH   3  35
TORSDOF 8
ENDMDL
MODEL      120
REMARK 921   NORMALIZED FREE ENERGY PREDICTED BY IDOCK:   -4.96 KCAL/MOL
REMARK 922        TOTAL FREE ENERGY PREDICTED BY IDOCK:   -8.96 KCAL/MOL
REMARK 923 INTER-LIGAND FREE ENERGY PREDICTED BY IDOCK:   -7.63 KCAL/MOL
REMARK 924 INTRA-LIGAND FREE ENERGY PREDICTED BY IDOCK:   -1.33 KCAL/MOL
REMARK 927      BINDING AFFINITY PREDICTED BY RF-SCORE:    0.00 PKD
ROOT
HETATM    1 MN   UNL     1      -9.051  14.852  70.444  1.00  0.00    -0.422 Mn 
HETATM    2  C   UNL     2     -10.649   7.328  69.502  1.00  0.00    -0.234 C  
HETATM    3  C   UNL     3      -8.068  16.712  68.937  1.00  0.00    -0.235 C  
HETATM    4  H   UNL     3      -7.503  18.567  68.848  1.00  0.00     0.000 HD 
HETATM    5  H   UNL     2      -9.419   8.409  70.491  1.00  0.00     0.000 HD 
HETATM    6  O   UNL     2      -9.655   7.489  70.501  1.00  0.00    -0.168 OA 
HETATM    7  O   UNL     3      -7.213  17.743  68.474  1.00  0.00    -0.238 OA 
ENDROOT
BRANCH   2   8
HETATM    8  C   UNL     2     -11.033   5.835  69.518  1.00  0.00    -0.304 C  
HETATM    9  H   UNL     2     -10.302   4.111  70.163  1.00  0.00     0.000 HD 
HETATM   10  O   UNL     2     -10.066   5.031  70.153  1.00  0.00    -0.232 OA 
ENDBRANCH   2   8
BRANCH   2  11
HETATM   11  C   UNL     2     -10.082   7.867  68.129  1.00  0.00    -0.191 C  
HETATM   12  H   UNL     2     -10.272   7.465  66.206  1.00  0.00     0.000 HD 
HETATM   13  O   UNL     2     -10.613   7.141  67.031  1.00  0.00    -0.297 OA 
BRANCH  11  14
HETATM   14  C   UNL     2     -10.324   9.384  67.835  1.00  0.00    -0.225 C  
HETATM   15  H   UNL     2      -9.431  10.749  66.818  1.00  0.00     0.000 HD 
HETATM   16  O   UNL     2      -9.284   9.828  66.997  1.00  0.00    -0.140 OA 
BRANCH  14  17
HETATM   17  C   UNL     2     -10.371  10.305  69.077  1.00  0.00    -0.211 C  
HETATM   18  C   UNL     2     -11.486  11.330  68.967  1.00  0.00    -0.302 C  
HETATM   19  H   UNL     2      -9.173  11.546  69.963  1.00  0.00     0.000 HD 
HETATM   20  O   UNL     2      -9.145  10.980  69.201  1.00  0.00    -0.114 OA 
HETATM   21  O   UNL     2     -11.706  12.191  69.975  1.00  0.00    -0.308 OA 
HETATM   22  O   UNL     2     -12.250  11.346  68.003  1.00  0.00    -0.607 OA 
ENDBRANCH  14  17
ENDBRANCH  11  14
ENDBRANCH   2  11
BRANCH   3  23
HETATM   23  C   UNL     3      -9.537  17.214  68.632  1.00  0.00    -0.281 C  
HETATM   24  O   UNL     3      -9.479  17.698  67.311  1.00  0.00    -0.250 OA 
HETATM   25  H   UNL     3     -10.361  17.999  67.128  1.00  0.00     0.000 HD 
BRANCH  23  26
HETATM   26  C   UNL     3     -10.931  16.445  68.747  1.00  0.00    -0.344 C  
HETATM   27  O   UNL     3     -11.236  16.489  70.119  1.00  0.00    -0.439 OA 
HETATM   28  H   UNL     3     -12.065  16.031  70.188  1.00  0.00     0.000 HD 
BRANCH  26  29
HETATM   29  C   UNL     3     -11.222  14.919  68.340  1.00  0.00    -0.292 C  
HETATM   30  C   UNL     3     -10.875  14.417  66.966  1.00  0.00    -0.297 C  
HETATM   31  O   UNL     3     -12.585  14.594  68.513  1.00  0.00    -0.494 OA 
HETATM   32  O   UNL     3     -11.512  14.900  65.884  1.00  0.00    -0.342 OA 
HETATM   33  O   UNL     3     -10.128  13.460  66.842  1.00  0.00    -0.247 OA 
HETATM   34  H   UNL     3     -12.756  13.691  68.271  1.00  0.00     0.000 HD 
ENDBRANCH  26  29
ENDBRANCH  23  26
ENDBRANCH   3  23
BRANCH   3  35
HETATM   35  C   UNL     3      -7.591  15.353  68.320  1.00  0.00    -0.115 C  
HETATM   36  O   UNL     3      -7.946  14.255  69.108  1.00  0.00    -0.299 OA 
HETATM   37  H   UNL     3      -7.656  13.431  68.734  1.00  0.00     0.000 HD 
ENDBRANCH   3  35
TORSDOF 8
ENDMDL
MODEL      121
REMARK 921   NORMALIZED FREE ENERGY PREDICTED BY IDOCK:   -4.95 KCAL/MOL
REMARK 922        TOTAL FREE ENERGY PREDICTED BY IDOCK:   -8.94 KCAL/MOL
REMARK 923 INTER-LIGAND FREE ENERGY PREDICTED BY IDOCK:   -7.78 KCAL/MOL
REMARK 924 INTRA-LIGAND FREE ENERGY PREDICTED BY IDOCK:   -1.16 KCAL/MOL
REMARK 927      BINDING AFFINITY PREDICTED BY RF-SCORE:    0.00 PKD
ROOT
HETATM    1 MN   UNL     1      -7.680  13.488  66.542  1.00  0.00    -0.363 Mn 
HETATM    2  C   UNL     2      -9.300   6.303  68.950  1.00  0.00    -0.128 C  
HETATM    3  C   UNL     3      -9.060  15.648  66.184  1.00  0.00    -0.342 C  
HETATM    4  H   UNL     3      -9.018  17.491  65.577  1.00  0.00     0.000 HD 
HETATM    5  H   UNL     2      -8.766   7.176  67.334  1.00  0.00     0.000 HD 
HETATM    6  O   UNL     2      -8.837   6.270  67.610  1.00  0.00    -0.113 OA 
HETATM    7  O   UNL     3      -9.638  16.772  65.543  1.00  0.00    -0.515 OA 
ENDROOT
BRANCH   2   8
HETATM    8  C   UNL     2      -9.415   4.832  69.398  1.00  0.00    -0.161 C  
HETATM    9  H   UNL     2      -9.678   3.040  68.595  1.00  0.00     0.000 HD 
HETATM   10  O   UNL     2      -9.607   3.947  68.319  1.00  0.00    -0.162 OA 
ENDBRANCH   2   8
BRANCH   2  11
HETATM   11  C   UNL     2     -10.643   7.133  69.003  1.00  0.00    -0.210 C  
HETATM   12  H   UNL     2     -12.448   6.954  69.783  1.00  0.00     0.000 HD 
HETATM   13  O   UNL     2     -11.640   6.454  69.751  1.00  0.00    -0.431 OA 
BRANCH  11  14
HETATM   14  C   UNL     2     -10.533   8.578  69.592  1.00  0.00    -0.221 C  
HETATM   15  H   UNL     2      -9.104   9.714  70.195  1.00  0.00     0.000 HD 
HETATM   16  O   UNL     2      -9.172   8.836  69.838  1.00  0.00    -0.150 OA 
BRANCH  14  17
HETATM   17  C   UNL     2     -11.316   8.825  70.903  1.00  0.00    -0.275 C  
HETATM   18  C   UNL     2     -12.092  10.129  70.849  1.00  0.00    -0.356 C  
HETATM   19  H   UNL     2     -10.896   9.030  72.784  1.00  0.00     0.000 HD 
HETATM   20  O   UNL     2     -10.415   8.878  71.979  1.00  0.00    -0.338 OA 
HETATM   21  O   UNL     2     -12.867  10.490  71.886  1.00  0.00    -0.444 OA 
HETATM   22  O   UNL     2     -12.090  10.836  69.841  1.00  0.00    -0.309 OA 
ENDBRANCH  14  17
ENDBRANCH  11  14
ENDBRANCH   2  11
BRANCH   3  23
HETATM   23  C   UNL     3      -8.575  16.170  67.595  1.00  0.00    -0.173 C  
HETATM   24  O   UNL     3      -8.032  15.033  68.226  1.00  0.00    -0.120 OA 
HETATM   25  H   UNL     3      -7.740  15.347  69.074  1.00  0.00     0.000 HD 
BRANCH  23  26
HETATM   26  C   UNL     3      -7.596  17.375  67.965  1.00  0.00    -0.206 C  
HETATM   27  O   UNL     3      -6.718  16.825  68.917  1.00  0.00    -0.171 OA 
HETATM   28  H   UNL     3      -6.136  17.542  69.138  1.00  0.00     0.000 HD 
BRANCH  26  29
HETATM   29  C   UNL     3      -8.012  18.789  68.601  1.00  0.00    -0.336 C  
HETATM   30  C   UNL     3      -9.344  19.407  68.279  1.00  0.00    -0.352 C  
HETATM   31  O   UNL     3      -7.063  19.788  68.293  1.00  0.00    -0.283 OA 
HETATM   32  O   UNL     3      -9.622  19.810  67.026  1.00  0.00    -0.328 OA 
HETATM   33  O   UNL     3     -10.114  19.689  69.183  1.00  0.00    -0.438 OA 
HETATM   34  H   UNL     3      -7.310  20.625  68.669  1.00  0.00     0.000 HD 
ENDBRANCH  26  29
ENDBRANCH  23  26
ENDBRANCH   3  23
BRANCH   3  35
HETATM   35  C   UNL     3     -10.084  14.462  66.128  1.00  0.00    -0.309 C  
HETATM   36  O   UNL     3      -9.763  13.527  65.140  1.00  0.00    -0.546 OA 
HETATM   37  H   UNL     3     -10.384  12.808  65.107  1.00  0.00     0.000 HD 
ENDBRANCH   3  35
TORSDOF 8
ENDMDL
MODEL      122
REMARK 921   NORMALIZED FREE ENERGY PREDICTED BY IDOCK:   -4.93 KCAL/MOL
REMARK 922        TOTAL FREE ENERGY PREDICTED BY IDOCK:   -8.91 KCAL/MOL
REMARK 923 INTER-LIGAND FREE ENERGY PREDICTED BY IDOCK:   -7.78 KCAL/MOL
REMARK 924 INTRA-LIGAND FREE ENERGY PREDICTED BY IDOCK:   -1.13 KCAL/MOL
REMARK 927      BINDING AFFINITY PREDICTED BY RF-SCORE:    0.00 PKD
ROOT
HETATM    1 MN   UNL     1     -12.585   8.134  70.613  1.00  0.00    -0.420 Mn 
HETATM    2  C   UNL     2     -12.242  13.505  65.038  1.00  0.00    -0.419 C  
HETATM    3  C   UNL     3     -11.003   6.263  71.445  1.00  0.00    -0.275 C  
HETATM    4  H   UNL     3     -10.786   4.785  72.686  1.00  0.00     0.000 HD 
HETATM    5  H   UNL     2     -13.233  11.914  65.423  1.00  0.00     0.000 HD 
HETATM    6  O   UNL     2     -13.311  12.609  64.780  1.00  0.00    -0.787 OA 
HETATM    7  O   UNL     3     -10.524   4.975  71.792  1.00  0.00    -0.211 OA 
ENDROOT
BRANCH   2   8
HETATM    8  C   UNL     2     -12.369  14.632  63.994  1.00  0.00    -0.132 C  
HETATM    9  H   UNL     2     -11.734  16.487  63.711  1.00  0.00     0.000 HD 
HETATM   10  O   UNL     2     -11.656  15.793  64.354  1.00  0.00    -0.401 OA 
ENDBRANCH   2   8
BRANCH   2  11
HETATM   11  C   UNL     2     -10.884  12.699  65.002  1.00  0.00    -0.290 C  
HETATM   12  H   UNL     2      -9.452  12.296  63.704  1.00  0.00     0.000 HD 
HETATM   13  O   UNL     2     -10.269  12.780  63.725  1.00  0.00    -0.378 OA 
BRANCH  11  14
HETATM   14  C   UNL     2      -9.808  13.122  66.055  1.00  0.00    -0.260 C  
HETATM   15  H   UNL     2      -8.771  12.224  67.402  1.00  0.00     0.000 HD 
HETATM   16  O   UNL     2      -9.424  11.967  66.762  1.00  0.00    -0.197 OA 
BRANCH  14  17
HETATM   17  C   UNL     2     -10.261  14.188  67.081  1.00  0.00    -0.258 C  
HETATM   18  C   UNL     2      -9.520  15.499  66.886  1.00  0.00    -0.228 C  
HETATM   19  H   UNL     2     -10.291  14.371  69.011  1.00  0.00     0.000 HD 
HETATM   20  O   UNL     2     -10.013  13.717  68.381  1.00  0.00    -0.224 OA 
HETATM   21  O   UNL     2      -9.813  16.556  67.661  1.00  0.00    -0.240 OA 
HETATM   22  O   UNL     2      -8.701  15.644  65.978  1.00  0.00    -0.292 OA 
ENDBRANCH  14  17
ENDBRANCH  11  14
ENDBRANCH   2  11
BRANCH   3  23
HETATM   23  C   UNL     3     -10.511   7.221  72.603  1.00  0.00    -0.246 C  
HETATM   24  O   UNL     3     -11.646   7.984  72.939  1.00  0.00    -0.518 OA 
HETATM   25  H   UNL     3     -11.350   8.559  73.635  1.00  0.00     0.000 HD 
BRANCH  23  26
HETATM   26  C   UNL     3      -9.798   6.877  73.990  1.00  0.00    -0.320 C  
HETATM   27  O   UNL     3      -9.155   8.074  74.352  1.00  0.00    -0.341 OA 
HETATM   28  H   UNL     3      -8.731   7.870  75.177  1.00  0.00     0.000 HD 
BRANCH  26  29
HETATM   29  C   UNL     3      -8.682   5.752  74.242  1.00  0.00    -0.122 C  
HETATM   30  C   UNL     3      -7.460   5.681  73.369  1.00  0.00    -0.095 C  
HETATM   31  O   UNL     3      -9.240   4.456  74.191  1.00  0.00    -0.109 OA 
HETATM   32  O   UNL     3      -7.572   5.375  72.064  1.00  0.00    -0.095 OA 
HETATM   33  O   UNL     3      -6.350   5.745  73.875  1.00  0.00    -0.065 OA 
HETATM   34  H   UNL     3      -8.579   3.790  74.340  1.00  0.00     0.000 HD 
ENDBRANCH  26  29
ENDBRANCH  23  26
ENDBRANCH   3  23
BRANCH   3  35
HETATM   35  C   UNL     3     -10.571   6.575  69.971  1.00  0.00    -0.230 C  
HETATM   36  O   UNL     3     -11.666   6.711  69.113  1.00  0.00    -0.629 OA 
HETATM   37  H   UNL     3     -11.404   6.901  68.219  1.00  0.00     0.000 HD 
ENDBRANCH   3  35
TORSDOF 8
ENDMDL
MODEL      123
REMARK 921   NORMALIZED FREE ENERGY PREDICTED BY IDOCK:   -4.91 KCAL/MOL
REMARK 922        TOTAL FREE ENERGY PREDICTED BY IDOCK:   -8.89 KCAL/MOL
REMARK 923 INTER-LIGAND FREE ENERGY PREDICTED BY IDOCK:   -6.93 KCAL/MOL
REMARK 924 INTRA-LIGAND FREE ENERGY PREDICTED BY IDOCK:   -1.95 KCAL/MOL
REMARK 927      BINDING AFFINITY PREDICTED BY RF-SCORE:    0.00 PKD
ROOT
HETATM    1 MN   UNL     1      -9.771  12.497  67.073  1.00  0.00    -0.188 Mn 
HETATM    2  C   UNL     2     -10.089   7.481  72.972  1.00  0.00    -0.288 C  
HETATM    3  C   UNL     3     -10.432  12.419  64.573  1.00  0.00    -0.325 C  
HETATM    4  H   UNL     3     -10.445  13.387  62.890  1.00  0.00     0.000 HD 
HETATM    5  H   UNL     2      -8.754   8.337  71.901  1.00  0.00     0.000 HD 
HETATM    6  O   UNL     2      -8.739   7.817  72.696  1.00  0.00    -0.122 OA 
HETATM    7  O   UNL     3     -10.327  12.484  63.161  1.00  0.00    -0.284 OA 
ENDROOT
BRANCH   2   8
HETATM    8  C   UNL     2     -10.064   6.639  74.263  1.00  0.00    -0.351 C  
HETATM    9  H   UNL     2     -10.930   5.022  75.010  1.00  0.00     0.000 HD 
HETATM   10  O   UNL     2     -10.946   5.542  74.215  1.00  0.00    -0.149 OA 
ENDBRANCH   2   8
BRANCH   2  11
HETATM   11  C   UNL     2     -10.702   6.762  71.706  1.00  0.00    -0.224 C  
HETATM   12  H   UNL     2     -12.379   5.847  71.208  1.00  0.00     0.000 HD 
HETATM   13  O   UNL     2     -12.010   6.279  71.970  1.00  0.00    -0.330 OA 
BRANCH  11  14
HETATM   14  C   UNL     2     -10.786   7.623  70.402  1.00  0.00    -0.244 C  
HETATM   15  H   UNL     2     -11.596   7.423  68.670  1.00  0.00     0.000 HD 
HETATM   16  O   UNL     2     -11.545   6.901  69.462  1.00  0.00    -0.162 OA 
BRANCH  14  17
HETATM   17  C   UNL     2      -9.430   7.984  69.753  1.00  0.00    -0.159 C  
HETATM   18  C   UNL     2      -9.472   9.358  69.107  1.00  0.00    -0.163 C  
HETATM   19  H   UNL     2      -8.283   7.253  68.371  1.00  0.00     0.000 HD 
HETATM   20  O   UNL     2      -9.116   7.031  68.770  1.00  0.00    -0.135 OA 
HETATM   21  O   UNL     2      -8.368   9.860  68.528  1.00  0.00    -0.104 OA 
HETATM   22  O   UNL     2     -10.478  10.064  69.164  1.00  0.00    -0.195 OA 
ENDBRANCH  14  17
ENDBRANCH  11  14
ENDBRANCH   2  11
BRANCH   3  23
HETATM   23  C   UNL     3     -11.788  13.150  64.928  1.00  0.00    -0.358 C  
HETATM   24  O   UNL     3     -12.759  12.130  64.901  1.00  0.00    -0.508 OA 
HETATM   25  H   UNL     3     -13.574  12.569  65.114  1.00  0.00     0.000 HD 
BRANCH  23  26
HETATM   26  C   UNL     3     -12.165  14.067  66.179  1.00  0.00    -0.465 C  
HETATM   27  O   UNL     3     -11.100  14.981  66.269  1.00  0.00    -0.340 OA 
HETATM   28  H   UNL     3     -11.324  15.527  67.013  1.00  0.00     0.000 HD 
BRANCH  26  29
HETATM   29  C   UNL     3     -12.381  13.582  67.694  1.00  0.00    -0.003 C  
HETATM   30  C   UNL     3     -11.662  14.266  68.824  1.00  0.00    -0.343 C  
HETATM   31  O   UNL     3     -12.071  12.213  67.842  1.00  0.00    -0.502 OA 
HETATM   32  O   UNL     3     -10.322  14.196  68.919  1.00  0.00    -0.236 OA 
HETATM   33  O   UNL     3     -12.302  14.752  69.742  1.00  0.00    -0.302 OA 
HETATM   34  H   UNL     3     -12.199  11.926  68.739  1.00  0.00     0.000 HD 
ENDBRANCH  26  29
ENDBRANCH  23  26
ENDBRANCH   3  23
BRANCH   3  35
HETATM   35  C   UNL     3     -10.237  10.929  65.019  1.00  0.00    -0.303 C  
HETATM   36  O   UNL     3     -10.878  10.647  66.229  1.00  0.00    -0.150 OA 
HETATM   37  H   UNL     3     -10.760   9.744  66.499  1.00  0.00     0.000 HD 
ENDBRANCH   3  35
TORSDOF 8
ENDMDL
MODEL      124
REMARK 921   NORMALIZED FREE ENERGY PREDICTED BY IDOCK:   -4.90 KCAL/MOL
REMARK 922        TOTAL FREE ENERGY PREDICTED BY IDOCK:   -8.87 KCAL/MOL
REMARK 923 INTER-LIGAND FREE ENERGY PREDICTED BY IDOCK:   -7.27 KCAL/MOL
REMARK 924 INTRA-LIGAND FREE ENERGY PREDICTED BY IDOCK:   -1.60 KCAL/MOL
REMARK 927      BINDING AFFINITY PREDICTED BY RF-SCORE:    0.00 PKD
ROOT
HETATM    1 MN   UNL     1      -8.894  13.862  69.780  1.00  0.00    -0.330 Mn 
HETATM    2  C   UNL     2      -9.981   6.525  72.027  1.00  0.00    -0.169 C  
HETATM    3  C   UNL     3      -8.367  15.022  67.528  1.00  0.00    -0.176 C  
HETATM    4  H   UNL     3      -7.989  16.711  66.649  1.00  0.00     0.000 HD 
HETATM    5  H   UNL     2      -8.690   7.914  72.278  1.00  0.00     0.000 HD 
HETATM    6  O   UNL     2      -8.840   7.064  72.674  1.00  0.00    -0.123 OA 
HETATM    7  O   UNL     3      -7.702  15.810  66.556  1.00  0.00    -0.187 OA 
ENDROOT
BRANCH   2   8
HETATM    8  C   UNL     2     -10.225   5.145  72.670  1.00  0.00    -0.186 C  
HETATM    9  H   UNL     2     -11.389   4.320  74.044  1.00  0.00     0.000 HD 
HETATM   10  O   UNL     2     -11.239   5.170  73.648  1.00  0.00    -0.296 OA 
ENDBRANCH   2   8
BRANCH   2  11
HETATM   11  C   UNL     2      -9.721   6.509  70.469  1.00  0.00    -0.172 C  
HETATM   12  H   UNL     2      -9.555   5.173  69.024  1.00  0.00     0.000 HD 
HETATM   13  O   UNL     2      -9.711   5.183  69.961  1.00  0.00    -0.170 OA 
BRANCH  11  14
HETATM   14  C   UNL     2     -10.731   7.325  69.596  1.00  0.00    -0.236 C  
HETATM   15  H   UNL     2     -12.588   7.163  69.125  1.00  0.00     0.000 HD 
HETATM   16  O   UNL     2     -11.974   6.668  69.655  1.00  0.00    -0.189 OA 
BRANCH  14  17
HETATM   17  C   UNL     2     -10.343   7.493  68.108  1.00  0.00    -0.200 C  
HETATM   18  C   UNL     2     -10.505   8.933  67.651  1.00  0.00    -0.255 C  
HETATM   19  H   UNL     2     -10.926   6.775  66.405  1.00  0.00     0.000 HD 
HETATM   20  O   UNL     2     -11.163   6.672  67.318  1.00  0.00    -0.366 OA 
HETATM   21  O   UNL     2     -10.174   9.277  66.395  1.00  0.00    -0.273 OA 
HETATM   22  O   UNL     2     -10.865   9.816  68.429  1.00  0.00    -0.233 OA 
ENDBRANCH  14  17
ENDBRANCH  11  14
ENDBRANCH   2  11
BRANCH   3  23
HETATM   23  C   UNL     3      -9.903  15.353  67.361  1.00  0.00    -0.216 C  
HETATM   24  O   UNL     3     -10.421  15.305  68.670  1.00  0.00    -0.225 OA 
HETATM   25  H   UNL     3     -11.345  15.504  68.569  1.00  0.00     0.000 HD 
BRANCH  23  26
HETATM   26  C   UNL     3     -10.617  16.599  66.663  1.00  0.00    -0.203 C  
HETATM   27  O   UNL     3     -10.117  16.589  65.348  1.00  0.00    -0.570 OA 
HETATM   28  H   UNL     3     -10.541  17.331  64.933  1.00  0.00     0.000 HD 
BRANCH  26  29
HETATM   29  C   UNL     3     -10.505  18.139  67.102  1.00  0.00    -0.378 C  
HETATM   30  C   UNL     3      -9.711  19.112  66.277  1.00  0.00    -0.365 C  
HETATM   31  O   UNL     3      -9.986  18.262  68.409  1.00  0.00    -0.342 OA 
HETATM   32  O   UNL     3      -8.378  18.977  66.161  1.00  0.00    -0.379 OA 
HETATM   33  O   UNL     3     -10.251  20.117  65.840  1.00  0.00    -0.464 OA 
HETATM   34  H   UNL     3      -9.920  19.174  68.669  1.00  0.00     0.000 HD 
ENDBRANCH  26  29
ENDBRANCH  23  26
ENDBRANCH   3  23
BRANCH   3  35
HETATM   35  C   UNL     3      -7.893  13.535  67.375  1.00  0.00    -0.147 C  
HETATM   36  O   UNL     3      -8.613  12.845  66.396  1.00  0.00    -0.422 OA 
HETATM   37  H   UNL     3      -8.326  11.944  66.303  1.00  0.00     0.000 HD 
ENDBRANCH   3  35
TORSDOF 8
ENDMDL
MODEL      125
REMARK 921   NORMALIZED FREE ENERGY PREDICTED BY IDOCK:   -4.90 KCAL/MOL
REMARK 922        TOTAL FREE ENERGY PREDICTED BY IDOCK:   -8.87 KCAL/MOL
REMARK 923 INTER-LIGAND FREE ENERGY PREDICTED BY IDOCK:   -7.51 KCAL/MOL
REMARK 924 INTRA-LIGAND FREE ENERGY PREDICTED BY IDOCK:   -1.36 KCAL/MOL
REMARK 927      BINDING AFFINITY PREDICTED BY RF-SCORE:    0.00 PKD
ROOT
HETATM    1 MN   UNL     1      -8.558  15.962  65.423  1.00  0.00    -0.246 Mn 
HETATM    2  C   UNL     2      -8.756   8.271  66.352  1.00  0.00    -0.142 C  
HETATM    3  C   UNL     3     -10.293  17.871  65.630  1.00  0.00    -0.059 C  
HETATM    4  H   UNL     3     -10.607  19.776  65.428  1.00  0.00     0.000 HD 
HETATM    5  H   UNL     2      -8.539   9.527  64.925  1.00  0.00     0.000 HD 
HETATM    6  O   UNL     2      -8.436   8.587  65.006  1.00  0.00    -0.173 OA 
HETATM    7  O   UNL     3     -11.106  18.979  65.285  1.00  0.00    -0.401 OA 
ENDROOT
BRANCH   2   8
HETATM    8  C   UNL     2      -8.589   6.744  66.483  1.00  0.00    -0.128 C  
HETATM    9  H   UNL     2      -7.141   5.392  66.477  1.00  0.00     0.000 HD 
HETATM   10  O   UNL     2      -7.244   6.333  66.396  1.00  0.00    -0.067 OA 
ENDBRANCH   2   8
BRANCH   2  11
HETATM   11  C   UNL     2     -10.201   8.823  66.673  1.00  0.00    -0.270 C  
HETATM   12  H   UNL     2     -11.713   8.371  67.860  1.00  0.00     0.000 HD 
HETATM   13  O   UNL     2     -10.844   8.039  67.666  1.00  0.00    -0.170 OA 
BRANCH  11  14
HETATM   14  C   UNL     2     -10.275  10.312  67.148  1.00  0.00    -0.225 C  
HETATM   15  H   UNL     2     -10.851  11.222  68.740  1.00  0.00     0.000 HD 
HETATM   16  O   UNL     2     -10.805  10.319  68.452  1.00  0.00    -0.215 OA 
BRANCH  14  17
HETATM   17  C   UNL     2     -11.139  11.249  66.271  1.00  0.00    -0.166 C  
HETATM   18  C   UNL     2     -10.281  12.242  65.506  1.00  0.00    -0.269 C  
HETATM   19  H   UNL     2     -12.563  12.535  66.552  1.00  0.00     0.000 HD 
HETATM   20  O   UNL     2     -12.033  11.959  67.090  1.00  0.00    -0.611 OA 
HETATM   21  O   UNL     2     -10.857  13.110  64.658  1.00  0.00    -0.325 OA 
HETATM   22  O   UNL     2      -9.053  12.223  65.586  1.00  0.00     0.003 OA 
ENDBRANCH  14  17
ENDBRANCH  11  14
ENDBRANCH   2  11
BRANCH   3  23
HETATM   23  C   UNL     3      -9.751  18.180  67.082  1.00  0.00    -0.301 C  
HETATM   24  O   UNL     3     -10.765  18.952  67.683  1.00  0.00    -0.432 OA 
HETATM   25  H   UNL     3     -10.439  19.138  68.555  1.00  0.00     0.000 HD 
BRANCH  23  26
HETATM   26  C   UNL     3      -9.236  17.187  68.221  1.00  0.00    -0.262 C  
HETATM   27  O   UNL     3      -7.927  16.859  67.826  1.00  0.00    -0.175 OA 
HETATM   28  H   UNL     3      -7.621  16.268  68.504  1.00  0.00     0.000 HD 
BRANCH  26  29
HETATM   29  C   UNL     3      -9.879  15.772  68.623  1.00  0.00    -0.210 C  
HETATM   30  C   UNL     3     -11.255  15.702  69.225  1.00  0.00    -0.320 C  
HETATM   31  O   UNL     3      -9.052  15.071  69.527  1.00  0.00    -0.399 OA 
HETATM   32  O   UNL     3     -11.495  16.234  70.437  1.00  0.00    -0.355 OA 
HETATM   33  O   UNL     3     -12.118  15.027  68.685  1.00  0.00    -0.265 OA 
HETATM   34  H   UNL     3      -9.433  14.234  69.765  1.00  0.00     0.000 HD 
ENDBRANCH  26  29
ENDBRANCH  23  26
ENDBRANCH   3  23
BRANCH   3  35
HETATM   35  C   UNL     3     -11.115  16.557  65.394  1.00  0.00    -0.019 C  
HETATM   36  O   UNL     3     -11.289  16.274  64.037  1.00  0.00    -1.311 OA 
HETATM   37  H   UNL     3     -11.788  15.477  63.894  1.00  0.00     0.000 HD 
ENDBRANCH   3  35
TORSDOF 8
ENDMDL
MODEL      126
REMARK 921   NORMALIZED FREE ENERGY PREDICTED BY IDOCK:   -4.89 KCAL/MOL
REMARK 922        TOTAL FREE ENERGY PREDICTED BY IDOCK:   -8.86 KCAL/MOL
REMARK 923 INTER-LIGAND FREE ENERGY PREDICTED BY IDOCK:   -7.21 KCAL/MOL
REMARK 924 INTRA-LIGAND FREE ENERGY PREDICTED BY IDOCK:   -1.65 KCAL/MOL
REMARK 927      BINDING AFFINITY PREDICTED BY RF-SCORE:    0.00 PKD
ROOT
HETATM    1 MN   UNL     1     -12.400  12.966  67.369  1.00  0.00    -0.328 Mn 
HETATM    2  C   UNL     2     -10.130   5.614  68.293  1.00  0.00    -0.169 C  
HETATM    3  C   UNL     3     -11.244  15.272  67.571  1.00  0.00    -0.317 C  
HETATM    4  H   UNL     3     -11.486  17.196  67.482  1.00  0.00     0.000 HD 
HETATM    5  H   UNL     2     -11.287   6.867  69.162  1.00  0.00     0.000 HD 
HETATM    6  O   UNL     2     -11.133   5.933  69.245  1.00  0.00    -0.360 OA 
HETATM    7  O   UNL     3     -10.966  16.594  68.002  1.00  0.00    -0.355 OA 
ENDROOT
BRANCH   2   8
HETATM    8  C   UNL     2      -9.881   4.099  68.429  1.00  0.00    -0.012 C  
HETATM    9  H   UNL     2      -9.392   2.556  67.288  1.00  0.00     0.000 HD 
HETATM   10  O   UNL     2      -9.546   3.489  67.204  1.00  0.00    -0.207 OA 
ENDBRANCH   2   8
BRANCH   2  11
HETATM   11  C   UNL     2      -8.872   6.533  68.553  1.00  0.00    -0.121 C  
HETATM   12  H   UNL     2      -7.219   7.058  67.609  1.00  0.00     0.000 HD 
HETATM   13  O   UNL     2      -7.976   6.505  67.453  1.00  0.00    -0.110 OA 
BRANCH  11  14
HETATM   14  C   UNL     2      -9.174   8.038  68.858  1.00  0.00    -0.147 C  
HETATM   15  H   UNL     2      -9.985   9.499  67.908  1.00  0.00     0.000 HD 
HETATM   16  O   UNL     2      -9.801   8.586  67.724  1.00  0.00    -0.159 OA 
BRANCH  14  17
HETATM   17  C   UNL     2      -7.942   8.910  69.197  1.00  0.00    -0.105 C  
HETATM   18  C   UNL     2      -7.909   9.276  70.671  1.00  0.00    -0.158 C  
HETATM   19  H   UNL     2      -7.229  10.626  68.646  1.00  0.00     0.000 HD 
HETATM   20  O   UNL     2      -7.985  10.091  68.438  1.00  0.00    -0.094 OA 
HETATM   21  O   UNL     2      -6.886   9.997  71.158  1.00  0.00    -0.336 OA 
HETATM   22  O   UNL     2      -8.764   8.863  71.453  1.00  0.00    -0.200 OA 
ENDBRANCH  14  17
ENDBRANCH  11  14
ENDBRANCH   2  11
BRANCH   3  23
HETATM   23  C   UNL     3     -11.048  15.290  66.002  1.00  0.00    -0.278 C  
HETATM   24  O   UNL     3      -9.840  14.598  65.787  1.00  0.00    -0.317 OA 
HETATM   25  H   UNL     3      -9.723  14.609  64.845  1.00  0.00     0.000 HD 
BRANCH  23  26
HETATM   26  C   UNL     3     -12.030  14.811  64.838  1.00  0.00    -0.358 C  
HETATM   27  O   UNL     3     -13.235  14.522  65.501  1.00  0.00    -0.495 OA 
HETATM   28  H   UNL     3     -13.819  14.237  64.809  1.00  0.00     0.000 HD 
BRANCH  26  29
HETATM   29  C   UNL     3     -11.819  13.554  63.862  1.00  0.00    -0.411 C  
HETATM   30  C   UNL     3     -12.492  12.242  64.153  1.00  0.00    -0.434 C  
HETATM   31  O   UNL     3     -10.450  13.238  63.723  1.00  0.00    -0.532 OA 
HETATM   32  O   UNL     3     -12.161  11.535  65.248  1.00  0.00    -0.035 OA 
HETATM   33  O   UNL     3     -13.226  11.740  63.316  1.00  0.00    -0.555 OA 
HETATM   34  H   UNL     3     -10.326  12.493  63.145  1.00  0.00     0.000 HD 
ENDBRANCH  26  29
ENDBRANCH  23  26
ENDBRANCH   3  23
BRANCH   3  35
HETATM   35  C   UNL     3     -10.387  14.278  68.428  1.00  0.00    -0.247 C  
HETATM   36  O   UNL     3     -11.144  13.626  69.404  1.00  0.00    -0.367 OA 
HETATM   37  H   UNL     3     -10.625  13.023  69.924  1.00  0.00     0.000 HD 
ENDBRANCH   3  35
TORSDOF 8
ENDMDL
MODEL      127
REMARK 921   NORMALIZED FREE ENERGY PREDICTED BY IDOCK:   -4.89 KCAL/MOL
REMARK 922        TOTAL FREE ENERGY PREDICTED BY IDOCK:   -8.85 KCAL/MOL
REMARK 923 INTER-LIGAND FREE ENERGY PREDICTED BY IDOCK:   -7.49 KCAL/MOL
REMARK 924 INTRA-LIGAND FREE ENERGY PREDICTED BY IDOCK:   -1.36 KCAL/MOL
REMARK 927      BINDING AFFINITY PREDICTED BY RF-SCORE:    0.00 PKD
ROOT
HETATM    1 MN   UNL     1     -10.072  12.773  67.304  1.00  0.00    -0.206 Mn 
HETATM    2  C   UNL     2      -9.983   5.744  70.565  1.00  0.00    -0.195 C  
HETATM    3  C   UNL     3     -10.677  15.155  68.116  1.00  0.00    -0.254 C  
HETATM    4  H   UNL     3     -10.869  17.018  67.607  1.00  0.00     0.000 HD 
HETATM    5  H   UNL     2     -10.973   6.677  69.220  1.00  0.00     0.000 HD 
HETATM    6  O   UNL     2     -10.922   5.771  69.502  1.00  0.00    -0.353 OA 
HETATM    7  O   UNL     3     -11.316  16.417  68.192  1.00  0.00    -0.324 OA 
ENDROOT
BRANCH   2   8
HETATM    8  C   UNL     2      -9.900   4.274  71.023  1.00  0.00    -0.181 C  
HETATM    9  H   UNL     2      -8.540   2.851  71.245  1.00  0.00     0.000 HD 
HETATM   10  O   UNL     2      -8.591   3.757  70.962  1.00  0.00    -0.070 OA 
ENDBRANCH   2   8
BRANCH   2  11
HETATM   11  C   UNL     2     -10.441   6.773  71.673  1.00  0.00    -0.209 C  
HETATM   12  H   UNL     2      -9.690   7.611  73.295  1.00  0.00     0.000 HD 
HETATM   13  O   UNL     2      -9.415   6.992  72.629  1.00  0.00    -0.141 OA 
BRANCH  11  14
HETATM   14  C   UNL     2     -10.893   8.179  71.157  1.00  0.00    -0.232 C  
HETATM   15  H   UNL     2     -10.018   9.839  70.740  1.00  0.00     0.000 HD 
HETATM   16  O   UNL     2      -9.744   8.985  71.053  1.00  0.00    -0.229 OA 
BRANCH  14  17
HETATM   17  C   UNL     2     -11.921   8.917  72.047  1.00  0.00    -0.369 C  
HETATM   18  C   UNL     2     -13.302   8.296  71.932  1.00  0.00    -0.342 C  
HETATM   19  H   UNL     2     -12.627  10.717  72.198  1.00  0.00     0.000 HD 
HETATM   20  O   UNL     2     -11.995  10.263  71.652  1.00  0.00    -0.332 OA 
HETATM   21  O   UNL     2     -14.317   8.780  72.668  1.00  0.00    -0.585 OA 
HETATM   22  O   UNL     2     -13.503   7.303  71.233  1.00  0.00    -0.369 OA 
ENDBRANCH  14  17
ENDBRANCH  11  14
ENDBRANCH   2  11
BRANCH   3  23
HETATM   23  C   UNL     3      -9.141  15.444  68.351  1.00  0.00    -0.191 C  
HETATM   24  O   UNL     3      -8.486  14.290  67.879  1.00  0.00    -0.149 OA 
HETATM   25  H   UNL     3      -7.563  14.465  68.020  1.00  0.00     0.000 HD 
BRANCH  23  26
HETATM   26  C   UNL     3      -8.241  16.674  67.873  1.00  0.00    -0.180 C  
HETATM   27  O   UNL     3      -8.786  17.781  68.548  1.00  0.00    -0.282 OA 
HETATM   28  H   UNL     3      -8.251  18.513  68.264  1.00  0.00     0.000 HD 
BRANCH  26  29
HETATM   29  C   UNL     3      -8.055  17.199  66.368  1.00  0.00    -0.302 C  
HETATM   30  C   UNL     3      -7.658  18.623  66.100  1.00  0.00    -0.246 C  
HETATM   31  O   UNL     3      -9.228  16.999  65.607  1.00  0.00    -0.508 OA 
HETATM   32  O   UNL     3      -8.486  19.633  66.423  1.00  0.00    -0.327 OA 
HETATM   33  O   UNL     3      -6.653  18.859  65.447  1.00  0.00    -0.303 OA 
HETATM   34  H   UNL     3      -9.118  17.310  64.716  1.00  0.00     0.000 HD 
ENDBRANCH  26  29
ENDBRANCH  23  26
ENDBRANCH   3  23
BRANCH   3  35
HETATM   35  C   UNL     3     -11.415  14.164  69.082  1.00  0.00    -0.296 C  
HETATM   36  O   UNL     3     -12.102  13.161  68.393  1.00  0.00    -0.318 OA 
HETATM   37  H   UNL     3     -12.549  12.560  68.978  1.00  0.00     0.000 HD 
ENDBRANCH   3  35
TORSDOF 8
ENDMDL
MODEL      128
REMARK 921   NORMALIZED FREE ENERGY PREDICTED BY IDOCK:   -4.89 KCAL/MOL
REMARK 922        TOTAL FREE ENERGY PREDICTED BY IDOCK:   -8.85 KCAL/MOL
REMARK 923 INTER-LIGAND FREE ENERGY PREDICTED BY IDOCK:   -7.42 KCAL/MOL
REMARK 924 INTRA-LIGAND FREE ENERGY PREDICTED BY IDOCK:   -1.43 KCAL/MOL
REMARK 927      BINDING AFFINITY PREDICTED BY RF-SCORE:    0.00 PKD
ROOT
HETATM    1 MN   UNL     1     -10.839   9.996  72.059  1.00  0.00    -0.268 Mn 
HETATM    2  C   UNL     2      -7.267  15.746  68.286  1.00  0.00    -0.116 C  
HETATM    3  C   UNL     3     -13.048   8.691  71.727  1.00  0.00    -0.361 C  
HETATM    4  H   UNL     3     -14.223   7.325  72.449  1.00  0.00     0.000 HD 
HETATM    5  H   UNL     2      -8.140  15.472  69.967  1.00  0.00     0.000 HD 
HETATM    6  O   UNL     2      -7.609  16.168  69.597  1.00  0.00    -0.140 OA 
HETATM    7  O   UNL     3     -14.332   8.149  71.989  1.00  0.00    -0.417 OA 
ENDROOT
BRANCH   2   8
HETATM    8  C   UNL     2      -6.406  16.875  67.686  1.00  0.00    -0.146 C  
HETATM    9  H   UNL     2      -5.496  17.318  65.983  1.00  0.00     0.000 HD 
HETATM   10  O   UNL     2      -6.027  16.623  66.353  1.00  0.00    -0.283 OA 
ENDBRANCH   2   8
BRANCH   2  11
HETATM   11  C   UNL     2      -8.595  15.416  67.497  1.00  0.00    -0.174 C  
HETATM   12  H   UNL     2      -9.982  14.011  67.484  1.00  0.00     0.000 HD 
HETATM   13  O   UNL     2      -9.183  14.209  67.958  1.00  0.00    -0.181 OA 
BRANCH  11  14
HETATM   14  C   UNL     2      -9.709  16.513  67.540  1.00  0.00    -0.242 C  
HETATM   15  H   UNL     2     -11.632  16.524  67.554  1.00  0.00     0.000 HD 
HETATM   16  O   UNL     2     -10.955  15.858  67.527  1.00  0.00    -0.323 OA 
BRANCH  14  17
HETATM   17  C   UNL     2      -9.688  17.532  66.376  1.00  0.00    -0.288 C  
HETATM   18  C   UNL     2      -9.927  18.948  66.873  1.00  0.00    -0.345 C  
HETATM   19  H   UNL     2     -10.678  17.827  64.736  1.00  0.00     0.000 HD 
HETATM   20  O   UNL     2     -10.691  17.202  65.450  1.00  0.00    -0.562 OA 
HETATM   21  O   UNL     2      -9.901  19.974  66.006  1.00  0.00    -0.445 OA 
HETATM   22  O   UNL     2     -10.071  19.192  68.070  1.00  0.00    -0.354 OA 
ENDBRANCH  14  17
ENDBRANCH  11  14
ENDBRANCH   2  11
BRANCH   3  23
HETATM   23  C   UNL     3     -12.235   7.529  71.028  1.00  0.00    -0.259 C  
HETATM   24  O   UNL     3     -11.689   8.123  69.873  1.00  0.00    -0.431 OA 
HETATM   25  H   UNL     3     -11.200   7.425  69.454  1.00  0.00     0.000 HD 
BRANCH  23  26
HETATM   26  C   UNL     3     -11.086   6.584  71.608  1.00  0.00    -0.259 C  
HETATM   27  O   UNL     3     -10.123   7.480  72.107  1.00  0.00    -0.185 OA 
HETATM   28  H   UNL     3      -9.440   6.918  72.452  1.00  0.00     0.000 HD 
BRANCH  26  29
HETATM   29  C   UNL     3     -10.220   5.511  70.786  1.00  0.00    -0.235 C  
HETATM   30  C   UNL     3      -8.729   5.659  70.674  1.00  0.00    -0.134 C  
HETATM   31  O   UNL     3     -10.676   5.398  69.455  1.00  0.00    -0.274 OA 
HETATM   32  O   UNL     3      -8.197   6.701  70.010  1.00  0.00    -0.125 OA 
HETATM   33  O   UNL     3      -8.001   4.753  71.050  1.00  0.00    -0.080 OA 
HETATM   34  H   UNL     3     -10.163   4.763  68.969  1.00  0.00     0.000 HD 
ENDBRANCH  26  29
ENDBRANCH  23  26
ENDBRANCH   3  23
BRANCH   3  35
HETATM   35  C   UNL     3     -13.227  10.051  70.968  1.00  0.00    -0.325 C  
HETATM   36  O   UNL     3     -13.116  11.154  71.818  1.00  0.00    -0.467 OA 
HETATM   37  H   UNL     3     -13.225  11.979  71.358  1.00  0.00     0.000 HD 
ENDBRANCH   3  35
TORSDOF 8
ENDMDL
MODEL      129
REMARK 921   NORMALIZED FREE ENERGY PREDICTED BY IDOCK:   -4.87 KCAL/MOL
REMARK 922        TOTAL FREE ENERGY PREDICTED BY IDOCK:   -8.82 KCAL/MOL
REMARK 923 INTER-LIGAND FREE ENERGY PREDICTED BY IDOCK:   -6.59 KCAL/MOL
REMARK 924 INTRA-LIGAND FREE ENERGY PREDICTED BY IDOCK:   -2.24 KCAL/MOL
REMARK 927      BINDING AFFINITY PREDICTED BY RF-SCORE:    0.00 PKD
ROOT
HETATM    1 MN   UNL     1      -8.196   6.820  70.583  1.00  0.00    -0.102 Mn 
HETATM    2  C   UNL     2     -11.020  12.094  65.656  1.00  0.00    -0.295 C  
HETATM    3  C   UNL     3      -8.518   6.318  73.101  1.00  0.00    -0.116 C  
HETATM    4  H   UNL     3      -7.972   5.201  74.592  1.00  0.00     0.000 HD 
HETATM    5  H   UNL     2      -9.343  11.660  66.470  1.00  0.00     0.000 HD 
HETATM    6  O   UNL     2      -9.614  12.248  65.775  1.00  0.00    -0.241 OA 
HETATM    7  O   UNL     3      -8.217   6.112  74.470  1.00  0.00    -0.120 OA 
ENDROOT
BRANCH   2   8
HETATM    8  C   UNL     2     -11.459  13.048  64.528  1.00  0.00    -0.347 C  
HETATM    9  H   UNL     2     -13.124  13.631  63.626  1.00  0.00     0.000 HD 
HETATM   10  O   UNL     2     -12.853  13.043  64.321  1.00  0.00    -0.671 OA 
ENDBRANCH   2   8
BRANCH   2  11
HETATM   11  C   UNL     2     -11.681  12.362  67.066  1.00  0.00    -0.353 C  
HETATM   12  H   UNL     2     -12.222  11.320  68.653  1.00  0.00     0.000 HD 
HETATM   13  O   UNL     2     -11.825  11.159  67.805  1.00  0.00    -0.608 OA 
BRANCH  11  14
HETATM   14  C   UNL     2     -10.935  13.380  67.990  1.00  0.00    -0.244 C  
HETATM   15  H   UNL     2     -10.618  13.549  69.879  1.00  0.00     0.000 HD 
HETATM   16  O   UNL     2     -11.071  12.931  69.317  1.00  0.00    -0.218 OA 
BRANCH  14  17
HETATM   17  C   UNL     2     -11.442  14.840  67.920  1.00  0.00    -0.342 C  
HETATM   18  C   UNL     2     -10.341  15.790  67.480  1.00  0.00    -0.280 C  
HETATM   19  H   UNL     2     -12.212  16.131  69.145  1.00  0.00     0.000 HD 
HETATM   20  O   UNL     2     -11.901  15.234  69.188  1.00  0.00    -0.316 OA 
HETATM   21  O   UNL     2     -10.609  17.097  67.322  1.00  0.00    -0.325 OA 
HETATM   22  O   UNL     2      -9.218  15.380  67.190  1.00  0.00    -0.200 OA 
ENDBRANCH  14  17
ENDBRANCH  11  14
ENDBRANCH   2  11
BRANCH   3  23
HETATM   23  C   UNL     3      -9.561   5.191  72.723  1.00  0.00    -0.145 C  
HETATM   24  O   UNL     3     -10.818   5.816  72.847  1.00  0.00    -0.228 OA 
HETATM   25  H   UNL     3     -11.444   5.138  72.620  1.00  0.00     0.000 HD 
BRANCH  23  26
HETATM   26  C   UNL     3      -9.661   4.279  71.417  1.00  0.00    -0.181 C  
HETATM   27  O   UNL     3      -8.347   3.822  71.215  1.00  0.00    -0.070 OA 
HETATM   28  H   UNL     3      -8.406   3.279  70.438  1.00  0.00     0.000 HD 
BRANCH  26  29
HETATM   29  C   UNL     3     -10.133   4.744  69.955  1.00  0.00    -0.238 C  
HETATM   30  C   UNL     3      -9.203   4.627  68.780  1.00  0.00    -0.129 C  
HETATM   31  O   UNL     3     -10.548   6.094  69.957  1.00  0.00    -0.213 OA 
HETATM   32  O   UNL     3      -8.078   5.362  68.727  1.00  0.00    -0.087 OA 
HETATM   33  O   UNL     3      -9.545   3.983  67.800  1.00  0.00    -0.177 OA 
HETATM   34  H   UNL     3     -10.827   6.369  69.091  1.00  0.00     0.000 HD 
ENDBRANCH  26  29
ENDBRANCH  23  26
ENDBRANCH   3  23
BRANCH   3  35
HETATM   35  C   UNL     3      -8.922   7.820  72.900  1.00  0.00    -0.188 C  
HETATM   36  O   UNL     3      -9.584   8.036  71.689  1.00  0.00    -0.153 OA 
HETATM   37  H   UNL     3      -9.829   8.946  71.568  1.00  0.00     0.000 HD 
ENDBRANCH   3  35
TORSDOF 8
ENDMDL
MODEL      130
REMARK 921   NORMALIZED FREE ENERGY PREDICTED BY IDOCK:   -4.87 KCAL/MOL
REMARK 922        TOTAL FREE ENERGY PREDICTED BY IDOCK:   -8.82 KCAL/MOL
REMARK 923 INTER-LIGAND FREE ENERGY PREDICTED BY IDOCK:   -7.83 KCAL/MOL
REMARK 924 INTRA-LIGAND FREE ENERGY PREDICTED BY IDOCK:   -0.99 KCAL/MOL
REMARK 927      BINDING AFFINITY PREDICTED BY RF-SCORE:    0.00 PKD
ROOT
HETATM    1 MN   UNL     1     -12.308  12.492  66.992  1.00  0.00    -0.351 Mn 
HETATM    2  C   UNL     2      -9.323   5.351  66.597  1.00  0.00    -0.139 C  
HETATM    3  C   UNL     3     -11.885  14.567  68.478  1.00  0.00    -0.320 C  
HETATM    4  H   UNL     3     -12.439  16.383  68.886  1.00  0.00     0.000 HD 
HETATM    5  H   UNL     2     -10.980   6.177  67.078  1.00  0.00     0.000 HD 
HETATM    6  O   UNL     2     -10.700   5.281  66.931  1.00  0.00    -0.253 OA 
HETATM    7  O   UNL     3     -12.123  15.635  69.380  1.00  0.00    -0.356 OA 
ENDROOT
BRANCH   2   8
HETATM    8  C   UNL     2      -8.867   3.898  66.358  1.00  0.00    -0.125 C  
HETATM    9  H   UNL     2      -9.352   2.345  65.228  1.00  0.00     0.000 HD 
HETATM   10  O   UNL     2      -9.633   3.241  65.375  1.00  0.00    -0.147 OA 
ENDBRANCH   2   8
BRANCH   2  11
HETATM   11  C   UNL     2      -8.559   6.120  67.746  1.00  0.00    -0.114 C  
HETATM   12  H   UNL     2      -7.360   7.679  67.922  1.00  0.00     0.000 HD 
HETATM   13  O   UNL     2      -7.819   7.216  67.231  1.00  0.00    -0.107 OA 
BRANCH  11  14
HETATM   14  C   UNL     2      -9.448   6.674  68.908  1.00  0.00    -0.130 C  
HETATM   15  H   UNL     2      -9.465   8.262  69.992  1.00  0.00     0.000 HD 
HETATM   16  O   UNL     2      -8.925   7.925  69.287  1.00  0.00    -0.144 OA 
BRANCH  14  17
HETATM   17  C   UNL     2      -9.531   5.783  70.169  1.00  0.00    -0.160 C  
HETATM   18  C   UNL     2     -10.828   6.009  70.926  1.00  0.00    -0.285 C  
HETATM   19  H   UNL     2      -8.503   5.532  71.794  1.00  0.00     0.000 HD 
HETATM   20  O   UNL     2      -8.452   6.079  71.019  1.00  0.00    -0.122 OA 
HETATM   21  O   UNL     2     -11.093   5.289  72.029  1.00  0.00    -0.187 OA 
HETATM   22  O   UNL     2     -11.685   6.789  70.512  1.00  0.00    -0.351 OA 
ENDBRANCH  14  17
ENDBRANCH  11  14
ENDBRANCH   2  11
BRANCH   3  23
HETATM   23  C   UNL     3     -10.970  15.172  67.340  1.00  0.00    -0.314 C  
HETATM   24  O   UNL     3      -9.994  15.920  68.028  1.00  0.00    -0.218 OA 
HETATM   25  H   UNL     3      -9.445  16.283  67.344  1.00  0.00     0.000 HD 
BRANCH  23  26
HETATM   26  C   UNL     3     -10.193  14.445  66.150  1.00  0.00    -0.306 C  
HETATM   27  O   UNL     3      -9.000  15.179  66.019  1.00  0.00    -0.462 OA 
HETATM   28  H   UNL     3      -8.537  14.747  65.311  1.00  0.00     0.000 HD 
BRANCH  26  29
HETATM   29  C   UNL     3     -10.701  14.270  64.637  1.00  0.00    -0.365 C  
HETATM   30  C   UNL     3     -12.116  13.851  64.352  1.00  0.00    -0.443 C  
HETATM   31  O   UNL     3      -9.899  13.348  63.931  1.00  0.00    -0.660 OA 
HETATM   32  O   UNL     3     -12.550  12.630  64.712  1.00  0.00    -0.542 OA 
HETATM   33  O   UNL     3     -12.827  14.557  63.654  1.00  0.00    -0.632 OA 
HETATM   34  H   UNL     3     -10.201  13.244  63.036  1.00  0.00     0.000 HD 
ENDBRANCH  26  29
ENDBRANCH  23  26
ENDBRANCH   3  23
BRANCH   3  35
HETATM   35  C   UNL     3     -11.363  13.334  69.292  1.00  0.00    -0.253 C  
HETATM   36  O   UNL     3      -9.968  13.256  69.305  1.00  0.00    -0.342 OA 
HETATM   37  H   UNL     3      -9.651  12.508  69.798  1.00  0.00     0.000 HD 
ENDBRANCH   3  35
TORSDOF 8
ENDMDL
MODEL      131
REMARK 921   NORMALIZED FREE ENERGY PREDICTED BY IDOCK:   -4.86 KCAL/MOL
REMARK 922        TOTAL FREE ENERGY PREDICTED BY IDOCK:   -8.81 KCAL/MOL
REMARK 923 INTER-LIGAND FREE ENERGY PREDICTED BY IDOCK:   -7.49 KCAL/MOL
REMARK 924 INTRA-LIGAND FREE ENERGY PREDICTED BY IDOCK:   -1.32 KCAL/MOL
REMARK 927      BINDING AFFINITY PREDICTED BY RF-SCORE:    0.00 PKD
ROOT
HETATM    1 MN   UNL     1      -9.470  10.183  67.015  1.00  0.00    -0.147 Mn 
HETATM    2  C   UNL     2      -9.927  17.910  66.647  1.00  0.00    -0.355 C  
HETATM    3  C   UNL     3      -8.901   8.475  68.874  1.00  0.00    -0.139 C  
HETATM    4  H   UNL     3      -8.642   6.598  69.297  1.00  0.00     0.000 HD 
HETATM    5  H   UNL     2      -8.816  16.515  65.954  1.00  0.00     0.000 HD 
HETATM    6  O   UNL     2      -8.903  17.445  65.782  1.00  0.00    -0.522 OA 
HETATM    7  O   UNL     3      -8.253   7.422  69.568  1.00  0.00    -0.127 OA 
ENDROOT
BRANCH   2   8
HETATM    8  C   UNL     2     -10.069  19.420  66.367  1.00  0.00    -0.444 C  
HETATM    9  H   UNL     2      -8.912  21.004  66.092  1.00  0.00     0.000 HD 
HETATM   10  O   UNL     2      -8.825  20.074  66.264  1.00  0.00    -0.343 OA 
ENDBRANCH   2   8
BRANCH   2  11
HETATM   11  C   UNL     2      -9.549  17.529  68.132  1.00  0.00    -0.294 C  
HETATM   12  H   UNL     2      -9.925  18.188  69.956  1.00  0.00     0.000 HD 
HETATM   13  O   UNL     2     -10.152  18.417  69.062  1.00  0.00    -0.379 OA 
BRANCH  11  14
HETATM   14  C   UNL     2      -9.917  16.077  68.582  1.00  0.00    -0.220 C  
HETATM   15  H   UNL     2      -9.037  14.672  69.556  1.00  0.00     0.000 HD 
HETATM   16  O   UNL     2      -8.814  15.554  69.282  1.00  0.00    -0.228 OA 
BRANCH  14  17
HETATM   17  C   UNL     2     -10.274  15.095  67.442  1.00  0.00    -0.235 C  
HETATM   18  C   UNL     2     -11.407  14.166  67.842  1.00  0.00    -0.294 C  
HETATM   19  H   UNL     2      -9.365  13.720  66.422  1.00  0.00     0.000 HD 
HETATM   20  O   UNL     2      -9.146  14.323  67.122  1.00  0.00    -0.207 OA 
HETATM   21  O   UNL     2     -11.882  13.270  66.960  1.00  0.00    -0.365 OA 
HETATM   22  O   UNL     2     -11.957  14.261  68.939  1.00  0.00    -0.325 OA 
ENDBRANCH  14  17
ENDBRANCH  11  14
ENDBRANCH   2  11
BRANCH   3  23
HETATM   23  C   UNL     3     -10.448   8.248  69.112  1.00  0.00    -0.206 C  
HETATM   24  O   UNL     3     -10.858   7.441  68.032  1.00  0.00    -0.410 OA 
HETATM   25  H   UNL     3     -11.787   7.304  68.175  1.00  0.00     0.000 HD 
BRANCH  23  26
HETATM   26  C   UNL     3     -11.220   7.680  70.389  1.00  0.00    -0.244 C  
HETATM   27  O   UNL     3     -12.433   7.193  69.869  1.00  0.00    -0.250 OA 
HETATM   28  H   UNL     3     -12.892   6.856  70.629  1.00  0.00     0.000 HD 
BRANCH  26  29
HETATM   29  C   UNL     3     -11.668   8.512  71.687  1.00  0.00    -0.306 C  
HETATM   30  C   UNL     3     -13.109   8.884  71.895  1.00  0.00    -0.386 C  
HETATM   31  O   UNL     3     -10.961   9.730  71.783  1.00  0.00    -0.147 OA 
HETATM   32  O   UNL     3     -13.721   9.735  71.053  1.00  0.00    -0.277 OA 
HETATM   33  O   UNL     3     -13.682   8.537  72.917  1.00  0.00    -0.138 OA 
HETATM   34  H   UNL     3     -11.226  10.223  72.551  1.00  0.00     0.000 HD 
ENDBRANCH  26  29
ENDBRANCH  23  26
ENDBRANCH   3  23
BRANCH   3  35
HETATM   35  C   UNL     3      -8.260   9.834  69.320  1.00  0.00    -0.132 C  
HETATM   36  O   UNL     3      -9.158  10.901  69.232  1.00  0.00    -0.368 OA 
HETATM   37  H   UNL     3      -8.770  11.725  69.502  1.00  0.00     0.000 HD 
ENDBRANCH   3  35
TORSDOF 8
ENDMDL
MODEL      132
REMARK 921   NORMALIZED FREE ENERGY PREDICTED BY IDOCK:   -4.86 KCAL/MOL
REMARK 922        TOTAL FREE ENERGY PREDICTED BY IDOCK:   -8.81 KCAL/MOL
REMARK 923 INTER-LIGAND FREE ENERGY PREDICTED BY IDOCK:   -7.21 KCAL/MOL
REMARK 924 INTRA-LIGAND FREE ENERGY PREDICTED BY IDOCK:   -1.60 KCAL/MOL
REMARK 927      BINDING AFFINITY PREDICTED BY RF-SCORE:    0.00 PKD
ROOT
HETATM    1 MN   UNL     1     -10.680  15.459  68.882  1.00  0.00    -0.204 Mn 
HETATM    2  C   UNL     2     -11.491   7.927  70.514  1.00  0.00    -0.195 C  
HETATM    3  C   UNL     3      -8.671  17.015  68.392  1.00  0.00    -0.247 C  
HETATM    4  H   UNL     3      -8.110  18.837  68.027  1.00  0.00     0.000 HD 
HETATM    5  H   UNL     2     -11.716   9.608  71.400  1.00  0.00     0.000 HD 
HETATM    6  O   UNL     2     -11.945   8.709  71.607  1.00  0.00    -0.290 OA 
HETATM    7  O   UNL     3      -7.759  18.094  68.505  1.00  0.00    -0.281 OA 
ENDROOT
BRANCH   2   8
HETATM    8  C   UNL     2     -11.863   6.469  70.850  1.00  0.00    -0.331 C  
HETATM    9  H   UNL     2     -12.329   5.371  72.431  1.00  0.00     0.000 HD 
HETATM   10  O   UNL     2     -12.100   6.269  72.224  1.00  0.00    -0.304 OA 
ENDBRANCH   2   8
BRANCH   2  11
HETATM   11  C   UNL     2      -9.950   8.201  70.299  1.00  0.00    -0.189 C  
HETATM   12  H   UNL     2      -8.810   9.555  69.425  1.00  0.00     0.000 HD 
HETATM   13  O   UNL     2      -9.737   9.390  69.554  1.00  0.00    -0.167 OA 
BRANCH  11  14
HETATM   14  C   UNL     2      -9.086   8.313  71.597  1.00  0.00    -0.185 C  
HETATM   15  H   UNL     2      -7.565   9.348  72.154  1.00  0.00     0.000 HD 
HETATM   16  O   UNL     2      -8.090   9.280  71.366  1.00  0.00    -0.330 OA 
BRANCH  14  17
HETATM   17  C   UNL     2      -8.394   7.006  72.053  1.00  0.00    -0.105 C  
HETATM   18  C   UNL     2      -8.778   6.641  73.476  1.00  0.00    -0.123 C  
HETATM   19  H   UNL     2      -6.576   6.369  72.268  1.00  0.00     0.000 HD 
HETATM   20  O   UNL     2      -7.001   7.171  71.988  1.00  0.00    -0.060 OA 
HETATM   21  O   UNL     2      -8.305   5.511  74.028  1.00  0.00    -0.112 OA 
HETATM   22  O   UNL     2      -9.579   7.320  74.119  1.00  0.00    -0.265 OA 
ENDBRANCH  14  17
ENDBRANCH  11  14
ENDBRANCH   2  11
BRANCH   3  23
HETATM   23  C   UNL     3      -8.954  16.861  66.844  1.00  0.00    -0.224 C  
HETATM   24  O   UNL     3      -8.051  15.868  66.415  1.00  0.00    -0.265 OA 
HETATM   25  H   UNL     3      -8.221  15.776  65.485  1.00  0.00     0.000 HD 
BRANCH  23  26
HETATM   26  C   UNL     3     -10.319  16.561  66.073  1.00  0.00    -0.345 C  
HETATM   27  O   UNL     3     -11.276  16.454  67.098  1.00  0.00    -0.058 OA 
HETATM   28  H   UNL     3     -12.089  16.275  66.639  1.00  0.00     0.000 HD 
BRANCH  26  29
HETATM   29  C   UNL     3     -10.630  15.302  65.127  1.00  0.00    -0.430 C  
HETATM   30  C   UNL     3     -12.028  14.761  65.012  1.00  0.00    -0.318 C  
HETATM   31  O   UNL     3      -9.837  14.188  65.480  1.00  0.00    -0.465 OA 
HETATM   32  O   UNL     3     -12.630  14.199  66.075  1.00  0.00    -0.478 OA 
HETATM   33  O   UNL     3     -12.560  14.689  63.915  1.00  0.00    -0.834 OA 
HETATM   34  H   UNL     3     -10.022  13.443  64.920  1.00  0.00     0.000 HD 
ENDBRANCH  26  29
ENDBRANCH  23  26
ENDBRANCH   3  23
BRANCH   3  35
HETATM   35  C   UNL     3      -8.092  15.789  69.180  1.00  0.00    -0.237 C  
HETATM   36  O   UNL     3      -8.630  14.575  68.747  1.00  0.00    -0.168 OA 
HETATM   37  H   UNL     3      -8.279  13.832  69.225  1.00  0.00     0.000 HD 
ENDBRANCH   3  35
TORSDOF 8
ENDMDL
MODEL      133
REMARK 921   NORMALIZED FREE ENERGY PREDICTED BY IDOCK:   -4.85 KCAL/MOL
REMARK 922        TOTAL FREE ENERGY PREDICTED BY IDOCK:   -8.79 KCAL/MOL
REMARK 923 INTER-LIGAND FREE ENERGY PREDICTED BY IDOCK:   -6.60 KCAL/MOL
REMARK 924 INTRA-LIGAND FREE ENERGY PREDICTED BY IDOCK:   -2.19 KCAL/MOL
REMARK 927      BINDING AFFINITY PREDICTED BY RF-SCORE:    0.00 PKD
ROOT
HETATM    1 MN   UNL     1     -10.431  13.861  68.343  1.00  0.00    -0.202 Mn 
HETATM    2  C   UNL     2      -9.213   6.461  70.295  1.00  0.00    -0.155 C  
HETATM    3  C   UNL     3      -9.409  15.482  66.604  1.00  0.00    -0.266 C  
HETATM    4  H   UNL     3      -9.412  17.296  65.913  1.00  0.00     0.000 HD 
HETATM    5  H   UNL     2      -8.966   8.196  71.064  1.00  0.00     0.000 HD 
HETATM    6  O   UNL     2      -8.910   7.307  71.394  1.00  0.00    -0.130 OA 
HETATM    7  O   UNL     3      -8.762  16.618  66.056  1.00  0.00    -0.433 OA 
ENDROOT
BRANCH   2   8
HETATM    8  C   UNL     2      -9.124   5.018  70.830  1.00  0.00    -0.143 C  
HETATM    9  H   UNL     2      -9.911   3.237  70.468  1.00  0.00     0.000 HD 
HETATM   10  O   UNL     2      -9.967   4.127  70.138  1.00  0.00    -0.209 OA 
ENDBRANCH   2   8
BRANCH   2  11
HETATM   11  C   UNL     2      -8.232   6.804  69.105  1.00  0.00    -0.121 C  
HETATM   12  H   UNL     2      -7.232   5.836  67.704  1.00  0.00     0.000 HD 
HETATM   13  O   UNL     2      -7.822   5.630  68.420  1.00  0.00    -0.091 OA 
BRANCH  11  14
HETATM   14  C   UNL     2      -8.782   7.794  68.027  1.00  0.00    -0.125 C  
HETATM   15  H   UNL     2      -8.892   7.818  66.108  1.00  0.00     0.000 HD 
HETATM   16  O   UNL     2      -8.558   7.217  66.763  1.00  0.00    -0.117 OA 
BRANCH  14  17
HETATM   17  C   UNL     2      -8.149   9.206  68.032  1.00  0.00    -0.105 C  
HETATM   18  C   UNL     2      -8.975  10.183  68.850  1.00  0.00    -0.155 C  
HETATM   19  H   UNL     2      -7.671  10.547  66.716  1.00  0.00     0.000 HD 
HETATM   20  O   UNL     2      -8.060   9.680  66.713  1.00  0.00    -0.112 OA 
HETATM   21  O   UNL     2      -8.556  11.450  69.002  1.00  0.00    -0.066 OA 
HETATM   22  O   UNL     2      -9.991   9.823  69.444  1.00  0.00    -0.181 OA 
ENDBRANCH  14  17
ENDBRANCH  11  14
ENDBRANCH   2  11
BRANCH   3  23
HETATM   23  C   UNL     3     -10.623  15.181  65.638  1.00  0.00    -0.356 C  
HETATM   24  O   UNL     3     -10.050  14.489  64.553  1.00  0.00    -0.571 OA 
HETATM   25  H   UNL     3     -10.780  14.309  63.972  1.00  0.00     0.000 HD 
BRANCH  23  26
HETATM   26  C   UNL     3     -12.012  14.449  65.928  1.00  0.00    -0.359 C  
HETATM   27  O   UNL     3     -12.239  14.673  67.298  1.00  0.00    -0.548 OA 
HETATM   28  H   UNL     3     -13.065  14.237  67.471  1.00  0.00     0.000 HD 
BRANCH  26  29
HETATM   29  C   UNL     3     -12.331  12.888  65.738  1.00  0.00    -0.375 C  
HETATM   30  C   UNL     3     -11.316  11.848  66.124  1.00  0.00    -0.324 C  
HETATM   31  O   UNL     3     -12.662  12.592  64.397  1.00  0.00    -0.656 OA 
HETATM   32  O   UNL     3     -10.147  11.761  65.464  1.00  0.00    -0.232 OA 
HETATM   33  O   UNL     3     -11.614  10.982  66.932  1.00  0.00    -0.378 OA 
HETATM   34  H   UNL     3     -12.851  11.668  64.285  1.00  0.00     0.000 HD 
ENDBRANCH  26  29
ENDBRANCH  23  26
ENDBRANCH   3  23
BRANCH   3  35
HETATM   35  C   UNL     3      -8.336  14.364  66.841  1.00  0.00    -0.078 C  
HETATM   36  O   UNL     3      -7.953  14.268  68.182  1.00  0.00    -0.121 OA 
HETATM   37  H   UNL     3      -7.303  13.590  68.325  1.00  0.00     0.000 HD 
ENDBRANCH   3  35
TORSDOF 8
ENDMDL
MODEL      134
REMARK 921   NORMALIZED FREE ENERGY PREDICTED BY IDOCK:   -4.83 KCAL/MOL
REMARK 922        TOTAL FREE ENERGY PREDICTED BY IDOCK:   -8.77 KCAL/MOL
REMARK 923 INTER-LIGAND FREE ENERGY PREDICTED BY IDOCK:   -7.54 KCAL/MOL
REMARK 924 INTRA-LIGAND FREE ENERGY PREDICTED BY IDOCK:   -1.23 KCAL/MOL
REMARK 927      BINDING AFFINITY PREDICTED BY RF-SCORE:    0.00 PKD
ROOT
HETATM    1 MN   UNL     1     -12.549  12.863  68.950  1.00  0.00    -0.256 Mn 
HETATM    2  C   UNL     2      -9.756   5.680  69.764  1.00  0.00    -0.167 C  
HETATM    3  C   UNL     3     -12.953  14.856  70.550  1.00  0.00    -0.292 C  
HETATM    4  H   UNL     3     -13.644  16.663  70.712  1.00  0.00     0.000 HD 
HETATM    5  H   UNL     2     -11.430   6.521  69.373  1.00  0.00     0.000 HD 
HETATM    6  O   UNL     2     -11.111   5.627  69.344  1.00  0.00    -0.294 OA 
HETATM    7  O   UNL     3     -13.622  15.886  71.258  1.00  0.00    -0.484 OA 
ENDROOT
BRANCH   2   8
HETATM    8  C   UNL     2      -9.238   4.229  69.716  1.00  0.00    -0.137 C  
HETATM    9  H   UNL     2      -7.873   3.159  68.759  1.00  0.00     0.000 HD 
HETATM   10  O   UNL     2      -8.192   4.053  68.789  1.00  0.00    -0.074 OA 
ENDBRANCH   2   8
BRANCH   2  11
HETATM   11  C   UNL     2      -9.691   6.376  71.180  1.00  0.00    -0.175 C  
HETATM   12  H   UNL     2      -8.547   6.322  72.789  1.00  0.00     0.000 HD 
HETATM   13  O   UNL     2      -8.587   5.903  71.937  1.00  0.00    -0.135 OA 
BRANCH  11  14
HETATM   14  C   UNL     2      -9.605   7.938  71.173  1.00  0.00    -0.158 C  
HETATM   15  H   UNL     2      -9.359   9.310  72.498  1.00  0.00     0.000 HD 
HETATM   16  O   UNL     2      -9.411   8.361  72.501  1.00  0.00    -0.250 OA 
BRANCH  14  17
HETATM   17  C   UNL     2     -10.844   8.672  70.608  1.00  0.00    -0.229 C  
HETATM   18  C   UNL     2     -10.446   9.754  69.619  1.00  0.00    -0.242 C  
HETATM   19  H   UNL     2     -12.316   9.714  71.319  1.00  0.00     0.000 HD 
HETATM   20  O   UNL     2     -11.555   9.264  71.665  1.00  0.00    -0.348 OA 
HETATM   21  O   UNL     2     -11.395  10.469  68.993  1.00  0.00    -0.249 OA 
HETATM   22  O   UNL     2      -9.269   9.944  69.316  1.00  0.00    -0.174 OA 
ENDBRANCH  14  17
ENDBRANCH  11  14
ENDBRANCH   2  11
BRANCH   3  23
HETATM   23  C   UNL     3     -11.586  15.492  70.072  1.00  0.00    -0.341 C  
HETATM   24  O   UNL     3     -10.736  14.388  69.861  1.00  0.00    -0.447 OA 
HETATM   25  H   UNL     3      -9.915  14.771  69.574  1.00  0.00     0.000 HD 
BRANCH  23  26
HETATM   26  C   UNL     3     -11.285  16.501  68.872  1.00  0.00    -0.257 C  
HETATM   27  O   UNL     3     -11.266  15.682  67.730  1.00  0.00    -0.329 OA 
HETATM   28  H   UNL     3     -11.087  16.282  67.016  1.00  0.00     0.000 HD 
BRANCH  26  29
HETATM   29  C   UNL     3      -9.984  17.426  68.700  1.00  0.00    -0.340 C  
HETATM   30  C   UNL     3     -10.124  18.911  68.512  1.00  0.00    -0.402 C  
HETATM   31  O   UNL     3      -9.190  16.996  67.616  1.00  0.00    -0.230 OA 
HETATM   32  O   UNL     3     -10.707  19.405  67.405  1.00  0.00    -0.460 OA 
HETATM   33  O   UNL     3      -9.569  19.674  69.288  1.00  0.00    -0.355 OA 
HETATM   34  H   UNL     3      -8.420  17.544  67.514  1.00  0.00     0.000 HD 
ENDBRANCH  26  29
ENDBRANCH  23  26
ENDBRANCH   3  23
BRANCH   3  35
HETATM   35  C   UNL     3     -12.916  13.574  71.451  1.00  0.00    -0.339 C  
HETATM   36  O   UNL     3     -12.004  12.623  70.987  1.00  0.00    -0.380 OA 
HETATM   37  H   UNL     3     -11.982  11.845  71.533  1.00  0.00     0.000 HD 
ENDBRANCH   3  35
TORSDOF 8
ENDMDL
MODEL      135
REMARK 921   NORMALIZED FREE ENERGY PREDICTED BY IDOCK:   -4.82 KCAL/MOL
REMARK 922        TOTAL FREE ENERGY PREDICTED BY IDOCK:   -8.75 KCAL/MOL
REMARK 923 INTER-LIGAND FREE ENERGY PREDICTED BY IDOCK:   -6.04 KCAL/MOL
REMARK 924 INTRA-LIGAND FREE ENERGY PREDICTED BY IDOCK:   -2.72 KCAL/MOL
REMARK 927      BINDING AFFINITY PREDICTED BY RF-SCORE:    0.00 PKD
ROOT
HETATM    1 MN   UNL     1      -8.952   9.678  69.905  1.00  0.00    -0.120 Mn 
HETATM    2  C   UNL     2      -9.948  16.755  66.909  1.00  0.00    -0.273 C  
HETATM    3  C   UNL     3      -9.761   7.300  69.280  1.00  0.00    -0.161 C  
HETATM    4  H   UNL     3      -9.768   5.427  69.790  1.00  0.00     0.000 HD 
HETATM    5  H   UNL     2     -10.459  15.789  68.479  1.00  0.00     0.000 HD 
HETATM    6  O   UNL     2     -10.506  16.699  68.212  1.00  0.00    -0.288 OA 
HETATM    7  O   UNL     3     -10.381   6.030  69.386  1.00  0.00    -0.192 OA 
ENDROOT
BRANCH   2   8
HETATM    8  C   UNL     2     -10.025  18.232  66.475  1.00  0.00    -0.373 C  
HETATM    9  H   UNL     2     -11.312  19.737  66.514  1.00  0.00     0.000 HD 
HETATM   10  O   UNL     2     -11.264  18.826  66.781  1.00  0.00     0.048 OA 
ENDBRANCH   2   8
BRANCH   2  11
HETATM   11  C   UNL     2     -10.721  15.735  65.981  1.00  0.00    -0.306 C  
HETATM   12  H   UNL     2     -11.253  15.591  64.085  1.00  0.00     0.000 HD 
HETATM   13  O   UNL     2     -10.788  16.204  64.643  1.00  0.00    -0.650 OA 
BRANCH  11  14
HETATM   14  C   UNL     2     -10.142  14.283  65.928  1.00  0.00    -0.326 C  
HETATM   15  H   UNL     2     -10.370  12.751  64.789  1.00  0.00     0.000 HD 
HETATM   16  O   UNL     2     -10.721  13.633  64.822  1.00  0.00    -0.363 OA 
BRANCH  14  17
HETATM   17  C   UNL     2     -10.397  13.417  67.185  1.00  0.00    -0.246 C  
HETATM   18  C   UNL     2      -9.220  12.502  67.477  1.00  0.00    -0.188 C  
HETATM   19  H   UNL     2     -11.699  12.099  67.754  1.00  0.00     0.000 HD 
HETATM   20  O   UNL     2     -11.543  12.630  66.983  1.00  0.00    -0.325 OA 
HETATM   21  O   UNL     2      -9.244  11.705  68.558  1.00  0.00    -0.193 OA 
HETATM   22  O   UNL     2      -8.202  12.526  66.785  1.00  0.00    -0.116 OA 
ENDBRANCH  14  17
ENDBRANCH  11  14
ENDBRANCH   2  11
BRANCH   3  23
HETATM   23  C   UNL     3      -8.373   7.035  68.572  1.00  0.00    -0.121 C  
HETATM   24  O   UNL     3      -8.418   5.677  68.199  1.00  0.00    -0.100 OA 
HETATM   25  H   UNL     3      -7.584   5.518  67.773  1.00  0.00     0.000 HD 
BRANCH  23  26
HETATM   26  C   UNL     3      -7.681   7.793  67.349  1.00  0.00    -0.113 C  
HETATM   27  O   UNL     3      -7.804   9.155  67.675  1.00  0.00    -0.096 OA 
HETATM   28  H   UNL     3      -7.392   9.606  66.947  1.00  0.00     0.000 HD 
BRANCH  26  29
HETATM   29  C   UNL     3      -8.121   7.727  65.807  1.00  0.00    -0.125 C  
HETATM   30  C   UNL     3      -8.598   8.963  65.096  1.00  0.00    -0.182 C  
HETATM   31  O   UNL     3      -9.144   6.775  65.606  1.00  0.00    -0.357 OA 
HETATM   32  O   UNL     3      -9.742   9.564  65.470  1.00  0.00    -0.283 OA 
HETATM   33  O   UNL     3      -8.032   9.334  64.080  1.00  0.00    -0.122 OA 
HETATM   34  H   UNL     3      -9.405   6.737  64.693  1.00  0.00     0.000 HD 
ENDBRANCH  26  29
ENDBRANCH  23  26
ENDBRANCH   3  23
BRANCH   3  35
HETATM   35  C   UNL     3     -10.772   8.295  68.613  1.00  0.00    -0.027 C  
HETATM   36  O   UNL     3     -11.220   7.844  67.368  1.00  0.00    -0.435 OA 
HETATM   37  H   UNL     3     -11.833   8.447  66.964  1.00  0.00     0.000 HD 
ENDBRANCH   3  35
TORSDOF 8
ENDMDL
MODEL      136
REMARK 921   NORMALIZED FREE ENERGY PREDICTED BY IDOCK:   -4.81 KCAL/MOL
REMARK 922        TOTAL FREE ENERGY PREDICTED BY IDOCK:   -8.73 KCAL/MOL
REMARK 923 INTER-LIGAND FREE ENERGY PREDICTED BY IDOCK:   -6.97 KCAL/MOL
REMARK 924 INTRA-LIGAND FREE ENERGY PREDICTED BY IDOCK:   -1.76 KCAL/MOL
REMARK 927      BINDING AFFINITY PREDICTED BY RF-SCORE:    0.00 PKD
ROOT
HETATM    1 MN   UNL     1     -10.946  13.514  66.109  1.00  0.00    -0.274 Mn 
HETATM    2  C   UNL     2      -9.948   5.923  67.307  1.00  0.00    -0.153 C  
HETATM    3  C   UNL     3     -10.651  15.644  67.549  1.00  0.00    -0.297 C  
HETATM    4  H   UNL     3     -10.848  17.574  67.610  1.00  0.00     0.000 HD 
HETATM    5  H   UNL     2     -11.394   7.139  67.005  1.00  0.00     0.000 HD 
HETATM    6  O   UNL     2     -11.313   6.193  67.028  1.00  0.00    -0.200 OA 
HETATM    7  O   UNL     3     -10.955  16.854  68.221  1.00  0.00    -0.364 OA 
ENDROOT
BRANCH   2   8
HETATM    8  C   UNL     2      -9.816   4.388  67.343  1.00  0.00    -0.143 C  
HETATM    9  H   UNL     2      -8.887   2.943  66.357  1.00  0.00     0.000 HD 
HETATM   10  O   UNL     2      -8.969   3.889  66.334  1.00  0.00    -0.119 OA 
ENDBRANCH   2   8
BRANCH   2  11
HETATM   11  C   UNL     2      -9.545   6.669  68.640  1.00  0.00    -0.130 C  
HETATM   12  H   UNL     2      -8.144   6.542  70.025  1.00  0.00     0.000 HD 
HETATM   13  O   UNL     2      -8.387   6.094  69.223  1.00  0.00    -0.114 OA 
BRANCH  11  14
HETATM   14  C   UNL     2      -9.278   8.205  68.512  1.00  0.00    -0.136 C  
HETATM   15  H   UNL     2      -7.956   9.433  69.176  1.00  0.00     0.000 HD 
HETATM   16  O   UNL     2      -8.119   8.500  69.254  1.00  0.00    -0.109 OA 
BRANCH  14  17
HETATM   17  C   UNL     2     -10.417   9.125  69.011  1.00  0.00    -0.221 C  
HETATM   18  C   UNL     2     -10.867  10.090  67.928  1.00  0.00    -0.271 C  
HETATM   19  H   UNL     2     -10.667  10.428  70.424  1.00  0.00     0.000 HD 
HETATM   20  O   UNL     2      -9.968   9.863  70.118  1.00  0.00    -0.249 OA 
HETATM   21  O   UNL     2     -11.880  10.940  68.167  1.00  0.00    -0.564 OA 
HETATM   22  O   UNL     2     -10.373  10.064  66.801  1.00  0.00    -0.225 OA 
ENDBRANCH  14  17
ENDBRANCH  11  14
ENDBRANCH   2  11
BRANCH   3  23
HETATM   23  C   UNL     3      -9.235  15.875  66.883  1.00  0.00    -0.226 C  
HETATM   24  O   UNL     3      -9.466  15.735  65.501  1.00  0.00    -0.323 OA 
HETATM   25  H   UNL     3      -8.616  15.874  65.101  1.00  0.00     0.000 HD 
BRANCH  23  26
HETATM   26  C   UNL     3      -8.218  17.096  67.027  1.00  0.00    -0.207 C  
HETATM   27  O   UNL     3      -7.899  17.118  68.397  1.00  0.00    -0.223 OA 
HETATM   28  H   UNL     3      -7.293  17.845  68.483  1.00  0.00     0.000 HD 
BRANCH  26  29
HETATM   29  C   UNL     3      -8.511  18.636  66.679  1.00  0.00    -0.292 C  
HETATM   30  C   UNL     3      -8.509  19.677  67.763  1.00  0.00    -0.318 C  
HETATM   31  O   UNL     3      -9.758  18.786  66.033  1.00  0.00    -0.477 OA 
HETATM   32  O   UNL     3      -9.437  19.649  68.736  1.00  0.00    -0.368 OA 
HETATM   33  O   UNL     3      -7.763  20.640  67.675  1.00  0.00    -0.295 OA 
HETATM   34  H   UNL     3      -9.931  19.697  65.827  1.00  0.00     0.000 HD 
ENDBRANCH  26  29
ENDBRANCH  23  26
ENDBRANCH   3  23
BRANCH   3  35
HETATM   35  C   UNL     3     -10.827  14.456  68.557  1.00  0.00    -0.251 C  
HETATM   36  O   UNL     3      -9.987  14.571  69.667  1.00  0.00    -0.424 OA 
HETATM   37  H   UNL     3     -10.094  13.851  70.278  1.00  0.00     0.000 HD 
ENDBRANCH   3  35
TORSDOF 8
ENDMDL
MODEL      137
REMARK 921   NORMALIZED FREE ENERGY PREDICTED BY IDOCK:   -4.80 KCAL/MOL
REMARK 922        TOTAL FREE ENERGY PREDICTED BY IDOCK:   -8.73 KCAL/MOL
REMARK 923 INTER-LIGAND FREE ENERGY PREDICTED BY IDOCK:   -7.53 KCAL/MOL
REMARK 924 INTRA-LIGAND FREE ENERGY PREDICTED BY IDOCK:   -1.19 KCAL/MOL
REMARK 927      BINDING AFFINITY PREDICTED BY RF-SCORE:    0.00 PKD
ROOT
HETATM    1 MN   UNL     1     -12.066  11.645  66.227  1.00  0.00    -0.331 Mn 
HETATM    2  C   UNL     2      -9.993   4.299  64.885  1.00  0.00    -0.168 C  
HETATM    3  C   UNL     3     -11.911  13.244  68.255  1.00  0.00    -0.354 C  
HETATM    4  H   UNL     3     -12.347  15.008  68.940  1.00  0.00     0.000 HD 
HETATM    5  H   UNL     2     -11.606   5.315  65.060  1.00  0.00     0.000 HD 
HETATM    6  O   UNL     2     -11.402   4.432  64.775  1.00  0.00    -0.266 OA 
HETATM    7  O   UNL     3     -12.302  14.127  69.293  1.00  0.00    -0.311 OA 
ENDROOT
BRANCH   2   8
HETATM    8  C   UNL     2      -9.662   2.867  64.422  1.00  0.00    -0.136 C  
HETATM    9  H   UNL     2     -10.459   1.431  63.314  1.00  0.00     0.000 HD 
HETATM   10  O   UNL     2     -10.663   2.314  63.600  1.00  0.00    -0.164 OA 
ENDBRANCH   2   8
BRANCH   2  11
HETATM   11  C   UNL     2      -9.565   4.649  66.365  1.00  0.00    -0.183 C  
HETATM   12  H   UNL     2      -8.755   3.728  67.913  1.00  0.00     0.000 HD 
HETATM   13  O   UNL     2      -9.014   3.518  67.023  1.00  0.00    -0.125 OA 
BRANCH  11  14
HETATM   14  C   UNL     2      -8.536   5.816  66.523  1.00  0.00    -0.121 C  
HETATM   15  H   UNL     2      -8.641   7.720  66.772  1.00  0.00     0.000 HD 
HETATM   16  O   UNL     2      -9.266   7.010  66.677  1.00  0.00    -0.148 OA 
BRANCH  14  17
HETATM   17  C   UNL     2      -7.550   6.001  65.346  1.00  0.00    -0.086 C  
HETATM   18  C   UNL     2      -6.166   5.482  65.693  1.00  0.00    -0.034 C  
HETATM   19  H   UNL     2      -6.850   7.479  64.305  1.00  0.00     0.000 HD 
HETATM   20  O   UNL     2      -7.456   7.366  65.028  1.00  0.00    -0.074 OA 
HETATM   21  O   UNL     2      -5.186   5.521  64.775  1.00  0.00    -0.009 OA 
HETATM   22  O   UNL     2      -5.933   4.953  66.780  1.00  0.00    -0.025 OA 
ENDBRANCH  14  17
ENDBRANCH  11  14
ENDBRANCH   2  11
BRANCH   3  23
HETATM   23  C   UNL     3     -10.606  13.881  67.629  1.00  0.00    -0.245 C  
HETATM   24  O   UNL     3      -9.608  13.675  68.603  1.00  0.00    -0.333 OA 
HETATM   25  H   UNL     3      -8.825  14.059  68.226  1.00  0.00     0.000 HD 
BRANCH  23  26
HETATM   26  C   UNL     3      -9.899  13.606  66.225  1.00  0.00    -0.301 C  
HETATM   27  O   UNL     3      -8.667  14.276  66.323  1.00  0.00    -0.450 OA 
HETATM   28  H   UNL     3      -8.246  14.113  65.487  1.00  0.00     0.000 HD 
BRANCH  26  29
HETATM   29  C   UNL     3     -10.448  14.025  64.776  1.00  0.00    -0.421 C  
HETATM   30  C   UNL     3     -11.901  14.350  64.575  1.00  0.00    -0.449 C  
HETATM   31  O   UNL     3     -10.161  13.033  63.813  1.00  0.00    -0.710 OA 
HETATM   32  O   UNL     3     -12.839  13.399  64.732  1.00  0.00    -0.680 OA 
HETATM   33  O   UNL     3     -12.221  15.437  64.118  1.00  0.00    -0.598 OA 
HETATM   34  H   UNL     3     -10.486  13.282  62.955  1.00  0.00     0.000 HD 
ENDBRANCH  26  29
ENDBRANCH  23  26
ENDBRANCH   3  23
BRANCH   3  35
HETATM   35  C   UNL     3     -11.837  11.791  68.839  1.00  0.00    -0.320 C  
HETATM   36  O   UNL     3     -11.279  11.758  70.119  1.00  0.00    -0.489 OA 
HETATM   37  H   UNL     3     -11.234  10.877  70.473  1.00  0.00     0.000 HD 
ENDBRANCH   3  35
TORSDOF 8
ENDMDL
MODEL      138
REMARK 921   NORMALIZED FREE ENERGY PREDICTED BY IDOCK:   -4.79 KCAL/MOL
REMARK 922        TOTAL FREE ENERGY PREDICTED BY IDOCK:   -8.71 KCAL/MOL
REMARK 923 INTER-LIGAND FREE ENERGY PREDICTED BY IDOCK:   -7.00 KCAL/MOL
REMARK 924 INTRA-LIGAND FREE ENERGY PREDICTED BY IDOCK:   -1.71 KCAL/MOL
REMARK 927      BINDING AFFINITY PREDICTED BY RF-SCORE:    0.00 PKD
ROOT
HETATM    1 MN   UNL     1     -12.574  12.040  68.184  1.00  0.00    -0.288 Mn 
HETATM    2  C   UNL     2     -11.265   5.664  72.391  1.00  0.00    -0.280 C  
HETATM    3  C   UNL     3     -11.823  14.512  68.334  1.00  0.00    -0.316 C  
HETATM    4  H   UNL     3     -11.984  16.283  67.556  1.00  0.00     0.000 HD 
HETATM    5  H   UNL     2     -12.728   6.832  71.993  1.00  0.00     0.000 HD 
HETATM    6  O   UNL     2     -12.646   5.989  72.423  1.00  0.00    -0.126 OA 
HETATM    7  O   UNL     3     -11.889  15.924  68.431  1.00  0.00    -0.322 OA 
ENDROOT
BRANCH   2   8
HETATM    8  C   UNL     2     -11.133   4.296  73.088  1.00  0.00    -0.201 C  
HETATM    9  H   UNL     2     -10.188   2.574  72.835  1.00  0.00     0.000 HD 
HETATM   10  O   UNL     2     -10.270   3.417  72.405  1.00  0.00    -0.162 OA 
ENDBRANCH   2   8
BRANCH   2  11
HETATM   11  C   UNL     2     -10.451   6.844  73.055  1.00  0.00    -0.264 C  
HETATM   12  H   UNL     2      -9.885   7.399  74.863  1.00  0.00     0.000 HD 
HETATM   13  O   UNL     2     -10.375   6.690  74.464  1.00  0.00    -0.328 OA 
BRANCH  11  14
HETATM   14  C   UNL     2      -8.988   7.043  72.537  1.00  0.00    -0.128 C  
HETATM   15  H   UNL     2      -7.229   6.611  73.181  1.00  0.00     0.000 HD 
HETATM   16  O   UNL     2      -8.117   6.490  73.495  1.00  0.00    -0.110 OA 
BRANCH  14  17
HETATM   17  C   UNL     2      -8.562   8.510  72.288  1.00  0.00    -0.165 C  
HETATM   18  C   UNL     2      -8.412   8.800  70.805  1.00  0.00    -0.173 C  
HETATM   19  H   UNL     2      -7.072   9.651  72.770  1.00  0.00     0.000 HD 
HETATM   20  O   UNL     2      -7.333   8.751  72.923  1.00  0.00    -0.346 OA 
HETATM   21  O   UNL     2      -8.088  10.038  70.395  1.00  0.00    -0.187 OA 
HETATM   22  O   UNL     2      -8.655   7.943  69.956  1.00  0.00    -0.132 OA 
ENDBRANCH  14  17
ENDBRANCH  11  14
ENDBRANCH   2  11
BRANCH   3  23
HETATM   23  C   UNL     3     -10.698  14.215  67.264  1.00  0.00    -0.279 C  
HETATM   24  O   UNL     3     -11.388  14.129  66.038  1.00  0.00    -0.318 OA 
HETATM   25  H   UNL     3     -10.711  13.950  65.395  1.00  0.00     0.000 HD 
BRANCH  23  26
HETATM   26  C   UNL     3      -9.349  15.006  66.942  1.00  0.00    -0.241 C  
HETATM   27  O   UNL     3      -8.864  15.387  68.206  1.00  0.00    -0.169 OA 
HETATM   28  H   UNL     3      -8.062  15.858  68.015  1.00  0.00     0.000 HD 
BRANCH  26  29
HETATM   29  C   UNL     3      -9.206  16.340  66.061  1.00  0.00    -0.316 C  
HETATM   30  C   UNL     3      -8.198  17.393  66.428  1.00  0.00    -0.271 C  
HETATM   31  O   UNL     3     -10.436  17.029  65.971  1.00  0.00    -0.333 OA 
HETATM   32  O   UNL     3      -8.322  18.082  67.577  1.00  0.00    -0.229 OA 
HETATM   33  O   UNL     3      -7.356  17.734  65.613  1.00  0.00    -0.518 OA 
HETATM   34  H   UNL     3     -10.351  17.818  65.450  1.00  0.00     0.000 HD 
ENDBRANCH  26  29
ENDBRANCH  23  26
ENDBRANCH   3  23
BRANCH   3  35
HETATM   35  C   UNL     3     -11.667  13.920  69.778  1.00  0.00    -0.309 C  
HETATM   36  O   UNL     3     -10.796  14.672  70.571  1.00  0.00    -0.483 OA 
HETATM   37  H   UNL     3     -10.702  14.314  71.446  1.00  0.00     0.000 HD 
ENDBRANCH   3  35
TORSDOF 8
ENDMDL
MODEL      139
REMARK 921   NORMALIZED FREE ENERGY PREDICTED BY IDOCK:   -4.78 KCAL/MOL
REMARK 922        TOTAL FREE ENERGY PREDICTED BY IDOCK:   -8.69 KCAL/MOL
REMARK 923 INTER-LIGAND FREE ENERGY PREDICTED BY IDOCK:   -7.24 KCAL/MOL
REMARK 924 INTRA-LIGAND FREE ENERGY PREDICTED BY IDOCK:   -1.44 KCAL/MOL
REMARK 927      BINDING AFFINITY PREDICTED BY RF-SCORE:    0.00 PKD
ROOT
HETATM    1 MN   UNL     1      -8.776  10.940  69.753  1.00  0.00    -0.284 Mn 
HETATM    2  C   UNL     2     -10.256  17.766  66.395  1.00  0.00    -0.365 C  
HETATM    3  C   UNL     3      -9.644   8.523  69.435  1.00  0.00    -0.170 C  
HETATM    4  H   UNL     3      -9.561   6.695  70.083  1.00  0.00     0.000 HD 
HETATM    5  H   UNL     2     -10.528  16.925  68.092  1.00  0.00     0.000 HD 
HETATM    6  O   UNL     2     -10.622  17.812  67.764  1.00  0.00    -0.385 OA 
HETATM    7  O   UNL     3     -10.231   7.266  69.725  1.00  0.00    -0.200 OA 
ENDROOT
BRANCH   2   8
HETATM    8  C   UNL     2     -10.408  19.205  65.864  1.00  0.00    -0.391 C  
HETATM    9  H   UNL     2      -9.294  20.818  65.575  1.00  0.00     0.000 HD 
HETATM   10  O   UNL     2      -9.201  19.931  65.902  1.00  0.00    -0.343 OA 
ENDBRANCH   2   8
BRANCH   2  11
HETATM   11  C   UNL     2     -11.144  16.679  65.668  1.00  0.00     0.117 C  
HETATM   12  H   UNL     2     -11.800  16.303  63.845  1.00  0.00     0.000 HD 
HETATM   13  O   UNL     2     -11.267  16.956  64.282  1.00  0.00    -1.204 OA 
BRANCH  11  14
HETATM   14  C   UNL     2     -10.656  15.199  65.797  1.00  0.00    -0.351 C  
HETATM   15  H   UNL     2      -8.956  14.319  65.972  1.00  0.00     0.000 HD 
HETATM   16  O   UNL     2      -9.252  15.218  65.894  1.00  0.00    -0.315 OA 
BRANCH  14  17
HETATM   17  C   UNL     2     -11.048  14.263  64.629  1.00  0.00    -0.363 C  
HETATM   18  C   UNL     2     -12.335  13.514  64.924  1.00  0.00    -0.407 C  
HETATM   19  H   UNL     2     -10.259  12.756  63.698  1.00  0.00     0.000 HD 
HETATM   20  O   UNL     2     -10.019  13.331  64.415  1.00  0.00    -0.260 OA 
HETATM   21  O   UNL     2     -12.853  12.684  64.003  1.00  0.00    -0.700 OA 
HETATM   22  O   UNL     2     -12.963  13.703  65.966  1.00  0.00    -0.294 OA 
ENDBRANCH  14  17
ENDBRANCH  11  14
ENDBRANCH   2  11
BRANCH   3  23
HETATM   23  C   UNL     3      -8.369   8.201  68.557  1.00  0.00    -0.126 C  
HETATM   24  O   UNL     3      -7.368   9.058  69.057  1.00  0.00    -0.071 OA 
HETATM   25  H   UNL     3      -6.603   8.864  68.530  1.00  0.00     0.000 HD 
BRANCH  23  26
HETATM   26  C   UNL     3      -7.640   6.810  68.274  1.00  0.00    -0.107 C  
HETATM   27  O   UNL     3      -8.692   5.925  67.977  1.00  0.00    -0.112 OA 
HETATM   28  H   UNL     3      -8.259   5.097  67.809  1.00  0.00     0.000 HD 
BRANCH  26  29
HETATM   29  C   UNL     3      -6.722   5.982  69.297  1.00  0.00    -0.060 C  
HETATM   30  C   UNL     3      -7.308   5.411  70.559  1.00  0.00    -0.071 C  
HETATM   31  O   UNL     3      -5.614   6.746  69.724  1.00  0.00    -0.014 OA 
HETATM   32  O   UNL     3      -7.769   6.227  71.524  1.00  0.00    -0.097 OA 
HETATM   33  O   UNL     3      -7.223   4.213  70.777  1.00  0.00    -0.037 OA 
HETATM   34  H   UNL     3      -5.071   6.255  70.330  1.00  0.00     0.000 HD 
ENDBRANCH  26  29
ENDBRANCH  23  26
ENDBRANCH   3  23
BRANCH   3  35
HETATM   35  C   UNL     3     -10.750   9.465  68.845  1.00  0.00    -0.178 C  
HETATM   36  O   UNL     3     -11.838   9.615  69.707  1.00  0.00    -0.455 OA 
HETATM   37  H   UNL     3     -12.508  10.186  69.349  1.00  0.00     0.000 HD 
ENDBRANCH   3  35
TORSDOF 8
ENDMDL
MODEL      140
REMARK 921   NORMALIZED FREE ENERGY PREDICTED BY IDOCK:   -4.77 KCAL/MOL
REMARK 922        TOTAL FREE ENERGY PREDICTED BY IDOCK:   -8.68 KCAL/MOL
REMARK 923 INTER-LIGAND FREE ENERGY PREDICTED BY IDOCK:   -7.10 KCAL/MOL
REMARK 924 INTRA-LIGAND FREE ENERGY PREDICTED BY IDOCK:   -1.59 KCAL/MOL
REMARK 927      BINDING AFFINITY PREDICTED BY RF-SCORE:    0.00 PKD
ROOT
HETATM    1 MN   UNL     1      -8.803  15.309  69.429  1.00  0.00    -0.157 Mn 
HETATM    2  C   UNL     2     -10.065   8.326  72.544  1.00  0.00    -0.306 C  
HETATM    3  C   UNL     3      -8.623  16.226  67.016  1.00  0.00    -0.200 C  
HETATM    4  H   UNL     3      -8.278  17.791  65.921  1.00  0.00     0.000 HD 
HETATM    5  H   UNL     2      -8.634   9.590  72.414  1.00  0.00     0.000 HD 
HETATM    6  O   UNL     2      -8.778   8.794  72.912  1.00  0.00    -0.379 OA 
HETATM    7  O   UNL     3      -8.093  16.860  65.864  1.00  0.00    -0.453 OA 
ENDROOT
BRANCH   2   8
HETATM    8  C   UNL     2     -10.298   7.034  73.353  1.00  0.00    -0.334 C  
HETATM    9  H   UNL     2     -11.552   5.502  73.395  1.00  0.00     0.000 HD 
HETATM   10  O   UNL     2     -11.409   6.298  72.897  1.00  0.00    -0.235 OA 
ENDBRANCH   2   8
BRANCH   2  11
HETATM   11  C   UNL     2     -10.114   8.159  70.973  1.00  0.00    -0.187 C  
HETATM   12  H   UNL     2      -9.786   9.265  69.371  1.00  0.00     0.000 HD 
HETATM   13  O   UNL     2      -9.757   9.365  70.315  1.00  0.00    -0.212 OA 
BRANCH  11  14
HETATM   14  C   UNL     2      -9.213   7.028  70.376  1.00  0.00    -0.156 C  
HETATM   15  H   UNL     2      -7.325   6.674  70.288  1.00  0.00     0.000 HD 
HETATM   16  O   UNL     2      -7.873   7.360  70.650  1.00  0.00    -0.094 OA 
BRANCH  14  17
HETATM   17  C   UNL     2      -9.351   6.799  68.852  1.00  0.00    -0.129 C  
HETATM   18  C   UNL     2     -10.729   6.271  68.493  1.00  0.00    -0.292 C  
HETATM   19  H   UNL     2      -8.471   5.730  67.497  1.00  0.00     0.000 HD 
HETATM   20  O   UNL     2      -8.386   5.870  68.432  1.00  0.00    -0.111 OA 
HETATM   21  O   UNL     2     -11.047   6.052  67.206  1.00  0.00    -0.303 OA 
HETATM   22  O   UNL     2     -11.597   6.106  69.350  1.00  0.00    -0.372 OA 
ENDBRANCH  14  17
ENDBRANCH  11  14
ENDBRANCH   2  11
BRANCH   3  23
HETATM   23  C   UNL     3     -10.129  16.700  67.104  1.00  0.00    -0.276 C  
HETATM   24  O   UNL     3     -10.639  16.505  65.806  1.00  0.00    -0.347 OA 
HETATM   25  H   UNL     3     -11.543  16.791  65.859  1.00  0.00     0.000 HD 
BRANCH  23  26
HETATM   26  C   UNL     3     -11.294  16.245  68.096  1.00  0.00    -0.248 C  
HETATM   27  O   UNL     3     -10.748  16.435  69.378  1.00  0.00    -0.284 OA 
HETATM   28  H   UNL     3     -11.441  16.165  69.968  1.00  0.00     0.000 HD 
BRANCH  26  29
HETATM   29  C   UNL     3     -11.969  14.791  68.180  1.00  0.00    -0.230 C  
HETATM   30  C   UNL     3     -11.421  13.749  69.114  1.00  0.00    -0.298 C  
HETATM   31  O   UNL     3     -11.998  14.166  66.915  1.00  0.00    -0.413 OA 
HETATM   32  O   UNL     3     -10.190  13.242  68.922  1.00  0.00    -0.153 OA 
HETATM   33  O   UNL     3     -12.151  13.246  69.955  1.00  0.00    -0.323 OA 
HETATM   34  H   UNL     3     -12.397  13.305  66.965  1.00  0.00     0.000 HD 
ENDBRANCH  26  29
ENDBRANCH  23  26
ENDBRANCH   3  23
BRANCH   3  35
HETATM   35  C   UNL     3      -8.319  14.690  66.923  1.00  0.00    -0.126 C  
HETATM   36  O   UNL     3      -9.222  14.017  66.097  1.00  0.00    -0.480 OA 
HETATM   37  H   UNL     3      -9.037  13.087  66.040  1.00  0.00     0.000 HD 
ENDBRANCH   3  35
TORSDOF 8
ENDMDL
MODEL      141
REMARK 921   NORMALIZED FREE ENERGY PREDICTED BY IDOCK:   -4.76 KCAL/MOL
REMARK 922        TOTAL FREE ENERGY PREDICTED BY IDOCK:   -8.65 KCAL/MOL
REMARK 923 INTER-LIGAND FREE ENERGY PREDICTED BY IDOCK:   -6.41 KCAL/MOL
REMARK 924 INTRA-LIGAND FREE ENERGY PREDICTED BY IDOCK:   -2.24 KCAL/MOL
REMARK 927      BINDING AFFINITY PREDICTED BY RF-SCORE:    0.00 PKD
ROOT
HETATM    1 MN   UNL     1     -10.087  14.950  68.515  1.00  0.00    -0.195 Mn 
HETATM    2  C   UNL     2     -10.391   7.335  67.110  1.00  0.00    -0.297 C  
HETATM    3  C   UNL     3      -8.235  16.754  68.405  1.00  0.00    -0.224 C  
HETATM    4  H   UNL     3      -7.798  18.619  68.720  1.00  0.00     0.000 HD 
HETATM    5  H   UNL     2     -10.514   8.511  68.614  1.00  0.00     0.000 HD 
HETATM    6  O   UNL     2     -10.678   7.586  68.476  1.00  0.00    -0.170 OA 
HETATM    7  O   UNL     3      -7.350  17.785  68.807  1.00  0.00    -0.263 OA 
ENDROOT
BRANCH   2   8
HETATM    8  C   UNL     2     -10.657   5.833  66.886  1.00  0.00    -0.308 C  
HETATM    9  H   UNL     2     -10.820   4.169  67.948  1.00  0.00     0.000 HD 
HETATM   10  O   UNL     2     -10.655   5.094  68.086  1.00  0.00    -0.073 OA 
ENDBRANCH   2   8
BRANCH   2  11
HETATM   11  C   UNL     2      -8.916   7.814  66.805  1.00  0.00    -0.139 C  
HETATM   12  H   UNL     2      -7.433   7.315  65.601  1.00  0.00     0.000 HD 
HETATM   13  O   UNL     2      -8.319   7.027  65.785  1.00  0.00    -0.132 OA 
BRANCH  11  14
HETATM   14  C   UNL     2      -8.756   9.311  66.381  1.00  0.00    -0.132 C  
HETATM   15  H   UNL     2      -9.463  10.431  64.987  1.00  0.00     0.000 HD 
HETATM   16  O   UNL     2      -9.560   9.522  65.245  1.00  0.00    -0.283 OA 
BRANCH  14  17
HETATM   17  C   UNL     2      -7.314   9.757  66.041  1.00  0.00    -0.102 C  
HETATM   18  C   UNL     2      -7.032  11.159  66.550  1.00  0.00    -0.126 C  
HETATM   19  H   UNL     2      -6.253  10.011  64.438  1.00  0.00     0.000 HD 
HETATM   20  O   UNL     2      -7.138   9.737  64.647  1.00  0.00    -0.114 OA 
HETATM   21  O   UNL     2      -5.813  11.699  66.383  1.00  0.00    -0.179 OA 
HETATM   22  O   UNL     2      -7.874  11.793  67.185  1.00  0.00    -0.152 OA 
ENDBRANCH  14  17
ENDBRANCH  11  14
ENDBRANCH   2  11
BRANCH   3  23
HETATM   23  C   UNL     3      -8.769  17.187  66.981  1.00  0.00    -0.225 C  
HETATM   24  O   UNL     3      -7.686  16.954  66.110  1.00  0.00    -0.307 OA 
HETATM   25  H   UNL     3      -8.007  17.214  65.255  1.00  0.00     0.000 HD 
BRANCH  23  26
HETATM   26  C   UNL     3     -10.070  16.719  66.184  1.00  0.00    -0.345 C  
HETATM   27  O   UNL     3     -11.104  16.802  67.134  1.00  0.00    -0.077 OA 
HETATM   28  H   UNL     3     -11.878  16.523  66.660  1.00  0.00     0.000 HD 
BRANCH  26  29
HETATM   29  C   UNL     3     -10.306  15.292  65.486  1.00  0.00    -0.383 C  
HETATM   30  C   UNL     3     -11.617  14.573  65.644  1.00  0.00    -0.344 C  
HETATM   31  O   UNL     3      -9.328  14.358  65.889  1.00  0.00    -0.505 OA 
HETATM   32  O   UNL     3     -12.006  14.125  66.851  1.00  0.00    -0.413 OA 
HETATM   33  O   UNL     3     -12.256  14.257  64.653  1.00  0.00    -0.433 OA 
HETATM   34  H   UNL     3      -9.468  13.513  65.476  1.00  0.00     0.000 HD 
ENDBRANCH  26  29
ENDBRANCH  23  26
ENDBRANCH   3  23
BRANCH   3  35
HETATM   35  C   UNL     3      -7.496  15.379  68.549  1.00  0.00    -0.117 C  
HETATM   36  O   UNL     3      -8.089  14.553  69.507  1.00  0.00    -0.376 OA 
HETATM   37  H   UNL     3      -7.641  13.719  69.594  1.00  0.00     0.000 HD 
ENDBRANCH   3  35
TORSDOF 8
ENDMDL
MODEL      142
REMARK 921   NORMALIZED FREE ENERGY PREDICTED BY IDOCK:   -4.74 KCAL/MOL
REMARK 922        TOTAL FREE ENERGY PREDICTED BY IDOCK:   -8.64 KCAL/MOL
REMARK 923 INTER-LIGAND FREE ENERGY PREDICTED BY IDOCK:   -8.25 KCAL/MOL
REMARK 924 INTRA-LIGAND FREE ENERGY PREDICTED BY IDOCK:   -0.38 KCAL/MOL
REMARK 927      BINDING AFFINITY PREDICTED BY RF-SCORE:    0.00 PKD
ROOT
HETATM    1 MN   UNL     1     -10.014  13.571  69.301  1.00  0.00    -0.326 Mn 
HETATM    2  C   UNL     2     -10.410   6.638  72.740  1.00  0.00    -0.203 C  
HETATM    3  C   UNL     3      -8.529  14.610  67.454  1.00  0.00    -0.204 C  
HETATM    4  H   UNL     3      -8.121  16.218  66.445  1.00  0.00     0.000 HD 
HETATM    5  H   UNL     2      -9.927   8.431  73.202  1.00  0.00     0.000 HD 
HETATM    6  O   UNL     2     -10.074   7.632  73.695  1.00  0.00    -0.321 OA 
HETATM    7  O   UNL     3      -7.627  15.488  66.802  1.00  0.00    -0.179 OA 
ENDROOT
BRANCH   2   8
HETATM    8  C   UNL     2     -10.649   5.342  73.540  1.00  0.00    -0.270 C  
HETATM    9  H   UNL     2      -9.642   4.099  74.708  1.00  0.00     0.000 HD 
HETATM   10  O   UNL     2      -9.495   4.897  74.215  1.00  0.00    -0.120 OA 
ENDBRANCH   2   8
BRANCH   2  11
HETATM   11  C   UNL     2      -9.262   6.564  71.658  1.00  0.00    -0.143 C  
HETATM   12  H   UNL     2      -8.715   5.375  70.179  1.00  0.00     0.000 HD 
HETATM   13  O   UNL     2      -9.406   5.420  70.830  1.00  0.00    -0.150 OA 
BRANCH  11  14
HETATM   14  C   UNL     2      -9.133   7.801  70.710  1.00  0.00    -0.149 C  
HETATM   15  H   UNL     2      -9.109   9.710  70.933  1.00  0.00     0.000 HD 
HETATM   16  O   UNL     2      -9.188   8.959  71.508  1.00  0.00    -0.243 OA 
BRANCH  14  17
HETATM   17  C   UNL     2     -10.218   7.918  69.614  1.00  0.00    -0.207 C  
HETATM   18  C   UNL     2     -10.016   9.159  68.762  1.00  0.00    -0.176 C  
HETATM   19  H   UNL     2     -12.151   8.058  69.547  1.00  0.00     0.000 HD 
HETATM   20  O   UNL     2     -11.484   7.986  70.219  1.00  0.00    -0.205 OA 
HETATM   21  O   UNL     2     -10.841   9.404  67.730  1.00  0.00    -0.252 OA 
HETATM   22  O   UNL     2      -9.062   9.914  68.945  1.00  0.00    -0.142 OA 
ENDBRANCH  14  17
ENDBRANCH  11  14
ENDBRANCH   2  11
BRANCH   3  23
HETATM   23  C   UNL     3      -9.668  14.316  66.398  1.00  0.00    -0.299 C  
HETATM   24  O   UNL     3      -9.455  15.258  65.373  1.00  0.00    -0.348 OA 
HETATM   25  H   UNL     3     -10.139  15.080  64.739  1.00  0.00     0.000 HD 
BRANCH  23  26
HETATM   26  C   UNL     3     -10.058  12.956  65.658  1.00  0.00    -0.272 C  
HETATM   27  O   UNL     3      -9.885  13.246  64.292  1.00  0.00    -0.676 OA 
HETATM   28  H   UNL     3     -10.117  12.438  63.851  1.00  0.00     0.000 HD 
BRANCH  26  29
HETATM   29  C   UNL     3     -11.477  12.207  65.711  1.00  0.00    -0.361 C  
HETATM   30  C   UNL     3     -12.656  12.751  64.955  1.00  0.00    -0.470 C  
HETATM   31  O   UNL     3     -11.931  12.066  67.041  1.00  0.00    -0.609 OA 
HETATM   32  O   UNL     3     -13.192  13.938  65.292  1.00  0.00    -0.774 OA 
HETATM   33  O   UNL     3     -13.227  12.047  64.137  1.00  0.00    -0.712 OA 
HETATM   34  H   UNL     3     -12.771  11.622  67.072  1.00  0.00     0.000 HD 
ENDBRANCH  26  29
ENDBRANCH  23  26
ENDBRANCH   3  23
BRANCH   3  35
HETATM   35  C   UNL     3      -7.715  13.406  68.043  1.00  0.00    -0.147 C  
HETATM   36  O   UNL     3      -7.736  13.381  69.440  1.00  0.00    -0.297 OA 
HETATM   37  H   UNL     3      -7.243  12.651  69.796  1.00  0.00     0.000 HD 
ENDBRANCH   3  35
TORSDOF 8
ENDMDL
MODEL      143
REMARK 921   NORMALIZED FREE ENERGY PREDICTED BY IDOCK:   -4.73 KCAL/MOL
REMARK 922        TOTAL FREE ENERGY PREDICTED BY IDOCK:   -8.62 KCAL/MOL
REMARK 923 INTER-LIGAND FREE ENERGY PREDICTED BY IDOCK:   -7.39 KCAL/MOL
REMARK 924 INTRA-LIGAND FREE ENERGY PREDICTED BY IDOCK:   -1.23 KCAL/MOL
REMARK 927      BINDING AFFINITY PREDICTED BY RF-SCORE:    0.00 PKD
ROOT
HETATM    1 MN   UNL     1     -11.424  14.255  68.837  1.00  0.00    -0.211 Mn 
HETATM    2  C   UNL     2     -10.725   6.882  71.118  1.00  0.00    -0.225 C  
HETATM    3  C   UNL     3      -9.950  15.895  67.483  1.00  0.00    -0.238 C  
HETATM    4  H   UNL     3      -9.775  17.707  66.810  1.00  0.00     0.000 HD 
HETATM    5  H   UNL     2     -10.756   8.622  71.914  1.00  0.00     0.000 HD 
HETATM    6  O   UNL     2     -10.787   7.734  72.251  1.00  0.00    -0.243 OA 
HETATM    7  O   UNL     3      -9.187  17.042  67.150  1.00  0.00    -0.227 OA 
ENDROOT
BRANCH   2   8
HETATM    8  C   UNL     2     -10.776   5.442  71.665  1.00  0.00    -0.198 C  
HETATM    9  H   UNL     2     -11.231   4.495  73.344  1.00  0.00     0.000 HD 
HETATM   10  O   UNL     2     -11.198   5.383  73.007  1.00  0.00    -0.288 OA 
ENDBRANCH   2   8
BRANCH   2  11
HETATM   11  C   UNL     2      -9.433   7.243  70.282  1.00  0.00    -0.165 C  
HETATM   12  H   UNL     2      -8.842   8.654  69.033  1.00  0.00     0.000 HD 
HETATM   13  O   UNL     2      -9.619   8.436  69.536  1.00  0.00    -0.168 OA 
BRANCH  11  14
HETATM   14  C   UNL     2      -8.113   7.418  71.102  1.00  0.00    -0.101 C  
HETATM   15  H   UNL     2      -6.687   8.706  71.159  1.00  0.00     0.000 HD 
HETATM   16  O   UNL     2      -7.489   8.600  70.661  1.00  0.00    -0.059 OA 
BRANCH  14  17
HETATM   17  C   UNL     2      -7.094   6.260  70.981  1.00  0.00    -0.070 C  
HETATM   18  C   UNL     2      -7.072   5.405  72.236  1.00  0.00    -0.086 C  
HETATM   19  H   UNL     2      -5.185   6.079  70.696  1.00  0.00     0.000 HD 
HETATM   20  O   UNL     2      -5.810   6.790  70.771  1.00  0.00    -0.026 OA 
HETATM   21  O   UNL     2      -6.275   4.324  72.295  1.00  0.00    -0.019 OA 
HETATM   22  O   UNL     2      -7.826   5.633  73.181  1.00  0.00    -0.099 OA 
ENDBRANCH  14  17
ENDBRANCH  11  14
ENDBRANCH   2  11
BRANCH   3  23
HETATM   23  C   UNL     3     -10.805  15.569  66.193  1.00  0.00    -0.295 C  
HETATM   24  O   UNL     3     -10.224  16.350  65.175  1.00  0.00    -0.582 OA 
HETATM   25  H   UNL     3     -10.739  16.154  64.401  1.00  0.00     0.000 HD 
BRANCH  23  26
HETATM   26  C   UNL     3     -11.149  14.166  65.515  1.00  0.00    -0.310 C  
HETATM   27  O   UNL     3      -9.981  13.830  64.808  1.00  0.00    -0.617 OA 
HETATM   28  H   UNL     3     -10.185  12.995  64.403  1.00  0.00     0.000 HD 
BRANCH  26  29
HETATM   29  C   UNL     3     -12.328  13.870  64.466  1.00  0.00    -0.372 C  
HETATM   30  C   UNL     3     -12.377  12.566  63.721  1.00  0.00    -0.502 C  
HETATM   31  O   UNL     3     -12.382  14.864  63.464  1.00  0.00    -1.008 OA 
HETATM   32  O   UNL     3     -11.416  12.252  62.834  1.00  0.00    -0.098 OA 
HETATM   33  O   UNL     3     -13.370  11.860  63.802  1.00  0.00    -0.614 OA 
HETATM   34  H   UNL     3     -13.080  14.688  62.843  1.00  0.00     0.000 HD 
ENDBRANCH  26  29
ENDBRANCH  23  26
ENDBRANCH   3  23
BRANCH   3  35
HETATM   35  C   UNL     3      -8.980  14.797  68.043  1.00  0.00    -0.174 C  
HETATM   36  O   UNL     3      -9.127  14.610  69.420  1.00  0.00    -0.393 OA 
HETATM   37  H   UNL     3      -8.539  13.945  69.760  1.00  0.00     0.000 HD 
ENDBRANCH   3  35
TORSDOF 8
ENDMDL
MODEL      144
REMARK 921   NORMALIZED FREE ENERGY PREDICTED BY IDOCK:   -4.71 KCAL/MOL
REMARK 922        TOTAL FREE ENERGY PREDICTED BY IDOCK:   -8.58 KCAL/MOL
REMARK 923 INTER-LIGAND FREE ENERGY PREDICTED BY IDOCK:   -7.51 KCAL/MOL
REMARK 924 INTRA-LIGAND FREE ENERGY PREDICTED BY IDOCK:   -1.08 KCAL/MOL
REMARK 927      BINDING AFFINITY PREDICTED BY RF-SCORE:    0.00 PKD
ROOT
HETATM    1 MN   UNL     1     -12.591   8.227  71.037  1.00  0.00    -0.306 Mn 
HETATM    2  C   UNL     2     -11.956  13.110  65.053  1.00  0.00    -0.383 C  
HETATM    3  C   UNL     3     -11.287   6.139  71.835  1.00  0.00    -0.296 C  
HETATM    4  H   UNL     3     -11.194   4.720  73.156  1.00  0.00     0.000 HD 
HETATM    5  H   UNL     2     -13.167  11.762  65.668  1.00  0.00     0.000 HD 
HETATM    6  O   UNL     2     -13.195  12.421  64.985  1.00  0.00    -0.607 OA 
HETATM    7  O   UNL     3     -11.013   4.805  72.227  1.00  0.00    -0.126 OA 
ENDROOT
BRANCH   2   8
HETATM    8  C   UNL     2     -12.002  14.180  63.944  1.00  0.00    -0.243 C  
HETATM    9  H   UNL     2     -12.799  14.440  62.149  1.00  0.00     0.000 HD 
HETATM   10  O   UNL     2     -12.771  13.781  62.833  1.00  0.00    -0.558 OA 
ENDBRANCH   2   8
BRANCH   2  11
HETATM   11  C   UNL     2     -10.783  12.059  64.932  1.00  0.00    -0.301 C  
HETATM   12  H   UNL     2      -9.315  11.638  63.681  1.00  0.00     0.000 HD 
HETATM   13  O   UNL     2     -10.021  12.270  63.754  1.00  0.00    -0.359 OA 
BRANCH  11  14
HETATM   14  C   UNL     2      -9.774  12.018  66.127  1.00  0.00    -0.238 C  
HETATM   15  H   UNL     2      -8.945  10.641  67.182  1.00  0.00     0.000 HD 
HETATM   16  O   UNL     2      -9.557  10.667  66.456  1.00  0.00    -0.172 OA 
BRANCH  14  17
HETATM   17  C   UNL     2     -10.226  12.760  67.408  1.00  0.00    -0.222 C  
HETATM   18  C   UNL     2      -9.581  14.131  67.512  1.00  0.00    -0.223 C  
HETATM   19  H   UNL     2     -10.143  12.459  69.321  1.00  0.00     0.000 HD 
HETATM   20  O   UNL     2      -9.866  12.003  68.535  1.00  0.00    -0.209 OA 
HETATM   21  O   UNL     2      -9.889  14.939  68.540  1.00  0.00    -0.205 OA 
HETATM   22  O   UNL     2      -8.833  14.557  66.632  1.00  0.00    -0.243 OA 
ENDBRANCH  14  17
ENDBRANCH  11  14
ENDBRANCH   2  11
BRANCH   3  23
HETATM   23  C   UNL     3     -10.491   7.050  72.853  1.00  0.00    -0.254 C  
HETATM   24  O   UNL     3     -11.025   6.723  74.115  1.00  0.00    -0.378 OA 
HETATM   25  H   UNL     3     -10.546   7.270  74.726  1.00  0.00     0.000 HD 
BRANCH  23  26
HETATM   26  C   UNL     3      -8.918   7.206  73.080  1.00  0.00    -0.133 C  
HETATM   27  O   UNL     3      -8.809   8.226  74.042  1.00  0.00    -0.310 OA 
HETATM   28  H   UNL     3      -7.874   8.320  74.177  1.00  0.00     0.000 HD 
BRANCH  26  29
HETATM   29  C   UNL     3      -7.824   7.605  71.975  1.00  0.00    -0.096 C  
HETATM   30  C   UNL     3      -7.959   8.882  71.194  1.00  0.00    -0.144 C  
HETATM   31  O   UNL     3      -7.691   6.593  70.999  1.00  0.00    -0.094 OA 
HETATM   32  O   UNL     3      -8.985   9.051  70.340  1.00  0.00    -0.168 OA 
HETATM   33  O   UNL     3      -7.055   9.702  71.214  1.00  0.00    -0.329 OA 
HETATM   34  H   UNL     3      -7.043   6.830  70.345  1.00  0.00     0.000 HD 
ENDBRANCH  26  29
ENDBRANCH  23  26
ENDBRANCH   3  23
BRANCH   3  35
HETATM   35  C   UNL     3     -10.989   6.280  70.303  1.00  0.00    -0.337 C  
HETATM   36  O   UNL     3     -12.130   6.608  69.566  1.00  0.00    -0.573 OA 
HETATM   37  H   UNL     3     -11.949   6.693  68.637  1.00  0.00     0.000 HD 
ENDBRANCH   3  35
TORSDOF 8
ENDMDL
MODEL      145
REMARK 921   NORMALIZED FREE ENERGY PREDICTED BY IDOCK:   -4.68 KCAL/MOL
REMARK 922        TOTAL FREE ENERGY PREDICTED BY IDOCK:   -8.54 KCAL/MOL
REMARK 923 INTER-LIGAND FREE ENERGY PREDICTED BY IDOCK:   -7.06 KCAL/MOL
REMARK 924 INTRA-LIGAND FREE ENERGY PREDICTED BY IDOCK:   -1.48 KCAL/MOL
REMARK 927      BINDING AFFINITY PREDICTED BY RF-SCORE:    0.00 PKD
ROOT
HETATM    1 MN   UNL     1      -7.666   9.839  67.058  1.00  0.00    -0.089 Mn 
HETATM    2  C   UNL     2      -8.740   4.916  72.946  1.00  0.00    -0.117 C  
HETATM    3  C   UNL     3      -8.292   9.846  64.547  1.00  0.00    -0.166 C  
HETATM    4  H   UNL     3      -8.149  10.805  62.866  1.00  0.00     0.000 HD 
HETATM    5  H   UNL     2      -7.287   5.586  71.897  1.00  0.00     0.000 HD 
HETATM    6  O   UNL     2      -7.353   5.070  72.692  1.00  0.00    -0.085 OA 
HETATM    7  O   UNL     3      -8.156   9.894  63.137  1.00  0.00    -0.135 OA 
ENDROOT
BRANCH   2   8
HETATM    8  C   UNL     2      -8.848   4.079  74.236  1.00  0.00    -0.094 C  
HETATM    9  H   UNL     2      -7.975   2.515  75.081  1.00  0.00     0.000 HD 
HETATM   10  O   UNL     2      -7.909   3.030  74.286  1.00  0.00    -0.062 OA 
ENDBRANCH   2   8
BRANCH   2  11
HETATM   11  C   UNL     2      -9.423   4.283  71.670  1.00  0.00    -0.148 C  
HETATM   12  H   UNL     2     -10.648   2.792  71.250  1.00  0.00     0.000 HD 
HETATM   13  O   UNL     2     -10.237   3.173  72.017  1.00  0.00    -0.141 OA 
BRANCH  11  14
HETATM   14  C   UNL     2     -10.308   5.249  70.815  1.00  0.00    -0.239 C  
HETATM   15  H   UNL     2     -10.601   5.551  68.939  1.00  0.00     0.000 HD 
HETATM   16  O   UNL     2     -10.064   4.964  69.459  1.00  0.00    -0.221 OA 
BRANCH  14  17
HETATM   17  C   UNL     2     -10.060   6.759  71.044  1.00  0.00    -0.189 C  
HETATM   18  C   UNL     2     -11.345   7.486  71.397  1.00  0.00    -0.258 C  
HETATM   19  H   UNL     2      -9.374   8.251  70.014  1.00  0.00     0.000 HD 
HETATM   20  O   UNL     2      -9.526   7.325  69.874  1.00  0.00    -0.158 OA 
HETATM   21  O   UNL     2     -11.316   8.801  71.673  1.00  0.00    -0.274 OA 
HETATM   22  O   UNL     2     -12.412   6.884  71.513  1.00  0.00    -0.355 OA 
ENDBRANCH  14  17
ENDBRANCH  11  14
ENDBRANCH   2  11
BRANCH   3  23
HETATM   23  C   UNL     3      -9.545  10.751  64.882  1.00  0.00    -0.256 C  
HETATM   24  O   UNL     3      -9.056  11.713  65.787  1.00  0.00    -0.308 OA 
HETATM   25  H   UNL     3      -9.809  12.256  65.988  1.00  0.00     0.000 HD 
BRANCH  23  26
HETATM   26  C   UNL     3     -10.533  11.540  63.908  1.00  0.00    -0.385 C  
HETATM   27  O   UNL     3      -9.696  12.446  63.230  1.00  0.00    -0.608 OA 
HETATM   28  H   UNL     3     -10.284  12.916  62.651  1.00  0.00     0.000 HD 
BRANCH  26  29
HETATM   29  C   UNL     3     -11.794  12.435  64.340  1.00  0.00    -0.389 C  
HETATM   30  C   UNL     3     -11.778  13.924  64.135  1.00  0.00    -0.340 C  
HETATM   31  O   UNL     3     -12.102  12.260  65.706  1.00  0.00    -0.587 OA 
HETATM   32  O   UNL     3     -10.910  14.696  64.813  1.00  0.00    -0.399 OA 
HETATM   33  O   UNL     3     -12.657  14.452  63.471  1.00  0.00    -0.784 OA 
HETATM   34  H   UNL     3     -12.848  12.790  65.962  1.00  0.00     0.000 HD 
ENDBRANCH  26  29
ENDBRANCH  23  26
ENDBRANCH   3  23
BRANCH   3  35
HETATM   35  C   UNL     3      -8.303   8.344  64.996  1.00  0.00    -0.158 C  
HETATM   36  O   UNL     3      -7.731   7.498  64.042  1.00  0.00    -0.113 OA 
HETATM   37  H   UNL     3      -7.738   6.588  64.313  1.00  0.00     0.000 HD 
ENDBRANCH   3  35
TORSDOF 8
ENDMDL
MODEL      146
REMARK 921   NORMALIZED FREE ENERGY PREDICTED BY IDOCK:   -4.68 KCAL/MOL
REMARK 922        TOTAL FREE ENERGY PREDICTED BY IDOCK:   -8.54 KCAL/MOL
REMARK 923 INTER-LIGAND FREE ENERGY PREDICTED BY IDOCK:   -6.77 KCAL/MOL
REMARK 924 INTRA-LIGAND FREE ENERGY PREDICTED BY IDOCK:   -1.77 KCAL/MOL
REMARK 927      BINDING AFFINITY PREDICTED BY RF-SCORE:    0.00 PKD
ROOT
HETATM    1 MN   UNL     1      -9.376  11.626  67.455  1.00  0.00    -0.153 Mn 
HETATM    2  C   UNL     2      -8.537   6.514  73.219  1.00  0.00    -0.120 C  
HETATM    3  C   UNL     3     -10.580  11.613  65.165  1.00  0.00    -0.290 C  
HETATM    4  H   UNL     3     -10.935  12.612  63.539  1.00  0.00     0.000 HD 
HETATM    5  H   UNL     2      -7.447   7.349  71.886  1.00  0.00     0.000 HD 
HETATM    6  O   UNL     2      -7.272   6.815  72.652  1.00  0.00    -0.078 OA 
HETATM    7  O   UNL     3     -10.790  11.701  63.766  1.00  0.00    -0.359 OA 
ENDROOT
BRANCH   2   8
HETATM    8  C   UNL     2      -8.252   5.648  74.462  1.00  0.00    -0.105 C  
HETATM    9  H   UNL     2      -6.930   4.309  75.081  1.00  0.00     0.000 HD 
HETATM   10  O   UNL     2      -7.106   4.843  74.315  1.00  0.00    -0.075 OA 
ENDBRANCH   2   8
BRANCH   2  11
HETATM   11  C   UNL     2      -9.440   5.837  72.114  1.00  0.00    -0.149 C  
HETATM   12  H   UNL     2     -11.005   4.636  72.033  1.00  0.00     0.000 HD 
HETATM   13  O   UNL     2     -10.462   5.043  72.697  1.00  0.00    -0.193 OA 
BRANCH  11  14
HETATM   14  C   UNL     2     -10.136   6.810  71.106  1.00  0.00    -0.181 C  
HETATM   15  H   UNL     2     -11.320   6.621  69.603  1.00  0.00     0.000 HD 
HETATM   16  O   UNL     2     -10.897   6.030  70.215  1.00  0.00    -0.276 OA 
BRANCH  14  17
HETATM   17  C   UNL     2      -9.185   7.703  70.275  1.00  0.00    -0.157 C  
HETATM   18  C   UNL     2      -9.819   9.045  69.956  1.00  0.00    -0.184 C  
HETATM   19  H   UNL     2      -8.286   7.600  68.560  1.00  0.00     0.000 HD 
HETATM   20  O   UNL     2      -8.870   7.052  69.070  1.00  0.00    -0.134 OA 
HETATM   21  O   UNL     2      -9.122   9.970  69.275  1.00  0.00    -0.174 OA 
HETATM   22  O   UNL     2     -10.939   9.340  70.372  1.00  0.00    -0.231 OA 
ENDBRANCH  14  17
ENDBRANCH  11  14
ENDBRANCH   2  11
BRANCH   3  23
HETATM   23  C   UNL     3     -11.798  12.378  65.823  1.00  0.00    -0.406 C  
HETATM   24  O   UNL     3     -11.951  11.779  67.089  1.00  0.00    -0.617 OA 
HETATM   25  H   UNL     3     -12.682  12.238  67.483  1.00  0.00     0.000 HD 
BRANCH  23  26
HETATM   26  C   UNL     3     -12.026  13.940  66.056  1.00  0.00    -0.412 C  
HETATM   27  O   UNL     3     -11.900  14.502  64.773  1.00  0.00    -0.399 OA 
HETATM   28  H   UNL     3     -12.036  15.432  64.912  1.00  0.00     0.000 HD 
BRANCH  26  29
HETATM   29  C   UNL     3     -11.147  14.910  66.986  1.00  0.00    -0.338 C  
HETATM   30  C   UNL     3     -10.429  16.090  66.393  1.00  0.00    -0.309 C  
HETATM   31  O   UNL     3     -10.152  14.189  67.680  1.00  0.00    -0.233 OA 
HETATM   32  O   UNL     3      -9.425  15.905  65.517  1.00  0.00    -0.369 OA 
HETATM   33  O   UNL     3     -10.649  17.211  66.823  1.00  0.00    -0.286 OA 
HETATM   34  H   UNL     3      -9.631  14.764  68.230  1.00  0.00     0.000 HD 
ENDBRANCH  26  29
ENDBRANCH  23  26
ENDBRANCH   3  23
BRANCH   3  35
HETATM   35  C   UNL     3     -10.340  10.110  65.540  1.00  0.00    -0.126 C  
HETATM   36  O   UNL     3      -9.607   9.428  64.565  1.00  0.00    -0.418 OA 
HETATM   37  H   UNL     3      -9.462   8.517  64.792  1.00  0.00     0.000 HD 
ENDBRANCH   3  35
TORSDOF 8
ENDMDL
MODEL      147
REMARK 921   NORMALIZED FREE ENERGY PREDICTED BY IDOCK:   -4.68 KCAL/MOL
REMARK 922        TOTAL FREE ENERGY PREDICTED BY IDOCK:   -8.54 KCAL/MOL
REMARK 923 INTER-LIGAND FREE ENERGY PREDICTED BY IDOCK:   -7.14 KCAL/MOL
REMARK 924 INTRA-LIGAND FREE ENERGY PREDICTED BY IDOCK:   -1.40 KCAL/MOL
REMARK 927      BINDING AFFINITY PREDICTED BY RF-SCORE:    0.00 PKD
ROOT
HETATM    1 MN   UNL     1     -10.430   6.539  65.839  1.00  0.00    -0.411 Mn 
HETATM    2  C   UNL     2     -12.134  14.005  64.652  1.00  0.00    -0.440 C  
HETATM    3  C   UNL     3      -8.801   5.263  67.393  1.00  0.00    -0.105 C  
HETATM    4  H   UNL     3      -8.100   3.524  67.895  1.00  0.00     0.000 HD 
HETATM    5  H   UNL     2     -11.296  12.568  63.707  1.00  0.00     0.000 HD 
HETATM    6  O   UNL     2     -11.590  13.440  63.470  1.00  0.00    -0.333 OA 
HETATM    7  O   UNL     3      -7.755   4.406  67.817  1.00  0.00    -0.079 OA 
ENDROOT
BRANCH   2   8
HETATM    8  C   UNL     2     -12.611  15.420  64.268  1.00  0.00     0.245 C  
HETATM    9  H   UNL     2     -11.850  17.129  63.618  1.00  0.00     0.000 HD 
HETATM   10  O   UNL     2     -11.557  16.257  63.855  1.00  0.00    -0.987 OA 
ENDBRANCH   2   8
BRANCH   2  11
HETATM   11  C   UNL     2     -11.043  13.945  65.793  1.00  0.00    -0.294 C  
HETATM   12  H   UNL     2     -10.661  14.850  67.506  1.00  0.00     0.000 HD 
HETATM   13  O   UNL     2     -11.317  14.886  66.819  1.00  0.00    -0.344 OA 
BRANCH  11  14
HETATM   14  C   UNL     2     -10.852  12.555  66.486  1.00  0.00    -0.256 C  
HETATM   15  H   UNL     2     -11.606  11.663  68.013  1.00  0.00     0.000 HD 
HETATM   16  O   UNL     2     -11.722  12.506  67.591  1.00  0.00    -0.340 OA 
BRANCH  14  17
HETATM   17  C   UNL     2      -9.420  12.249  66.984  1.00  0.00    -0.204 C  
HETATM   18  C   UNL     2      -9.144  10.756  67.001  1.00  0.00    -0.144 C  
HETATM   19  H   UNL     2      -8.383  12.566  68.591  1.00  0.00     0.000 HD 
HETATM   20  O   UNL     2      -9.262  12.754  68.285  1.00  0.00    -0.204 OA 
HETATM   21  O   UNL     2      -7.933  10.303  67.366  1.00  0.00    -0.106 OA 
HETATM   22  O   UNL     2      -9.985   9.944  66.614  1.00  0.00    -0.194 OA 
ENDBRANCH  14  17
ENDBRANCH  11  14
ENDBRANCH   2  11
BRANCH   3  23
HETATM   23  C   UNL     3      -9.996   4.997  68.395  1.00  0.00    -0.136 C  
HETATM   24  O   UNL     3      -9.391   4.398  69.517  1.00  0.00    -0.124 OA 
HETATM   25  H   UNL     3     -10.109   4.238  70.119  1.00  0.00     0.000 HD 
BRANCH  23  26
HETATM   26  C   UNL     3     -11.089   6.002  68.982  1.00  0.00    -0.307 C  
HETATM   27  O   UNL     3     -11.641   6.614  67.842  1.00  0.00    -0.608 OA 
HETATM   28  H   UNL     3     -12.291   7.212  68.191  1.00  0.00     0.000 HD 
BRANCH  26  29
HETATM   29  C   UNL     3     -10.826   7.228  69.984  1.00  0.00    -0.253 C  
HETATM   30  C   UNL     3     -11.526   7.291  71.313  1.00  0.00    -0.276 C  
HETATM   31  O   UNL     3     -11.109   8.465  69.365  1.00  0.00    -0.436 OA 
HETATM   32  O   UNL     3     -12.861   7.439  71.372  1.00  0.00    -0.358 OA 
HETATM   33  O   UNL     3     -10.869   7.366  72.339  1.00  0.00    -0.231 OA 
HETATM   34  H   UNL     3     -10.953   9.190  69.958  1.00  0.00     0.000 HD 
ENDBRANCH  26  29
ENDBRANCH  23  26
ENDBRANCH   3  23
BRANCH   3  35
HETATM   35  C   UNL     3      -8.232   6.718  67.265  1.00  0.00    -0.121 C  
HETATM   36  O   UNL     3      -7.387   7.055  68.326  1.00  0.00    -0.091 OA 
HETATM   37  H   UNL     3      -7.042   7.938  68.248  1.00  0.00     0.000 HD 
ENDBRANCH   3  35
TORSDOF 8
ENDMDL
MODEL      148
REMARK 921   NORMALIZED FREE ENERGY PREDICTED BY IDOCK:   -4.67 KCAL/MOL
REMARK 922        TOTAL FREE ENERGY PREDICTED BY IDOCK:   -8.53 KCAL/MOL
REMARK 923 INTER-LIGAND FREE ENERGY PREDICTED BY IDOCK:   -7.85 KCAL/MOL
REMARK 924 INTRA-LIGAND FREE ENERGY PREDICTED BY IDOCK:   -0.67 KCAL/MOL
REMARK 927      BINDING AFFINITY PREDICTED BY RF-SCORE:    0.00 PKD
ROOT
HETATM    1 MN   UNL     1     -11.194  10.558  66.256  1.00  0.00    -0.213 Mn 
HETATM    2  C   UNL     2     -10.289  18.253  66.409  1.00  0.00    -0.400 C  
HETATM    3  C   UNL     3      -9.595   8.529  66.407  1.00  0.00    -0.245 C  
HETATM    4  H   UNL     3      -9.456   6.593  66.348  1.00  0.00     0.000 HD 
HETATM    5  H   UNL     2     -10.802  16.904  65.152  1.00  0.00     0.000 HD 
HETATM    6  O   UNL     2     -10.821  17.854  65.156  1.00  0.00    -0.672 OA 
HETATM    7  O   UNL     3      -8.925   7.328  66.062  1.00  0.00    -0.165 OA 
ENDROOT
BRANCH   2   8
HETATM    8  C   UNL     2     -10.322  19.794  66.415  1.00  0.00    -0.508 C  
HETATM    9  H   UNL     2     -10.484  21.281  67.713  1.00  0.00     0.000 HD 
HETATM   10  O   UNL     2     -10.464  20.332  67.709  1.00  0.00    -0.308 OA 
ENDBRANCH   2   8
BRANCH   2  11
HETATM   11  C   UNL     2      -8.859  17.605  66.582  1.00  0.00    -0.263 C  
HETATM   12  H   UNL     2      -7.750  16.239  65.687  1.00  0.00     0.000 HD 
HETATM   13  O   UNL     2      -8.610  16.628  65.583  1.00  0.00    -0.388 OA 
BRANCH  11  14
HETATM   14  C   UNL     2      -7.650  18.598  66.563  1.00  0.00    -0.251 C  
HETATM   15  H   UNL     2      -6.369  19.182  65.254  1.00  0.00     0.000 HD 
HETATM   16  O   UNL     2      -7.104  18.580  65.266  1.00  0.00    -0.521 OA 
BRANCH  14  17
HETATM   17  C   UNL     2      -6.516  18.288  67.569  1.00  0.00    -0.190 C  
HETATM   18  C   UNL     2      -6.810  18.879  68.937  1.00  0.00    -0.300 C  
HETATM   19  H   UNL     2      -4.615  18.639  67.709  1.00  0.00     0.000 HD 
HETATM   20  O   UNL     2      -5.311  18.829  67.092  1.00  0.00    -0.134 OA 
HETATM   21  O   UNL     2      -5.955  18.675  69.952  1.00  0.00    -0.245 OA 
HETATM   22  O   UNL     2      -7.859  19.483  69.163  1.00  0.00    -0.348 OA 
ENDBRANCH  14  17
ENDBRANCH  11  14
ENDBRANCH   2  11
BRANCH   3  23
HETATM   23  C   UNL     3      -9.945   8.391  67.942  1.00  0.00    -0.184 C  
HETATM   24  O   UNL     3     -10.821   7.290  68.010  1.00  0.00    -0.396 OA 
HETATM   25  H   UNL     3     -11.031   7.208  68.933  1.00  0.00     0.000 HD 
BRANCH  23  26
HETATM   26  C   UNL     3      -8.982   8.252  69.208  1.00  0.00    -0.147 C  
HETATM   27  O   UNL     3      -8.907   6.865  69.432  1.00  0.00    -0.135 OA 
HETATM   28  H   UNL     3      -8.335   6.782  70.185  1.00  0.00     0.000 HD 
BRANCH  26  29
HETATM   29  C   UNL     3      -9.228   8.862  70.672  1.00  0.00    -0.213 C  
HETATM   30  C   UNL     3     -10.566   9.435  71.045  1.00  0.00    -0.330 C  
HETATM   31  O   UNL     3      -8.300   9.887  70.962  1.00  0.00    -0.312 OA 
HETATM   32  O   UNL     3     -11.029  10.539  70.432  1.00  0.00    -0.287 OA 
HETATM   33  O   UNL     3     -11.165   8.992  72.013  1.00  0.00    -0.361 OA 
HETATM   34  H   UNL     3      -8.446  10.248  71.828  1.00  0.00     0.000 HD 
ENDBRANCH  26  29
ENDBRANCH  23  26
ENDBRANCH   3  23
BRANCH   3  35
HETATM   35  C   UNL     3      -8.718   9.740  65.937  1.00  0.00    -0.139 C  
HETATM   36  O   UNL     3      -9.199  10.321  64.760  1.00  0.00    -0.199 OA 
HETATM   37  H   UNL     3      -8.668  11.056  64.475  1.00  0.00     0.000 HD 
ENDBRANCH   3  35
TORSDOF 8
ENDMDL
MODEL      149
REMARK 921   NORMALIZED FREE ENERGY PREDICTED BY IDOCK:   -4.66 KCAL/MOL
REMARK 922        TOTAL FREE ENERGY PREDICTED BY IDOCK:   -8.51 KCAL/MOL
REMARK 923 INTER-LIGAND FREE ENERGY PREDICTED BY IDOCK:   -6.86 KCAL/MOL
REMARK 924 INTRA-LIGAND FREE ENERGY PREDICTED BY IDOCK:   -1.65 KCAL/MOL
REMARK 927      BINDING AFFINITY PREDICTED BY RF-SCORE:    0.00 PKD
ROOT
HETATM    1 MN   UNL     1     -10.404  11.096  70.892  1.00  0.00    -0.217 Mn 
HETATM    2  C   UNL     2      -9.565  17.546  66.679  1.00  0.00    -0.282 C  
HETATM    3  C   UNL     3     -12.142   9.181  70.972  1.00  0.00    -0.263 C  
HETATM    4  H   UNL     3     -12.682   7.547  71.869  1.00  0.00     0.000 HD 
HETATM    5  H   UNL     2      -9.951  17.070  68.491  1.00  0.00     0.000 HD 
HETATM    6  O   UNL     2      -9.740  17.882  68.046  1.00  0.00    -0.281 OA 
HETATM    7  O   UNL     3     -13.123   8.288  71.471  1.00  0.00    -0.325 OA 
ENDROOT
BRANCH   2   8
HETATM    8  C   UNL     2      -9.222  18.864  65.956  1.00  0.00    -0.028 C  
HETATM    9  H   UNL     2      -9.367  20.816  66.258  1.00  0.00     0.000 HD 
HETATM   10  O   UNL     2      -9.579  20.004  66.703  1.00  0.00    -0.375 OA 
ENDBRANCH   2   8
BRANCH   2  11
HETATM   11  C   UNL     2     -10.867  16.812  66.166  1.00  0.00    -0.006 C  
HETATM   12  H   UNL     2     -11.879  16.630  64.480  1.00  0.00     0.000 HD 
HETATM   13  O   UNL     2     -11.096  17.071  64.789  1.00  0.00    -0.850 OA 
BRANCH  11  14
HETATM   14  C   UNL     2     -10.896  15.259  66.350  1.00  0.00    -0.317 C  
HETATM   15  H   UNL     2     -12.035  14.001  67.253  1.00  0.00     0.000 HD 
HETATM   16  O   UNL     2     -12.017  14.944  67.141  1.00  0.00    -0.304 OA 
BRANCH  14  17
HETATM   17  C   UNL     2      -9.644  14.643  67.019  1.00  0.00    -0.240 C  
HETATM   18  C   UNL     2      -9.236  13.345  66.345  1.00  0.00    -0.116 C  
HETATM   19  H   UNL     2      -9.152  14.006  68.783  1.00  0.00     0.000 HD 
HETATM   20  O   UNL     2      -9.920  14.384  68.372  1.00  0.00    -0.228 OA 
HETATM   21  O   UNL     2      -8.142  12.688  66.766  1.00  0.00    -0.069 OA 
HETATM   22  O   UNL     2      -9.843  12.912  65.366  1.00  0.00    -0.224 OA 
ENDBRANCH  14  17
ENDBRANCH  11  14
ENDBRANCH   2  11
BRANCH   3  23
HETATM   23  C   UNL     3     -11.182   8.298  70.080  1.00  0.00    -0.081 C  
HETATM   24  O   UNL     3     -10.147   9.174  69.696  1.00  0.00    -0.184 OA 
HETATM   25  H   UNL     3      -9.570   8.643  69.160  1.00  0.00     0.000 HD 
BRANCH  23  26
HETATM   26  C   UNL     3     -10.468   6.907  70.404  1.00  0.00    -0.206 C  
HETATM   27  O   UNL     3     -11.522   5.977  70.431  1.00  0.00    -0.317 OA 
HETATM   28  H   UNL     3     -11.098   5.150  70.624  1.00  0.00     0.000 HD 
BRANCH  26  29
HETATM   29  C   UNL     3      -9.610   6.551  71.713  1.00  0.00    -0.152 C  
HETATM   30  C   UNL     3      -9.301   7.610  72.734  1.00  0.00    -0.182 C  
HETATM   31  O   UNL     3      -8.356   6.001  71.369  1.00  0.00    -0.124 OA 
HETATM   32  O   UNL     3      -8.513   8.652  72.416  1.00  0.00    -0.342 OA 
HETATM   33  O   UNL     3      -9.636   7.445  73.897  1.00  0.00    -0.270 OA 
HETATM   34  H   UNL     3      -7.848   5.790  72.145  1.00  0.00     0.000 HD 
ENDBRANCH  26  29
ENDBRANCH  23  26
ENDBRANCH   3  23
BRANCH   3  35
HETATM   35  C   UNL     3     -12.870  10.405  70.315  1.00  0.00    -0.105 C  
HETATM   36  O   UNL     3     -12.481  10.607  68.988  1.00  0.00    -0.777 OA 
HETATM   37  H   UNL     3     -12.922  11.348  68.590  1.00  0.00     0.000 HD 
ENDBRANCH   3  35
TORSDOF 8
ENDMDL
MODEL      150
REMARK 921   NORMALIZED FREE ENERGY PREDICTED BY IDOCK:   -4.65 KCAL/MOL
REMARK 922        TOTAL FREE ENERGY PREDICTED BY IDOCK:   -8.50 KCAL/MOL
REMARK 923 INTER-LIGAND FREE ENERGY PREDICTED BY IDOCK:   -7.46 KCAL/MOL
REMARK 924 INTRA-LIGAND FREE ENERGY PREDICTED BY IDOCK:   -1.05 KCAL/MOL
REMARK 927      BINDING AFFINITY PREDICTED BY RF-SCORE:    0.00 PKD
ROOT
HETATM    1 MN   UNL     1      -9.745  12.698  66.672  1.00  0.00    -0.204 Mn 
HETATM    2  C   UNL     2      -7.966   6.827  71.408  1.00  0.00    -0.109 C  
HETATM    3  C   UNL     3     -11.948  13.703  65.760  1.00  0.00    -0.395 C  
HETATM    4  H   UNL     3     -12.733  15.038  64.589  1.00  0.00     0.000 HD 
HETATM    5  H   UNL     2      -7.781   7.268  69.555  1.00  0.00     0.000 HD 
HETATM    6  O   UNL     2      -7.438   6.581  70.114  1.00  0.00    -0.089 OA 
HETATM    7  O   UNL     3     -12.935  14.145  64.844  1.00  0.00    -0.705 OA 
ENDROOT
BRANCH   2   8
HETATM    8  C   UNL     2      -7.408   5.713  72.315  1.00  0.00    -0.095 C  
HETATM    9  H   UNL     2      -5.883   5.406  73.542  1.00  0.00     0.000 HD 
HETATM   10  O   UNL     2      -6.227   6.093  72.983  1.00  0.00    -0.055 OA 
ENDBRANCH   2   8
BRANCH   2  11
HETATM   11  C   UNL     2      -9.541   6.894  71.309  1.00  0.00    -0.165 C  
HETATM   12  H   UNL     2     -11.096   5.872  71.969  1.00  0.00     0.000 HD 
HETATM   13  O   UNL     2     -10.149   5.831  72.028  1.00  0.00    -0.179 OA 
BRANCH  11  14
HETATM   14  C   UNL     2     -10.203   8.220  71.806  1.00  0.00    -0.230 C  
HETATM   15  H   UNL     2     -11.198   8.765  73.358  1.00  0.00     0.000 HD 
HETATM   16  O   UNL     2     -10.795   7.960  73.056  1.00  0.00    -0.383 OA 
BRANCH  14  17
HETATM   17  C   UNL     2     -11.285   8.816  70.874  1.00  0.00    -0.270 C  
HETATM   18  C   UNL     2     -10.697   9.850  69.930  1.00  0.00    -0.280 C  
HETATM   19  H   UNL     2     -12.946   9.794  71.080  1.00  0.00     0.000 HD 
HETATM   20  O   UNL     2     -12.282   9.428  71.651  1.00  0.00    -0.341 OA 
HETATM   21  O   UNL     2     -11.482  10.445  69.016  1.00  0.00    -0.244 OA 
HETATM   22  O   UNL     2      -9.493  10.106  69.929  1.00  0.00    -0.204 OA 
ENDBRANCH  14  17
ENDBRANCH  11  14
ENDBRANCH   2  11
BRANCH   3  23
HETATM   23  C   UNL     3     -11.879  14.819  66.877  1.00  0.00    -0.262 C  
HETATM   24  O   UNL     3     -12.348  14.183  68.044  1.00  0.00    -0.560 OA 
HETATM   25  H   UNL     3     -12.307  14.854  68.715  1.00  0.00     0.000 HD 
BRANCH  23  26
HETATM   26  C   UNL     3     -10.655  15.730  67.348  1.00  0.00    -0.313 C  
HETATM   27  O   UNL     3     -11.241  16.681  68.202  1.00  0.00    -0.339 OA 
HETATM   28  H   UNL     3     -10.513  17.222  68.482  1.00  0.00     0.000 HD 
BRANCH  26  29
HETATM   29  C   UNL     3      -9.692  16.604  66.407  1.00  0.00    -0.286 C  
HETATM   30  C   UNL     3     -10.233  17.783  65.647  1.00  0.00    -0.010 C  
HETATM   31  O   UNL     3      -9.062  15.800  65.432  1.00  0.00    -0.245 OA 
HETATM   32  O   UNL     3     -11.140  17.604  64.671  1.00  0.00    -0.906 OA 
HETATM   33  O   UNL     3      -9.734  18.886  65.807  1.00  0.00    -0.437 OA 
HETATM   34  H   UNL     3      -8.492  16.318  64.875  1.00  0.00     0.000 HD 
ENDBRANCH  26  29
ENDBRANCH  23  26
ENDBRANCH   3  23
BRANCH   3  35
HETATM   35  C   UNL     3     -12.282  12.231  66.182  1.00  0.00     0.081 C  
HETATM   36  O   UNL     3     -11.220  11.354  65.945  1.00  0.00    -0.230 OA 
HETATM   37  H   UNL     3     -11.423  10.462  66.201  1.00  0.00     0.000 HD 
ENDBRANCH   3  35
TORSDOF 8
ENDMDL
MODEL      151
REMARK 921   NORMALIZED FREE ENERGY PREDICTED BY IDOCK:   -4.63 KCAL/MOL
REMARK 922        TOTAL FREE ENERGY PREDICTED BY IDOCK:   -8.47 KCAL/MOL
REMARK 923 INTER-LIGAND FREE ENERGY PREDICTED BY IDOCK:   -6.49 KCAL/MOL
REMARK 924 INTRA-LIGAND FREE ENERGY PREDICTED BY IDOCK:   -1.98 KCAL/MOL
REMARK 927      BINDING AFFINITY PREDICTED BY RF-SCORE:    0.00 PKD
ROOT
HETATM    1 MN   UNL     1      -7.829   8.609  69.371  1.00  0.00    -0.079 Mn 
HETATM    2  C   UNL     2      -9.302  15.731  66.694  1.00  0.00    -0.258 C  
HETATM    3  C   UNL     3      -8.970   7.026  71.070  1.00  0.00    -0.151 C  
HETATM    4  H   UNL     3      -8.867   5.314  71.981  1.00  0.00     0.000 HD 
HETATM    5  H   UNL     2      -7.990  14.862  67.783  1.00  0.00     0.000 HD 
HETATM    6  O   UNL     2      -8.062  15.721  67.382  1.00  0.00    -0.145 OA 
HETATM    7  O   UNL     3      -9.158   6.192  72.201  1.00  0.00    -0.142 OA 
ENDROOT
BRANCH   2   8
HETATM    8  C   UNL     2      -9.418  17.124  66.044  1.00  0.00    -0.137 C  
HETATM    9  H   UNL     2      -8.279  18.703  65.679  1.00  0.00     0.000 HD 
HETATM   10  O   UNL     2      -8.208  17.845  66.080  1.00  0.00    -0.493 OA 
ENDBRANCH   2   8
BRANCH   2  11
HETATM   11  C   UNL     2     -10.451  15.362  67.713  1.00  0.00    -0.266 C  
HETATM   12  H   UNL     2     -12.175  16.114  68.314  1.00  0.00     0.000 HD 
HETATM   13  O   UNL     2     -11.484  16.336  67.701  1.00  0.00    -0.100 OA 
BRANCH  11  14
HETATM   14  C   UNL     2     -11.134  13.970  67.502  1.00  0.00    -0.298 C  
HETATM   15  H   UNL     2     -12.787  13.348  66.745  1.00  0.00     0.000 HD 
HETATM   16  O   UNL     2     -12.373  14.193  66.873  1.00  0.00    -0.419 OA 
BRANCH  14  17
HETATM   17  C   UNL     2     -11.386  13.149  68.789  1.00  0.00    -0.291 C  
HETATM   18  C   UNL     2     -11.926  11.766  68.468  1.00  0.00    -0.215 C  
HETATM   19  H   UNL     2     -12.473  13.319  70.385  1.00  0.00     0.000 HD 
HETATM   20  O   UNL     2     -12.318  13.823  69.595  1.00  0.00    -0.316 OA 
HETATM   21  O   UNL     2     -12.166  10.894  69.462  1.00  0.00    -0.336 OA 
HETATM   22  O   UNL     2     -12.081  11.391  67.306  1.00  0.00    -0.464 OA 
ENDBRANCH  14  17
ENDBRANCH  11  14
ENDBRANCH   2  11
BRANCH   3  23
HETATM   23  C   UNL     3      -9.667   6.270  69.869  1.00  0.00    -0.166 C  
HETATM   24  O   UNL     3     -11.041   6.306  70.176  1.00  0.00    -0.311 OA 
HETATM   25  H   UNL     3     -11.460   5.851  69.454  1.00  0.00     0.000 HD 
BRANCH  23  26
HETATM   26  C   UNL     3      -9.572   6.530  68.297  1.00  0.00    -0.131 C  
HETATM   27  O   UNL     3      -8.195   6.682  68.055  1.00  0.00    -0.115 OA 
HETATM   28  H   UNL     3      -8.138   6.837  67.120  1.00  0.00     0.000 HD 
BRANCH  26  29
HETATM   29  C   UNL     3     -10.238   7.743  67.483  1.00  0.00    -0.235 C  
HETATM   30  C   UNL     3      -9.378   8.732  66.747  1.00  0.00    -0.179 C  
HETATM   31  O   UNL     3     -11.062   8.529  68.318  1.00  0.00    -0.442 OA 
HETATM   32  O   UNL     3      -8.550   9.548  67.423  1.00  0.00    -0.125 OA 
HETATM   33  O   UNL     3      -9.543   8.904  65.550  1.00  0.00    -0.184 OA 
HETATM   34  H   UNL     3     -11.456   9.247  67.836  1.00  0.00     0.000 HD 
ENDBRANCH  26  29
ENDBRANCH  23  26
ENDBRANCH   3  23
BRANCH   3  35
HETATM   35  C   UNL     3      -9.450   8.473  71.433  1.00  0.00    -0.213 C  
HETATM   36  O   UNL     3     -10.109   8.524  72.664  1.00  0.00    -0.282 OA 
HETATM   37  H   UNL     3     -10.400   9.401  72.883  1.00  0.00     0.000 HD 
ENDBRANCH   3  35
TORSDOF 8
ENDMDL
MODEL      152
REMARK 921   NORMALIZED FREE ENERGY PREDICTED BY IDOCK:   -4.61 KCAL/MOL
REMARK 922        TOTAL FREE ENERGY PREDICTED BY IDOCK:   -8.45 KCAL/MOL
REMARK 923 INTER-LIGAND FREE ENERGY PREDICTED BY IDOCK:   -7.03 KCAL/MOL
REMARK 924 INTRA-LIGAND FREE ENERGY PREDICTED BY IDOCK:   -1.41 KCAL/MOL
REMARK 927      BINDING AFFINITY PREDICTED BY RF-SCORE:    0.00 PKD
ROOT
HETATM    1 MN   UNL     1      -8.132  11.422  66.604  1.00  0.00    -0.121 Mn 
HETATM    2  C   UNL     2     -12.913  14.719  71.734  1.00  0.00    -0.332 C  
HETATM    3  C   UNL     3      -7.340   9.002  66.140  1.00  0.00    -0.091 C  
HETATM    4  H   UNL     3      -6.185   7.876  65.060  1.00  0.00     0.000 HD 
HETATM    5  H   UNL     2     -11.039  14.692  71.347  1.00  0.00     0.000 HD 
HETATM    6  O   UNL     2     -11.594  15.211  71.918  1.00  0.00    -0.392 OA 
HETATM    7  O   UNL     3      -6.481   7.889  65.963  1.00  0.00    -0.045 OA 
ENDROOT
BRANCH   2   8
HETATM    8  C   UNL     2     -13.814  15.561  72.660  1.00  0.00    -0.564 C  
HETATM    9  H   UNL     2     -13.668  16.627  74.323  1.00  0.00     0.000 HD 
HETATM   10  O   UNL     2     -13.113  16.109  73.752  1.00  0.00    -0.640 OA 
ENDBRANCH   2   8
BRANCH   2  11
HETATM   11  C   UNL     2     -12.919  13.165  72.014  1.00  0.00    -0.298 C  
HETATM   12  H   UNL     2     -14.238  11.754  72.423  1.00  0.00     0.000 HD 
HETATM   13  O   UNL     2     -14.234  12.689  72.255  1.00  0.00    -0.146 OA 
BRANCH  11  14
HETATM   14  C   UNL     2     -12.305  12.264  70.892  1.00  0.00    -0.267 C  
HETATM   15  H   UNL     2     -11.752  12.521  69.069  1.00  0.00     0.000 HD 
HETATM   16  O   UNL     2     -12.124  13.067  69.750  1.00  0.00    -0.305 OA 
BRANCH  14  17
HETATM   17  C   UNL     2     -13.151  11.034  70.487  1.00  0.00     0.041 C  
HETATM   18  C   UNL     2     -12.959   9.883  71.459  1.00  0.00    -0.422 C  
HETATM   19  H   UNL     2     -13.290   9.855  68.954  1.00  0.00     0.000 HD 
HETATM   20  O   UNL     2     -12.771  10.610  69.203  1.00  0.00    -0.160 OA 
HETATM   21  O   UNL     2     -13.648   8.742  71.290  1.00  0.00    -0.276 OA 
HETATM   22  O   UNL     2     -12.237   9.994  72.450  1.00  0.00     0.116 OA 
ENDBRANCH  14  17
ENDBRANCH  11  14
ENDBRANCH   2  11
BRANCH   3  23
HETATM   23  C   UNL     3      -8.416   8.892  64.986  1.00  0.00    -0.176 C  
HETATM   24  O   UNL     3      -9.423   8.063  65.519  1.00  0.00    -0.410 OA 
HETATM   25  H   UNL     3     -10.069   7.997  64.825  1.00  0.00     0.000 HD 
BRANCH  23  26
HETATM   26  C   UNL     3      -9.183  10.038  64.182  1.00  0.00    -0.271 C  
HETATM   27  O   UNL     3      -8.243  11.080  64.087  1.00  0.00    -0.363 OA 
HETATM   28  H   UNL     3      -8.699  11.762  63.609  1.00  0.00     0.000 HD 
BRANCH  26  29
HETATM   29  C   UNL     3     -10.534  10.782  64.627  1.00  0.00    -0.276 C  
HETATM   30  C   UNL     3     -10.877  12.136  64.072  1.00  0.00    -0.383 C  
HETATM   31  O   UNL     3     -10.595  10.938  66.029  1.00  0.00    -0.246 OA 
HETATM   32  O   UNL     3     -10.112  13.204  64.361  1.00  0.00    -0.334 OA 
HETATM   33  O   UNL     3     -11.937  12.300  63.488  1.00  0.00    -0.477 OA 
HETATM   34  H   UNL     3     -11.395  11.379  66.292  1.00  0.00     0.000 HD 
ENDBRANCH  26  29
ENDBRANCH  23  26
ENDBRANCH   3  23
BRANCH   3  35
HETATM   35  C   UNL     3      -7.829   9.023  67.629  1.00  0.00    -0.101 C  
HETATM   36  O   UNL     3      -7.380   7.915  68.353  1.00  0.00    -0.096 OA 
HETATM   37  H   UNL     3      -7.676   7.928  69.256  1.00  0.00     0.000 HD 
ENDBRANCH   3  35
TORSDOF 8
ENDMDL
MODEL      153
REMARK 921   NORMALIZED FREE ENERGY PREDICTED BY IDOCK:   -4.60 KCAL/MOL
REMARK 922        TOTAL FREE ENERGY PREDICTED BY IDOCK:   -8.42 KCAL/MOL
REMARK 923 INTER-LIGAND FREE ENERGY PREDICTED BY IDOCK:   -7.18 KCAL/MOL
REMARK 924 INTRA-LIGAND FREE ENERGY PREDICTED BY IDOCK:   -1.24 KCAL/MOL
REMARK 927      BINDING AFFINITY PREDICTED BY RF-SCORE:    0.00 PKD
ROOT
HETATM    1 MN   UNL     1      -8.459  16.906  65.122  1.00  0.00     0.024 Mn 
HETATM    2  C   UNL     2      -8.930   9.213  65.929  1.00  0.00    -0.189 C  
HETATM    3  C   UNL     3      -9.969  18.905  65.769  1.00  0.00     0.043 C  
HETATM    4  H   UNL     3     -10.198  20.831  65.683  1.00  0.00     0.000 HD 
HETATM    5  H   UNL     2      -8.975  10.502  64.516  1.00  0.00     0.000 HD 
HETATM    6  O   UNL     2      -8.917   9.554  64.552  1.00  0.00    -0.214 OA 
HETATM    7  O   UNL     3     -10.766  20.071  65.647  1.00  0.00    -0.439 OA 
ENDROOT
BRANCH   2   8
HETATM    8  C   UNL     2      -8.836   7.676  65.989  1.00  0.00    -0.155 C  
HETATM    9  H   UNL     2      -7.929   6.273  67.054  1.00  0.00     0.000 HD 
HETATM   10  O   UNL     2      -7.988   7.221  67.017  1.00  0.00    -0.106 OA 
ENDBRANCH   2   8
BRANCH   2  11
HETATM   11  C   UNL     2     -10.220   9.839  66.594  1.00  0.00    -0.226 C  
HETATM   12  H   UNL     2     -11.247   9.642  68.269  1.00  0.00     0.000 HD 
HETATM   13  O   UNL     2     -10.472   9.266  67.869  1.00  0.00    -0.219 OA 
BRANCH  11  14
HETATM   14  C   UNL     2     -10.208  11.391  66.785  1.00  0.00    -0.223 C  
HETATM   15  H   UNL     2      -9.715  12.602  68.194  1.00  0.00     0.000 HD 
HETATM   16  O   UNL     2      -9.722  11.660  68.078  1.00  0.00    -0.171 OA 
BRANCH  14  17
HETATM   17  C   UNL     2     -11.579  12.092  66.629  1.00  0.00    -0.350 C  
HETATM   18  C   UNL     2     -11.827  12.514  65.191  1.00  0.00    -0.405 C  
HETATM   19  H   UNL     2     -12.454  13.663  67.353  1.00  0.00     0.000 HD 
HETATM   20  O   UNL     2     -11.613  13.232  67.448  1.00  0.00    -0.312 OA 
HETATM   21  O   UNL     2     -12.988  13.103  64.857  1.00  0.00    -0.734 OA 
HETATM   22  O   UNL     2     -11.016  12.263  64.300  1.00  0.00    -0.298 OA 
ENDBRANCH  14  17
ENDBRANCH  11  14
ENDBRANCH   2  11
BRANCH   3  23
HETATM   23  C   UNL     3      -9.081  19.134  67.057  1.00  0.00    -0.294 C  
HETATM   24  O   UNL     3      -9.010  20.534  67.195  1.00  0.00    -0.444 OA 
HETATM   25  H   UNL     3      -8.477  20.671  67.969  1.00  0.00     0.000 HD 
BRANCH  23  26
HETATM   26  C   UNL     3      -9.252  18.565  68.539  1.00  0.00    -0.335 C  
HETATM   27  O   UNL     3      -8.402  19.370  69.317  1.00  0.00    -0.242 OA 
HETATM   28  H   UNL     3      -8.503  19.032  70.199  1.00  0.00     0.000 HD 
BRANCH  26  29
HETATM   29  C   UNL     3      -8.928  17.074  69.037  1.00  0.00    -0.139 C  
HETATM   30  C   UNL     3      -7.847  16.266  68.374  1.00  0.00    -0.168 C  
HETATM   31  O   UNL     3     -10.077  16.255  68.985  1.00  0.00    -0.232 OA 
HETATM   32  O   UNL     3      -7.973  15.884  67.091  1.00  0.00    -0.169 OA 
HETATM   33  O   UNL     3      -6.927  15.823  69.044  1.00  0.00    -0.129 OA 
HETATM   34  H   UNL     3      -9.884  15.373  69.280  1.00  0.00     0.000 HD 
ENDBRANCH  26  29
ENDBRANCH  23  26
ENDBRANCH   3  23
BRANCH   3  35
HETATM   35  C   UNL     3     -10.907  17.651  65.711  1.00  0.00     0.026 C  
HETATM   36  O   UNL     3     -11.218  17.278  64.401  1.00  0.00    -1.082 OA 
HETATM   37  H   UNL     3     -11.787  16.518  64.366  1.00  0.00     0.000 HD 
ENDBRANCH   3  35
TORSDOF 8
ENDMDL
MODEL      154
REMARK 921   NORMALIZED FREE ENERGY PREDICTED BY IDOCK:   -4.58 KCAL/MOL
REMARK 922        TOTAL FREE ENERGY PREDICTED BY IDOCK:   -8.39 KCAL/MOL
REMARK 923 INTER-LIGAND FREE ENERGY PREDICTED BY IDOCK:   -7.09 KCAL/MOL
REMARK 924 INTRA-LIGAND FREE ENERGY PREDICTED BY IDOCK:   -1.31 KCAL/MOL
REMARK 927      BINDING AFFINITY PREDICTED BY RF-SCORE:    0.00 PKD
ROOT
HETATM    1 MN   UNL     1     -10.186  14.060  69.256  1.00  0.00    -0.213 Mn 
HETATM    2  C   UNL     2     -11.396   6.925  72.026  1.00  0.00    -0.265 C  
HETATM    3  C   UNL     3      -8.725  15.063  67.370  1.00  0.00    -0.194 C  
HETATM    4  H   UNL     3      -8.153  16.693  66.484  1.00  0.00     0.000 HD 
HETATM    5  H   UNL     2     -10.586   8.559  72.606  1.00  0.00     0.000 HD 
HETATM    6  O   UNL     2     -10.816   7.741  73.031  1.00  0.00    -0.373 OA 
HETATM    7  O   UNL     3      -7.755  15.861  66.713  1.00  0.00    -0.231 OA 
ENDROOT
BRANCH   2   8
HETATM    8  C   UNL     2     -11.769   5.598  72.717  1.00  0.00    -0.173 C  
HETATM    9  H   UNL     2     -11.264   4.555  74.323  1.00  0.00     0.000 HD 
HETATM   10  O   UNL     2     -11.034   5.372  73.897  1.00  0.00    -0.253 OA 
ENDBRANCH   2   8
BRANCH   2  11
HETATM   11  C   UNL     2     -10.377   6.799  70.825  1.00  0.00    -0.204 C  
HETATM   12  H   UNL     2      -8.750   7.713  70.180  1.00  0.00     0.000 HD 
HETATM   13  O   UNL     2      -9.363   7.789  70.903  1.00  0.00    -0.152 OA 
BRANCH  11  14
HETATM   14  C   UNL     2      -9.658   5.418  70.677  1.00  0.00    -0.172 C  
HETATM   15  H   UNL     2      -7.916   4.721  71.096  1.00  0.00     0.000 HD 
HETATM   16  O   UNL     2      -8.353   5.559  71.185  1.00  0.00    -0.121 OA 
BRANCH  14  17
HETATM   17  C   UNL     2      -9.558   4.868  69.235  1.00  0.00    -0.171 C  
HETATM   18  C   UNL     2      -9.498   3.351  69.221  1.00  0.00    -0.142 C  
HETATM   19  H   UNL     2      -8.336   5.036  67.739  1.00  0.00     0.000 HD 
HETATM   20  O   UNL     2      -8.398   5.373  68.625  1.00  0.00    -0.094 OA 
HETATM   21  O   UNL     2      -9.452   2.694  68.050  1.00  0.00    -0.211 OA 
HETATM   22  O   UNL     2      -9.568   2.697  70.261  1.00  0.00    -0.130 OA 
ENDBRANCH  14  17
ENDBRANCH  11  14
ENDBRANCH   2  11
BRANCH   3  23
HETATM   23  C   UNL     3      -9.988  15.067  66.419  1.00  0.00    -0.279 C  
HETATM   24  O   UNL     3      -9.635  14.213  65.356  1.00  0.00    -0.549 OA 
HETATM   25  H   UNL     3     -10.394  14.217  64.785  1.00  0.00     0.000 HD 
BRANCH  23  26
HETATM   26  C   UNL     3     -11.518  14.743  66.740  1.00  0.00    -0.338 C  
HETATM   27  O   UNL     3     -11.647  15.017  68.114  1.00  0.00    -0.326 OA 
HETATM   28  H   UNL     3     -12.557  14.824  68.305  1.00  0.00     0.000 HD 
BRANCH  26  29
HETATM   29  C   UNL     3     -12.257  13.329  66.562  1.00  0.00    -0.327 C  
HETATM   30  C   UNL     3     -11.577  12.055  66.979  1.00  0.00    -0.317 C  
HETATM   31  O   UNL     3     -12.637  13.116  65.219  1.00  0.00    -0.481 OA 
HETATM   32  O   UNL     3     -10.469  11.635  66.342  1.00  0.00    -0.229 OA 
HETATM   33  O   UNL     3     -12.115  11.319  67.791  1.00  0.00    -0.631 OA 
HETATM   34  H   UNL     3     -13.074  12.278  65.114  1.00  0.00     0.000 HD 
ENDBRANCH  26  29
ENDBRANCH  23  26
ENDBRANCH   3  23
BRANCH   3  35
HETATM   35  C   UNL     3      -8.068  13.690  67.748  1.00  0.00    -0.173 C  
HETATM   36  O   UNL     3      -8.041  13.474  69.128  1.00  0.00    -0.334 OA 
HETATM   37  H   UNL     3      -7.644  12.642  69.357  1.00  0.00     0.000 HD 
ENDBRANCH   3  35
TORSDOF 8
ENDMDL
MODEL      155
REMARK 921   NORMALIZED FREE ENERGY PREDICTED BY IDOCK:   -4.57 KCAL/MOL
REMARK 922        TOTAL FREE ENERGY PREDICTED BY IDOCK:   -8.39 KCAL/MOL
REMARK 923 INTER-LIGAND FREE ENERGY PREDICTED BY IDOCK:   -7.06 KCAL/MOL
REMARK 924 INTRA-LIGAND FREE ENERGY PREDICTED BY IDOCK:   -1.32 KCAL/MOL
REMARK 927      BINDING AFFINITY PREDICTED BY RF-SCORE:    0.00 PKD
ROOT
HETATM    1 MN   UNL     1      -9.159  13.689  69.452  1.00  0.00    -0.361 Mn 
HETATM    2  C   UNL     2      -7.880   6.356  71.607  1.00  0.00    -0.101 C  
HETATM    3  C   UNL     3      -9.444  14.902  67.184  1.00  0.00    -0.225 C  
HETATM    4  H   UNL     3      -9.698  16.615  66.307  1.00  0.00     0.000 HD 
HETATM    5  H   UNL     2      -6.948   8.027  71.622  1.00  0.00     0.000 HD 
HETATM    6  O   UNL     2      -6.793   7.174  72.009  1.00  0.00    -0.056 OA 
HETATM    7  O   UNL     3      -9.226  15.812  66.120  1.00  0.00    -0.302 OA 
ENDROOT
BRANCH   2   8
HETATM    8  C   UNL     2      -7.627   4.972  72.237  1.00  0.00    -0.094 C  
HETATM    9  H   UNL     2      -6.148   3.960  73.081  1.00  0.00     0.000 HD 
HETATM   10  O   UNL     2      -6.304   4.813  72.693  1.00  0.00    -0.034 OA 
ENDBRANCH   2   8
BRANCH   2  11
HETATM   11  C   UNL     2      -7.974   6.376  70.030  1.00  0.00    -0.112 C  
HETATM   12  H   UNL     2      -7.115   5.472  68.499  1.00  0.00     0.000 HD 
HETATM   13  O   UNL     2      -7.059   5.461  69.448  1.00  0.00    -0.060 OA 
BRANCH  11  14
HETATM   14  C   UNL     2      -9.381   6.064  69.424  1.00  0.00    -0.131 C  
HETATM   15  H   UNL     2     -11.069   5.445  70.106  1.00  0.00     0.000 HD 
HETATM   16  O   UNL     2     -10.214   5.635  70.474  1.00  0.00    -0.200 OA 
BRANCH  14  17
HETATM   17  C   UNL     2      -9.406   4.984  68.316  1.00  0.00    -0.126 C  
HETATM   18  C   UNL     2     -10.403   5.331  67.224  1.00  0.00    -0.199 C  
HETATM   19  H   UNL     2      -9.779   3.086  68.200  1.00  0.00     0.000 HD 
HETATM   20  O   UNL     2      -9.763   3.748  68.879  1.00  0.00    -0.151 OA 
HETATM   21  O   UNL     2     -10.532   4.528  66.155  1.00  0.00    -0.272 OA 
HETATM   22  O   UNL     2     -11.050   6.378  67.255  1.00  0.00    -0.368 OA 
ENDBRANCH  14  17
ENDBRANCH  11  14
ENDBRANCH   2  11
BRANCH   3  23
HETATM   23  C   UNL     3     -11.013  14.837  67.369  1.00  0.00    -0.313 C  
HETATM   24  O   UNL     3     -11.378  16.140  67.761  1.00  0.00    -0.257 OA 
HETATM   25  H   UNL     3     -12.321  16.101  67.872  1.00  0.00     0.000 HD 
BRANCH  23  26
HETATM   26  C   UNL     3     -12.150  14.361  66.354  1.00  0.00    -0.369 C  
HETATM   27  O   UNL     3     -12.315  12.994  66.640  1.00  0.00    -0.381 OA 
HETATM   28  H   UNL     3     -12.991  12.710  66.036  1.00  0.00     0.000 HD 
BRANCH  26  29
HETATM   29  C   UNL     3     -12.087  14.411  64.751  1.00  0.00    -0.452 C  
HETATM   30  C   UNL     3     -11.755  13.175  63.961  1.00  0.00    -0.439 C  
HETATM   31  O   UNL     3     -11.167  15.385  64.305  1.00  0.00    -0.694 OA 
HETATM   32  O   UNL     3     -10.538  12.611  64.061  1.00  0.00    -0.380 OA 
HETATM   33  O   UNL     3     -12.534  12.773  63.111  1.00  0.00    -0.612 OA 
HETATM   34  H   UNL     3     -11.130  15.414  63.356  1.00  0.00     0.000 HD 
ENDBRANCH  26  29
ENDBRANCH  23  26
ENDBRANCH   3  23
BRANCH   3  35
HETATM   35  C   UNL     3      -8.665  13.577  66.876  1.00  0.00    -0.145 C  
HETATM   36  O   UNL     3      -9.520  12.496  66.647  1.00  0.00    -0.230 OA 
HETATM   37  H   UNL     3      -9.048  11.693  66.459  1.00  0.00     0.000 HD 
ENDBRANCH   3  35
TORSDOF 8
ENDMDL
MODEL      156
REMARK 921   NORMALIZED FREE ENERGY PREDICTED BY IDOCK:   -4.57 KCAL/MOL
REMARK 922        TOTAL FREE ENERGY PREDICTED BY IDOCK:   -8.38 KCAL/MOL
REMARK 923 INTER-LIGAND FREE ENERGY PREDICTED BY IDOCK:   -6.61 KCAL/MOL
REMARK 924 INTRA-LIGAND FREE ENERGY PREDICTED BY IDOCK:   -1.77 KCAL/MOL
REMARK 927      BINDING AFFINITY PREDICTED BY RF-SCORE:    0.00 PKD
ROOT
HETATM    1 MN   UNL     1     -10.700  11.111  65.083  1.00  0.00    -0.249 Mn 
HETATM    2  C   UNL     2      -8.425   4.577  68.574  1.00  0.00    -0.089 C  
HETATM    3  C   UNL     3     -11.560  13.412  65.897  1.00  0.00    -0.342 C  
HETATM    4  H   UNL     3     -12.238  15.149  65.358  1.00  0.00     0.000 HD 
HETATM    5  H   UNL     2      -9.874   5.175  67.476  1.00  0.00     0.000 HD 
HETATM    6  O   UNL     2      -9.576   4.327  67.783  1.00  0.00    -0.164 OA 
HETATM    7  O   UNL     3     -12.403  14.538  66.067  1.00  0.00    -0.332 OA 
ENDROOT
BRANCH   2   8
HETATM    8  C   UNL     2      -7.942   3.200  69.071  1.00  0.00    -0.052 C  
HETATM    9  H   UNL     2      -6.830   2.441  70.524  1.00  0.00     0.000 HD 
HETATM   10  O   UNL     2      -7.128   3.289  70.217  1.00  0.00    -0.037 OA 
ENDBRANCH   2   8
BRANCH   2  11
HETATM   11  C   UNL     2      -8.803   5.611  69.706  1.00  0.00    -0.124 C  
HETATM   12  H   UNL     2      -9.314   7.514  69.843  1.00  0.00     0.000 HD 
HETATM   13  O   UNL     2      -9.087   6.891  69.162  1.00  0.00    -0.137 OA 
BRANCH  11  14
HETATM   14  C   UNL     2     -10.015   5.221  70.615  1.00  0.00    -0.218 C  
HETATM   15  H   UNL     2     -11.696   6.025  71.088  1.00  0.00     0.000 HD 
HETATM   16  O   UNL     2     -10.960   6.262  70.536  1.00  0.00    -0.266 OA 
BRANCH  14  17
HETATM   17  C   UNL     2      -9.682   4.983  72.106  1.00  0.00    -0.161 C  
HETATM   18  C   UNL     2      -9.828   3.519  72.482  1.00  0.00    -0.155 C  
HETATM   19  H   UNL     2     -10.348   5.598  73.820  1.00  0.00     0.000 HD 
HETATM   20  O   UNL     2     -10.552   5.744  72.904  1.00  0.00    -0.205 OA 
HETATM   21  O   UNL     2      -9.538   3.116  73.730  1.00  0.00    -0.091 OA 
HETATM   22  O   UNL     2     -10.135   2.670  71.645  1.00  0.00    -0.140 OA 
ENDBRANCH  14  17
ENDBRANCH  11  14
ENDBRANCH   2  11
BRANCH   3  23
HETATM   23  C   UNL     3     -10.102  13.998  65.719  1.00  0.00    -0.327 C  
HETATM   24  O   UNL     3      -9.964  14.189  64.331  1.00  0.00    -0.674 OA 
HETATM   25  H   UNL     3      -9.088  14.541  64.224  1.00  0.00     0.000 HD 
BRANCH  23  26
HETATM   26  C   UNL     3      -9.415  15.269  66.398  1.00  0.00    -0.298 C  
HETATM   27  O   UNL     3      -9.837  15.213  67.739  1.00  0.00    -0.221 OA 
HETATM   28  H   UNL     3      -9.429  15.970  68.143  1.00  0.00     0.000 HD 
BRANCH  26  29
HETATM   29  C   UNL     3      -9.632  16.807  65.993  1.00  0.00    -0.234 C  
HETATM   30  C   UNL     3      -9.870  17.848  67.051  1.00  0.00    -0.314 C  
HETATM   31  O   UNL     3     -10.707  16.953  65.091  1.00  0.00    -0.663 OA 
HETATM   32  O   UNL     3     -10.989  17.815  67.798  1.00  0.00    -0.308 OA 
HETATM   33  O   UNL     3      -9.127  18.814  67.128  1.00  0.00    -0.276 OA 
HETATM   34  H   UNL     3     -10.835  17.863  64.852  1.00  0.00     0.000 HD 
ENDBRANCH  26  29
ENDBRANCH  23  26
ENDBRANCH   3  23
BRANCH   3  35
HETATM   35  C   UNL     3     -11.832  12.405  67.068  1.00  0.00    -0.297 C  
HETATM   36  O   UNL     3     -11.263  12.823  68.273  1.00  0.00    -0.237 OA 
HETATM   37  H   UNL     3     -11.427  12.213  68.983  1.00  0.00     0.000 HD 
ENDBRANCH   3  35
TORSDOF 8
ENDMDL
MODEL      157
REMARK 921   NORMALIZED FREE ENERGY PREDICTED BY IDOCK:   -4.57 KCAL/MOL
REMARK 922        TOTAL FREE ENERGY PREDICTED BY IDOCK:   -8.38 KCAL/MOL
REMARK 923 INTER-LIGAND FREE ENERGY PREDICTED BY IDOCK:   -6.95 KCAL/MOL
REMARK 924 INTRA-LIGAND FREE ENERGY PREDICTED BY IDOCK:   -1.43 KCAL/MOL
REMARK 927      BINDING AFFINITY PREDICTED BY RF-SCORE:    0.00 PKD
ROOT
HETATM    1 MN   UNL     1     -11.438  10.626  72.021  1.00  0.00    -0.149 Mn 
HETATM    2  C   UNL     2     -10.036  16.457  67.114  1.00  0.00    -0.260 C  
HETATM    3  C   UNL     3     -12.814   8.437  71.910  1.00  0.00    -0.353 C  
HETATM    4  H   UNL     3     -13.411   6.871  72.889  1.00  0.00     0.000 HD 
HETATM    5  H   UNL     2     -10.974  16.174  68.758  1.00  0.00     0.000 HD 
HETATM    6  O   UNL     2     -10.730  16.941  68.253  1.00  0.00    -0.351 OA 
HETATM    7  O   UNL     3     -13.777   7.448  72.229  1.00  0.00    -0.034 OA 
ENDROOT
BRANCH   2   8
HETATM    8  C   UNL     2      -9.640  17.702  66.296  1.00  0.00    -0.244 C  
HETATM    9  H   UNL     2      -8.071  18.411  65.316  1.00  0.00     0.000 HD 
HETATM   10  O   UNL     2      -8.315  17.644  65.821  1.00  0.00    -0.537 OA 
ENDBRANCH   2   8
BRANCH   2  11
HETATM   11  C   UNL     2     -10.957  15.417  66.362  1.00  0.00    -0.277 C  
HETATM   12  H   UNL     2     -11.822  15.234  64.597  1.00  0.00     0.000 HD 
HETATM   13  O   UNL     2     -11.269  15.859  65.049  1.00  0.00    -0.355 OA 
BRANCH  11  14
HETATM   14  C   UNL     2     -10.388  13.966  66.233  1.00  0.00    -0.293 C  
HETATM   15  H   UNL     2      -9.692  12.882  64.806  1.00  0.00     0.000 HD 
HETATM   16  O   UNL     2     -10.037  13.763  64.885  1.00  0.00    -0.356 OA 
BRANCH  14  17
HETATM   17  C   UNL     2     -11.352  12.832  66.656  1.00  0.00    -0.316 C  
HETATM   18  C   UNL     2     -10.596  11.558  66.992  1.00  0.00    -0.242 C  
HETATM   19  H   UNL     2     -12.838  11.869  65.867  1.00  0.00     0.000 HD 
HETATM   20  O   UNL     2     -12.246  12.565  65.607  1.00  0.00    -0.554 OA 
HETATM   21  O   UNL     2     -11.267  10.476  67.422  1.00  0.00    -0.313 OA 
HETATM   22  O   UNL     2      -9.367  11.511  66.952  1.00  0.00    -0.174 OA 
ENDBRANCH  14  17
ENDBRANCH  11  14
ENDBRANCH   2  11
BRANCH   3  23
HETATM   23  C   UNL     3     -11.488   7.643  71.577  1.00  0.00    -0.264 C  
HETATM   24  O   UNL     3     -10.598   7.988  72.613  1.00  0.00    -0.299 OA 
HETATM   25  H   UNL     3      -9.801   7.510  72.412  1.00  0.00     0.000 HD 
BRANCH  23  26
HETATM   26  C   UNL     3     -11.260   6.084  71.316  1.00  0.00    -0.258 C  
HETATM   27  O   UNL     3     -11.636   5.475  72.526  1.00  0.00    -0.283 OA 
HETATM   28  H   UNL     3     -11.501   4.548  72.372  1.00  0.00     0.000 HD 
BRANCH  26  29
HETATM   29  C   UNL     3      -9.874   5.367  70.942  1.00  0.00    -0.188 C  
HETATM   30  C   UNL     3      -8.932   5.996  69.954  1.00  0.00    -0.141 C  
HETATM   31  O   UNL     3     -10.089   4.059  70.456  1.00  0.00    -0.135 OA 
HETATM   32  O   UNL     3      -9.289   6.132  68.664  1.00  0.00    -0.122 OA 
HETATM   33  O   UNL     3      -7.782   6.240  70.285  1.00  0.00    -0.093 OA 
HETATM   34  H   UNL     3      -9.269   3.634  70.235  1.00  0.00     0.000 HD 
ENDBRANCH  26  29
ENDBRANCH  23  26
ENDBRANCH   3  23
BRANCH   3  35
HETATM   35  C   UNL     3     -13.419   9.389  70.821  1.00  0.00     0.133 C  
HETATM   36  O   UNL     3     -12.436   9.966  70.013  1.00  0.00    -0.491 OA 
HETATM   37  H   UNL     3     -12.803  10.543  69.352  1.00  0.00     0.000 HD 
ENDBRANCH   3  35
TORSDOF 8
ENDMDL
MODEL      158
REMARK 921   NORMALIZED FREE ENERGY PREDICTED BY IDOCK:   -4.56 KCAL/MOL
REMARK 922        TOTAL FREE ENERGY PREDICTED BY IDOCK:   -8.37 KCAL/MOL
REMARK 923 INTER-LIGAND FREE ENERGY PREDICTED BY IDOCK:   -6.63 KCAL/MOL
REMARK 924 INTRA-LIGAND FREE ENERGY PREDICTED BY IDOCK:   -1.74 KCAL/MOL
REMARK 927      BINDING AFFINITY PREDICTED BY RF-SCORE:    0.00 PKD
ROOT
HETATM    1 MN   UNL     1      -8.657  14.305  65.480  1.00  0.00    -0.388 Mn 
HETATM    2  C   UNL     2      -8.946   6.785  67.329  1.00  0.00    -0.117 C  
HETATM    3  C   UNL     3     -10.394  16.219  65.343  1.00  0.00    -0.294 C  
HETATM    4  H   UNL     3     -10.686  18.084  64.891  1.00  0.00     0.000 HD 
HETATM    5  H   UNL     2      -8.636   7.859  65.776  1.00  0.00     0.000 HD 
HETATM    6  O   UNL     2      -8.542   6.935  65.977  1.00  0.00    -0.137 OA 
HETATM    7  O   UNL     3     -11.179  17.275  64.815  1.00  0.00    -0.890 OA 
ENDROOT
BRANCH   2   8
HETATM    8  C   UNL     2      -8.794   5.286  67.656  1.00  0.00    -0.105 C  
HETATM    9  H   UNL     2      -9.254   3.529  66.867  1.00  0.00     0.000 HD 
HETATM   10  O   UNL     2      -9.348   4.453  66.665  1.00  0.00    -0.137 OA 
ENDBRANCH   2   8
BRANCH   2  11
HETATM   11  C   UNL     2     -10.406   7.368  67.490  1.00  0.00    -0.251 C  
HETATM   12  H   UNL     2     -12.148   6.780  68.210  1.00  0.00     0.000 HD 
HETATM   13  O   UNL     2     -11.270   6.430  68.112  1.00  0.00    -0.312 OA 
BRANCH  11  14
HETATM   14  C   UNL     2     -10.526   8.704  68.294  1.00  0.00    -0.184 C  
HETATM   15  H   UNL     2     -10.531  10.577  67.860  1.00  0.00     0.000 HD 
HETATM   16  O   UNL     2     -10.459   9.765  67.372  1.00  0.00    -0.227 OA 
BRANCH  14  17
HETATM   17  C   UNL     2      -9.441   8.933  69.373  1.00  0.00    -0.161 C  
HETATM   18  C   UNL     2      -9.977   8.658  70.767  1.00  0.00    -0.197 C  
HETATM   19  H   UNL     2      -8.332  10.405  69.975  1.00  0.00     0.000 HD 
HETATM   20  O   UNL     2      -8.998  10.264  69.313  1.00  0.00    -0.168 OA 
HETATM   21  O   UNL     2      -9.162   8.764  71.831  1.00  0.00    -0.261 OA 
HETATM   22  O   UNL     2     -11.129   8.264  70.945  1.00  0.00    -0.251 OA 
ENDBRANCH  14  17
ENDBRANCH  11  14
ENDBRANCH   2  11
BRANCH   3  23
HETATM   23  C   UNL     3      -9.942  16.706  66.778  1.00  0.00    -0.279 C  
HETATM   24  O   UNL     3     -11.005  16.341  67.627  1.00  0.00    -0.315 OA 
HETATM   25  H   UNL     3     -10.733  16.634  68.489  1.00  0.00     0.000 HD 
BRANCH  23  26
HETATM   26  C   UNL     3      -8.609  16.391  67.599  1.00  0.00    -0.174 C  
HETATM   27  O   UNL     3      -7.609  16.311  66.613  1.00  0.00    -0.238 OA 
HETATM   28  H   UNL     3      -6.816  16.123  67.101  1.00  0.00     0.000 HD 
BRANCH  26  29
HETATM   29  C   UNL     3      -8.334  15.111  68.527  1.00  0.00    -0.158 C  
HETATM   30  C   UNL     3      -6.931  14.623  68.758  1.00  0.00    -0.102 C  
HETATM   31  O   UNL     3      -9.041  13.981  68.063  1.00  0.00    -0.175 OA 
HETATM   32  O   UNL     3      -6.208  14.126  67.739  1.00  0.00    -0.155 OA 
HETATM   33  O   UNL     3      -6.502  14.531  69.897  1.00  0.00    -0.143 OA 
HETATM   34  H   UNL     3      -8.878  13.223  68.613  1.00  0.00     0.000 HD 
ENDBRANCH  26  29
ENDBRANCH  23  26
ENDBRANCH   3  23
BRANCH   3  35
HETATM   35  C   UNL     3     -11.206  14.884  65.219  1.00  0.00    -0.369 C  
HETATM   36  O   UNL     3     -11.132  14.333  63.937  1.00  0.00    -0.447 OA 
HETATM   37  H   UNL     3     -11.624  13.523  63.862  1.00  0.00     0.000 HD 
ENDBRANCH   3  35
TORSDOF 8
ENDMDL
MODEL      159
REMARK 921   NORMALIZED FREE ENERGY PREDICTED BY IDOCK:   -4.56 KCAL/MOL
REMARK 922        TOTAL FREE ENERGY PREDICTED BY IDOCK:   -8.37 KCAL/MOL
REMARK 923 INTER-LIGAND FREE ENERGY PREDICTED BY IDOCK:   -6.09 KCAL/MOL
REMARK 924 INTRA-LIGAND FREE ENERGY PREDICTED BY IDOCK:   -2.28 KCAL/MOL
REMARK 927      BINDING AFFINITY PREDICTED BY RF-SCORE:    0.00 PKD
ROOT
HETATM    1 MN   UNL     1      -9.661   9.238  69.826  1.00  0.00    -0.145 Mn 
HETATM    2  C   UNL     2     -10.504  16.545  67.385  1.00  0.00    -0.310 C  
HETATM    3  C   UNL     3      -9.890   6.908  68.725  1.00  0.00    -0.149 C  
HETATM    4  H   UNL     3      -9.822   4.989  69.012  1.00  0.00     0.000 HD 
HETATM    5  H   UNL     2     -11.385  15.329  68.571  1.00  0.00     0.000 HD 
HETATM    6  O   UNL     2     -11.458  16.260  68.395  1.00  0.00    -0.357 OA 
HETATM    7  O   UNL     3     -10.336   5.585  68.479  1.00  0.00    -0.183 OA 
ENDROOT
BRANCH   2   8
HETATM    8  C   UNL     2     -10.622  18.055  67.100  1.00  0.00    -0.325 C  
HETATM    9  H   UNL     2      -9.445  19.605  66.735  1.00  0.00     0.000 HD 
HETATM   10  O   UNL     2      -9.371  18.674  66.911  1.00  0.00    -0.286 OA 
ENDBRANCH   2   8
BRANCH   2  11
HETATM   11  C   UNL     2     -10.775  15.599  66.149  1.00  0.00    -0.303 C  
HETATM   12  H   UNL     2     -10.498  15.625  64.194  1.00  0.00     0.000 HD 
HETATM   13  O   UNL     2     -10.335  16.194  64.938  1.00  0.00    -0.563 OA 
BRANCH  11  14
HETATM   14  C   UNL     2     -10.129  14.176  66.220  1.00  0.00    -0.300 C  
HETATM   15  H   UNL     2     -10.152  12.597  65.124  1.00  0.00     0.000 HD 
HETATM   16  O   UNL     2     -10.544  13.461  65.081  1.00  0.00    -0.312 OA 
BRANCH  14  17
HETATM   17  C   UNL     2     -10.490  13.341  67.471  1.00  0.00    -0.235 C  
HETATM   18  C   UNL     2      -9.393  12.346  67.811  1.00  0.00    -0.196 C  
HETATM   19  H   UNL     2     -11.903  12.125  68.002  1.00  0.00     0.000 HD 
HETATM   20  O   UNL     2     -11.682  12.638  67.234  1.00  0.00    -0.346 OA 
HETATM   21  O   UNL     2      -9.513  11.562  68.895  1.00  0.00    -0.136 OA 
HETATM   22  O   UNL     2      -8.353  12.290  67.156  1.00  0.00    -0.173 OA 
ENDBRANCH  14  17
ENDBRANCH  11  14
ENDBRANCH   2  11
BRANCH   3  23
HETATM   23  C   UNL     3      -8.321   6.867  68.529  1.00  0.00    -0.121 C  
HETATM   24  O   UNL     3      -8.077   7.730  67.442  1.00  0.00    -0.119 OA 
HETATM   25  H   UNL     3      -7.135   7.705  67.324  1.00  0.00     0.000 HD 
BRANCH  23  26
HETATM   26  C   UNL     3      -7.146   7.150  69.572  1.00  0.00    -0.071 C  
HETATM   27  O   UNL     3      -7.365   6.213  70.598  1.00  0.00    -0.081 OA 
HETATM   28  H   UNL     3      -6.667   6.380  71.219  1.00  0.00     0.000 HD 
BRANCH  26  29
HETATM   29  C   UNL     3      -6.872   8.521  70.360  1.00  0.00    -0.037 C  
HETATM   30  C   UNL     3      -7.384   8.712  71.760  1.00  0.00    -0.080 C  
HETATM   31  O   UNL     3      -7.360   9.632  69.639  1.00  0.00    -0.072 OA 
HETATM   32  O   UNL     3      -8.706   8.759  72.000  1.00  0.00    -0.319 OA 
HETATM   33  O   UNL     3      -6.602   8.983  72.658  1.00  0.00    -0.305 OA 
HETATM   34  H   UNL     3      -7.198  10.444  70.105  1.00  0.00     0.000 HD 
ENDBRANCH  26  29
ENDBRANCH  23  26
ENDBRANCH   3  23
BRANCH   3  35
HETATM   35  C   UNL     3     -10.736   7.891  67.845  1.00  0.00    -0.079 C  
HETATM   36  O   UNL     3     -10.639   7.604  66.481  1.00  0.00    -0.485 OA 
HETATM   37  H   UNL     3     -11.153   8.200  65.948  1.00  0.00     0.000 HD 
ENDBRANCH   3  35
TORSDOF 8
ENDMDL
MODEL      160
REMARK 921   NORMALIZED FREE ENERGY PREDICTED BY IDOCK:   -4.55 KCAL/MOL
REMARK 922        TOTAL FREE ENERGY PREDICTED BY IDOCK:   -8.35 KCAL/MOL
REMARK 923 INTER-LIGAND FREE ENERGY PREDICTED BY IDOCK:   -6.45 KCAL/MOL
REMARK 924 INTRA-LIGAND FREE ENERGY PREDICTED BY IDOCK:   -1.90 KCAL/MOL
REMARK 927      BINDING AFFINITY PREDICTED BY RF-SCORE:    0.00 PKD
ROOT
HETATM    1 MN   UNL     1      -7.733   9.661  66.459  1.00  0.00    -0.090 Mn 
HETATM    2  C   UNL     2     -12.682  14.066  70.478  1.00  0.00    -0.280 C  
HETATM    3  C   UNL     3      -6.760   7.280  66.746  1.00  0.00    -0.061 C  
HETATM    4  H   UNL     3      -5.536   5.955  66.029  1.00  0.00     0.000 HD 
HETATM    5  H   UNL     2     -10.818  14.049  70.047  1.00  0.00     0.000 HD 
HETATM    6  O   UNL     2     -11.404  14.681  70.447  1.00  0.00    -0.247 OA 
HETATM    7  O   UNL     3      -5.819   6.231  66.894  1.00  0.00    -0.019 OA 
ENDROOT
BRANCH   2   8
HETATM    8  C   UNL     2     -13.633  15.091  71.128  1.00  0.00    -0.427 C  
HETATM    9  H   UNL     2     -13.556  16.598  72.411  1.00  0.00     0.000 HD 
HETATM   10  O   UNL     2     -12.970  15.966  72.011  1.00  0.00    -0.449 OA 
ENDBRANCH   2   8
BRANCH   2  11
HETATM   11  C   UNL     2     -12.561  12.682  71.231  1.00  0.00    -0.240 C  
HETATM   12  H   UNL     2     -13.498  11.712  72.674  1.00  0.00     0.000 HD 
HETATM   13  O   UNL     2     -13.570  12.544  72.221  1.00  0.00    -0.530 OA 
BRANCH  11  14
HETATM   14  C   UNL     2     -12.626  11.404  70.331  1.00  0.00    -0.185 C  
HETATM   15  H   UNL     2     -13.372   9.640  70.496  1.00  0.00     0.000 HD 
HETATM   16  O   UNL     2     -13.333  10.417  71.042  1.00  0.00    -0.342 OA 
BRANCH  14  17
HETATM   17  C   UNL     2     -11.258  10.813  69.914  1.00  0.00    -0.300 C  
HETATM   18  C   UNL     2     -11.095  10.804  68.404  1.00  0.00    -0.266 C  
HETATM   19  H   UNL     2     -10.318   9.131  70.132  1.00  0.00     0.000 HD 
HETATM   20  O   UNL     2     -11.158   9.495  70.389  1.00  0.00    -0.243 OA 
HETATM   21  O   UNL     2      -9.949  10.363  67.858  1.00  0.00    -0.161 OA 
HETATM   22  O   UNL     2     -11.962  11.263  67.662  1.00  0.00    -0.634 OA 
ENDBRANCH  14  17
ENDBRANCH  11  14
ENDBRANCH   2  11
BRANCH   3  23
HETATM   23  C   UNL     3      -7.841   6.737  65.728  1.00  0.00    -0.102 C  
HETATM   24  O   UNL     3      -7.575   5.357  65.630  1.00  0.00    -0.080 OA 
HETATM   25  H   UNL     3      -8.224   5.031  65.018  1.00  0.00     0.000 HD 
BRANCH  23  26
HETATM   26  C   UNL     3      -9.432   6.866  65.750  1.00  0.00     0.303 C  
HETATM   27  O   UNL     3      -9.663   8.245  65.898  1.00  0.00    -0.453 OA 
HETATM   28  H   UNL     3     -10.609   8.323  65.911  1.00  0.00     0.000 HD 
BRANCH  26  29
HETATM   29  C   UNL     3     -10.434   6.196  66.810  1.00  0.00    -0.252 C  
HETATM   30  C   UNL     3      -9.903   5.341  67.927  1.00  0.00    -0.149 C  
HETATM   31  O   UNL     3     -11.399   5.392  66.164  1.00  0.00    -0.735 OA 
HETATM   32  O   UNL     3      -9.294   4.172  67.659  1.00  0.00    -0.145 OA 
HETATM   33  O   UNL     3     -10.163   5.629  69.085  1.00  0.00    -0.192 OA 
HETATM   34  H   UNL     3     -11.992   4.995  66.792  1.00  0.00     0.000 HD 
ENDBRANCH  26  29
ENDBRANCH  23  26
ENDBRANCH   3  23
BRANCH   3  35
HETATM   35  C   UNL     3      -7.227   7.736  68.171  1.00  0.00    -0.090 C  
HETATM   36  O   UNL     3      -7.174   6.698  69.106  1.00  0.00    -0.085 OA 
HETATM   37  H   UNL     3      -7.457   6.975  69.970  1.00  0.00     0.000 HD 
ENDBRANCH   3  35
TORSDOF 8
ENDMDL
MODEL      161
REMARK 921   NORMALIZED FREE ENERGY PREDICTED BY IDOCK:   -4.55 KCAL/MOL
REMARK 922        TOTAL FREE ENERGY PREDICTED BY IDOCK:   -8.35 KCAL/MOL
REMARK 923 INTER-LIGAND FREE ENERGY PREDICTED BY IDOCK:   -5.95 KCAL/MOL
REMARK 924 INTRA-LIGAND FREE ENERGY PREDICTED BY IDOCK:   -2.40 KCAL/MOL
REMARK 927      BINDING AFFINITY PREDICTED BY RF-SCORE:    0.00 PKD
ROOT
HETATM    1 MN   UNL     1      -9.124  18.372  68.927  1.00  0.00    -0.282 Mn 
HETATM    2  C   UNL     2     -12.099  12.565  64.746  1.00  0.00    -0.434 C  
HETATM    3  C   UNL     3      -6.730  19.173  69.494  1.00  0.00    -0.241 C  
HETATM    4  H   UNL     3      -5.665  20.456  70.488  1.00  0.00     0.000 HD 
HETATM    5  H   UNL     2     -11.986  13.083  66.584  1.00  0.00     0.000 HD 
HETATM    6  O   UNL     2     -12.469  12.418  66.108  1.00  0.00    -0.507 OA 
HETATM    7  O   UNL     3      -5.588  19.539  70.250  1.00  0.00    -0.221 OA 
ENDROOT
BRANCH   2   8
HETATM    8  C   UNL     2     -12.883  11.485  63.973  1.00  0.00     0.377 C  
HETATM    9  H   UNL     2     -13.887  11.293  62.276  1.00  0.00     0.000 HD 
HETATM   10  O   UNL     2     -13.404  11.958  62.753  1.00  0.00    -0.129 OA 
ENDBRANCH   2   8
BRANCH   2  11
HETATM   11  C   UNL     2     -10.526  12.470  64.634  1.00  0.00    -0.319 C  
HETATM   12  H   UNL     2      -8.993  13.702  64.460  1.00  0.00     0.000 HD 
HETATM   13  O   UNL     2      -9.939  13.758  64.527  1.00  0.00    -0.245 OA 
BRANCH  11  14
HETATM   14  C   UNL     2      -9.799  11.731  65.804  1.00  0.00    -0.240 C  
HETATM   15  H   UNL     2      -7.992  11.621  66.452  1.00  0.00     0.000 HD 
HETATM   16  O   UNL     2      -8.434  12.070  65.741  1.00  0.00     0.237 OA 
BRANCH  14  17
HETATM   17  C   UNL     2      -9.914  10.188  65.793  1.00  0.00    -0.271 C  
HETATM   18  C   UNL     2      -9.924   9.622  67.202  1.00  0.00    -0.194 C  
HETATM   19  H   UNL     2      -8.894   8.699  65.087  1.00  0.00     0.000 HD 
HETATM   20  O   UNL     2      -8.823   9.646  65.094  1.00  0.00    -0.156 OA 
HETATM   21  O   UNL     2     -10.061   8.298  67.390  1.00  0.00    -0.191 OA 
HETATM   22  O   UNL     2      -9.884  10.356  68.189  1.00  0.00    -0.148 OA 
ENDBRANCH  14  17
ENDBRANCH  11  14
ENDBRANCH   2  11
BRANCH   3  23
HETATM   23  C   UNL     3      -6.839  20.252  68.344  1.00  0.00    -0.259 C  
HETATM   24  O   UNL     3      -5.773  19.953  67.473  1.00  0.00    -0.176 OA 
HETATM   25  H   UNL     3      -5.839  20.602  66.783  1.00  0.00     0.000 HD 
BRANCH  23  26
HETATM   26  C   UNL     3      -8.071  20.629  67.401  1.00  0.00    -0.243 C  
HETATM   27  O   UNL     3      -9.188  20.563  68.252  1.00  0.00     0.009 OA 
HETATM   28  H   UNL     3      -9.921  20.787  67.690  1.00  0.00     0.000 HD 
BRANCH  26  29
HETATM   29  C   UNL     3      -8.546  19.844  66.084  1.00  0.00    -0.312 C  
HETATM   30  C   UNL     3      -9.822  19.048  66.089  1.00  0.00    -0.329 C  
HETATM   31  O   UNL     3      -7.556  18.940  65.641  1.00  0.00    -0.485 OA 
HETATM   32  O   UNL     3      -9.940  17.957  66.867  1.00  0.00    -0.304 OA 
HETATM   33  O   UNL     3     -10.694  19.298  65.272  1.00  0.00    -0.455 OA 
HETATM   34  H   UNL     3      -7.838  18.475  64.862  1.00  0.00     0.000 HD 
ENDBRANCH  26  29
ENDBRANCH  23  26
ENDBRANCH   3  23
BRANCH   3  35
HETATM   35  C   UNL     3      -6.602  17.660  69.101  1.00  0.00    -0.251 C  
HETATM   36  O   UNL     3      -7.292  17.356  67.924  1.00  0.00    -0.182 OA 
HETATM   37  H   UNL     3      -7.215  16.439  67.686  1.00  0.00     0.000 HD 
ENDBRANCH   3  35
TORSDOF 8
ENDMDL
MODEL      162
REMARK 921   NORMALIZED FREE ENERGY PREDICTED BY IDOCK:   -4.54 KCAL/MOL
REMARK 922        TOTAL FREE ENERGY PREDICTED BY IDOCK:   -8.34 KCAL/MOL
REMARK 923 INTER-LIGAND FREE ENERGY PREDICTED BY IDOCK:   -7.10 KCAL/MOL
REMARK 924 INTRA-LIGAND FREE ENERGY PREDICTED BY IDOCK:   -1.24 KCAL/MOL
REMARK 927      BINDING AFFINITY PREDICTED BY RF-SCORE:    0.00 PKD
ROOT
HETATM    1 MN   UNL     1     -12.620  10.499  68.225  1.00  0.00    -0.367 Mn 
HETATM    2  C   UNL     2      -9.165   4.328  65.058  1.00  0.00    -0.155 C  
HETATM    3  C   UNL     3     -12.658  11.559  70.585  1.00  0.00    -0.248 C  
HETATM    4  H   UNL     3     -13.402  12.967  71.695  1.00  0.00     0.000 HD 
HETATM    5  H   UNL     2     -10.937   4.893  65.508  1.00  0.00     0.000 HD 
HETATM    6  O   UNL     2     -10.574   4.171  65.008  1.00  0.00    -0.240 OA 
HETATM    7  O   UNL     3     -13.150  12.059  71.817  1.00  0.00    -0.445 OA 
ENDROOT
BRANCH   2   8
HETATM    8  C   UNL     2      -8.576   3.157  64.247  1.00  0.00    -0.093 C  
HETATM    9  H   UNL     2      -8.570   2.481  62.385  1.00  0.00     0.000 HD 
HETATM   10  O   UNL     2      -8.933   3.203  62.885  1.00  0.00    -0.091 OA 
ENDBRANCH   2   8
BRANCH   2  11
HETATM   11  C   UNL     2      -8.715   4.398  66.571  1.00  0.00    -0.112 C  
HETATM   12  H   UNL     2      -7.031   4.368  67.602  1.00  0.00     0.000 HD 
HETATM   13  O   UNL     2      -7.302   4.326  66.692  1.00  0.00    -0.077 OA 
BRANCH  11  14
HETATM   14  C   UNL     2      -9.179   5.662  67.366  1.00  0.00    -0.109 C  
HETATM   15  H   UNL     2     -10.700   6.128  68.446  1.00  0.00     0.000 HD 
HETATM   16  O   UNL     2     -10.417   5.360  67.963  1.00  0.00    -0.180 OA 
BRANCH  14  17
HETATM   17  C   UNL     2      -9.347   6.952  66.530  1.00  0.00    -0.158 C  
HETATM   18  C   UNL     2      -8.232   7.945  66.810  1.00  0.00    -0.116 C  
HETATM   19  H   UNL     2     -10.681   8.344  66.329  1.00  0.00     0.000 HD 
HETATM   20  O   UNL     2     -10.578   7.552  66.843  1.00  0.00    -0.332 OA 
HETATM   21  O   UNL     2      -8.190   9.110  66.141  1.00  0.00    -0.108 OA 
HETATM   22  O   UNL     2      -7.316   7.678  67.587  1.00  0.00    -0.090 OA 
ENDBRANCH  14  17
ENDBRANCH  11  14
ENDBRANCH   2  11
BRANCH   3  23
HETATM   23  C   UNL     3     -11.563  12.598  70.116  1.00  0.00    -0.062 C  
HETATM   24  O   UNL     3     -10.570  11.812  69.497  1.00  0.00    -0.444 OA 
HETATM   25  H   UNL     3      -9.912  12.436  69.216  1.00  0.00     0.000 HD 
BRANCH  23  26
HETATM   26  C   UNL     3     -11.705  13.902  69.207  1.00  0.00    -0.334 C  
HETATM   27  O   UNL     3     -12.824  14.570  69.735  1.00  0.00    -0.552 OA 
HETATM   28  H   UNL     3     -12.909  15.346  69.195  1.00  0.00     0.000 HD 
BRANCH  26  29
HETATM   29  C   UNL     3     -11.949  13.945  67.621  1.00  0.00    -0.368 C  
HETATM   30  C   UNL     3     -11.477  12.817  66.746  1.00  0.00    -0.343 C  
HETATM   31  O   UNL     3     -11.390  15.108  67.048  1.00  0.00    -0.336 OA 
HETATM   32  O   UNL     3     -10.162  12.568  66.607  1.00  0.00    -0.225 OA 
HETATM   33  O   UNL     3     -12.276  12.226  66.037  1.00  0.00    -0.646 OA 
HETATM   34  H   UNL     3     -11.534  15.133  66.109  1.00  0.00     0.000 HD 
ENDBRANCH  26  29
ENDBRANCH  23  26
ENDBRANCH   3  23
BRANCH   3  35
HETATM   35  C   UNL     3     -12.242  10.061  70.786  1.00  0.00    -0.315 C  
HETATM   36  O   UNL     3     -13.345   9.206  70.857  1.00  0.00    -0.550 OA 
HETATM   37  H   UNL     3     -13.093   8.298  70.979  1.00  0.00     0.000 HD 
ENDBRANCH   3  35
TORSDOF 8
ENDMDL
MODEL      163
REMARK 921   NORMALIZED FREE ENERGY PREDICTED BY IDOCK:   -4.54 KCAL/MOL
REMARK 922        TOTAL FREE ENERGY PREDICTED BY IDOCK:   -8.33 KCAL/MOL
REMARK 923 INTER-LIGAND FREE ENERGY PREDICTED BY IDOCK:   -6.61 KCAL/MOL
REMARK 924 INTRA-LIGAND FREE ENERGY PREDICTED BY IDOCK:   -1.72 KCAL/MOL
REMARK 927      BINDING AFFINITY PREDICTED BY RF-SCORE:    0.00 PKD
ROOT
HETATM    1 MN   UNL     1     -12.709  12.803  69.134  1.00  0.00    -0.186 Mn 
HETATM    2  C   UNL     2      -8.445   6.332  69.199  1.00  0.00    -0.120 C  
HETATM    3  C   UNL     3     -13.131  14.728  70.811  1.00  0.00    -0.336 C  
HETATM    4  H   UNL     3     -14.111  16.369  71.149  1.00  0.00     0.000 HD 
HETATM    5  H   UNL     2     -10.296   6.818  69.206  1.00  0.00     0.000 HD 
HETATM    6  O   UNL     2      -9.821   6.003  69.094  1.00  0.00    -0.139 OA 
HETATM    7  O   UNL     3     -13.814  15.629  71.665  1.00  0.00    -0.475 OA 
ENDROOT
BRANCH   2   8
HETATM    8  C   UNL     2      -7.675   5.009  69.017  1.00  0.00    -0.080 C  
HETATM    9  H   UNL     2      -6.373   4.198  67.764  1.00  0.00     0.000 HD 
HETATM   10  O   UNL     2      -6.848   5.013  67.876  1.00  0.00    -0.057 OA 
ENDBRANCH   2   8
BRANCH   2  11
HETATM   11  C   UNL     2      -8.204   7.071  70.575  1.00  0.00    -0.123 C  
HETATM   12  H   UNL     2      -6.695   7.453  71.789  1.00  0.00     0.000 HD 
HETATM   13  O   UNL     2      -6.840   7.009  70.962  1.00  0.00    -0.055 OA 
BRANCH  11  14
HETATM   14  C   UNL     2      -8.626   8.577  70.627  1.00  0.00    -0.148 C  
HETATM   15  H   UNL     2      -8.283  10.063  71.798  1.00  0.00     0.000 HD 
HETATM   16  O   UNL     2      -8.028   9.148  71.766  1.00  0.00    -0.340 OA 
BRANCH  14  17
HETATM   17  C   UNL     2     -10.148   8.841  70.697  1.00  0.00    -0.204 C  
HETATM   18  C   UNL     2     -10.535  10.077  69.903  1.00  0.00    -0.274 C  
HETATM   19  H   UNL     2     -11.461   9.190  72.080  1.00  0.00     0.000 HD 
HETATM   20  O   UNL     2     -10.527   9.027  72.037  1.00  0.00    -0.346 OA 
HETATM   21  O   UNL     2     -11.826  10.438  69.814  1.00  0.00    -0.249 OA 
HETATM   22  O   UNL     2      -9.698  10.720  69.270  1.00  0.00    -0.198 OA 
ENDBRANCH  14  17
ENDBRANCH  11  14
ENDBRANCH   2  11
BRANCH   3  23
HETATM   23  C   UNL     3     -12.058  15.603  70.047  1.00  0.00    -0.359 C  
HETATM   24  O   UNL     3     -11.546  16.474  71.029  1.00  0.00    -0.598 OA 
HETATM   25  H   UNL     3     -10.902  17.000  70.570  1.00  0.00     0.000 HD 
BRANCH  23  26
HETATM   26  C   UNL     3     -10.799  15.155  69.173  1.00  0.00    -0.251 C  
HETATM   27  O   UNL     3      -9.763  15.007  70.113  1.00  0.00    -0.473 OA 
HETATM   28  H   UNL     3      -9.014  14.741  69.593  1.00  0.00     0.000 HD 
BRANCH  26  29
HETATM   29  C   UNL     3     -10.116  15.984  67.980  1.00  0.00    -0.240 C  
HETATM   30  C   UNL     3      -8.630  15.926  67.763  1.00  0.00    -0.159 C  
HETATM   31  O   UNL     3     -10.416  17.360  68.075  1.00  0.00    -0.351 OA 
HETATM   32  O   UNL     3      -7.788  16.426  68.685  1.00  0.00    -0.186 OA 
HETATM   33  O   UNL     3      -8.190  15.567  66.682  1.00  0.00    -0.253 OA 
HETATM   34  H   UNL     3     -10.011  17.850  67.369  1.00  0.00     0.000 HD 
ENDBRANCH  26  29
ENDBRANCH  23  26
ENDBRANCH   3  23
BRANCH   3  35
HETATM   35  C   UNL     3     -12.642  13.506  71.663  1.00  0.00    -0.217 C  
HETATM   36  O   UNL     3     -13.404  12.358  71.434  1.00  0.00    -0.196 OA 
HETATM   37  H   UNL     3     -13.107  11.617  71.951  1.00  0.00     0.000 HD 
ENDBRANCH   3  35
TORSDOF 8
ENDMDL
MODEL      164
REMARK 921   NORMALIZED FREE ENERGY PREDICTED BY IDOCK:   -4.53 KCAL/MOL
REMARK 922        TOTAL FREE ENERGY PREDICTED BY IDOCK:   -8.33 KCAL/MOL
REMARK 923 INTER-LIGAND FREE ENERGY PREDICTED BY IDOCK:   -6.62 KCAL/MOL
REMARK 924 INTRA-LIGAND FREE ENERGY PREDICTED BY IDOCK:   -1.71 KCAL/MOL
REMARK 927      BINDING AFFINITY PREDICTED BY RF-SCORE:    0.00 PKD
ROOT
HETATM    1 MN   UNL     1      -7.543  11.039  64.591  1.00  0.00    -0.294 Mn 
HETATM    2  C   UNL     2      -9.923  18.177  66.448  1.00  0.00    -0.376 C  
HETATM    3  C   UNL     3      -6.976   8.898  65.929  1.00  0.00    -0.080 C  
HETATM    4  H   UNL     3      -6.334   7.069  65.824  1.00  0.00     0.000 HD 
HETATM    5  H   UNL     2      -8.358  17.338  65.736  1.00  0.00     0.000 HD 
HETATM    6  O   UNL     2      -8.645  18.238  65.834  1.00  0.00    -0.502 OA 
HETATM    7  O   UNL     3      -6.247   7.793  66.434  1.00  0.00    -0.044 OA 
ENDROOT
BRANCH   2   8
HETATM    8  C   UNL     2     -10.390  19.637  66.608  1.00  0.00    -0.486 C  
HETATM    9  H   UNL     2      -9.734  21.342  67.373  1.00  0.00     0.000 HD 
HETATM   10  O   UNL     2      -9.446  20.442  67.275  1.00  0.00    -0.392 OA 
ENDBRANCH   2   8
BRANCH   2  11
HETATM   11  C   UNL     2      -9.801  17.354  67.792  1.00  0.00    -0.283 C  
HETATM   12  H   UNL     2     -10.657  17.318  69.571  1.00  0.00     0.000 HD 
HETATM   13  O   UNL     2     -10.729  17.813  68.763  1.00  0.00    -0.221 OA 
BRANCH  11  14
HETATM   14  C   UNL     2      -9.996  15.807  67.668  1.00  0.00    -0.239 C  
HETATM   15  H   UNL     2      -8.837  14.274  67.603  1.00  0.00     0.000 HD 
HETATM   16  O   UNL     2      -8.719  15.214  67.678  1.00  0.00    -0.161 OA 
BRANCH  14  17
HETATM   17  C   UNL     2     -10.741  15.327  66.400  1.00  0.00    -0.318 C  
HETATM   18  C   UNL     2     -11.818  14.312  66.740  1.00  0.00    -0.426 C  
HETATM   19  H   UNL     2     -10.280  14.441  64.739  1.00  0.00     0.000 HD 
HETATM   20  O   UNL     2      -9.823  14.736  65.517  1.00  0.00    -0.342 OA 
HETATM   21  O   UNL     2     -12.599  13.814  65.766  1.00  0.00    -0.484 OA 
HETATM   22  O   UNL     2     -12.047  13.985  67.904  1.00  0.00    -0.363 OA 
ENDBRANCH  14  17
ENDBRANCH  11  14
ENDBRANCH   2  11
BRANCH   3  23
HETATM   23  C   UNL     3      -8.421   8.340  65.610  1.00  0.00    -0.158 C  
HETATM   24  O   UNL     3      -8.366   7.967  64.253  1.00  0.00    -0.334 OA 
HETATM   25  H   UNL     3      -9.234   7.632  64.062  1.00  0.00     0.000 HD 
BRANCH  23  26
HETATM   26  C   UNL     3      -9.265   7.195  66.336  1.00  0.00    -0.157 C  
HETATM   27  O   UNL     3      -8.910   7.314  67.691  1.00  0.00    -0.124 OA 
HETATM   28  H   UNL     3      -9.412   6.633  68.123  1.00  0.00     0.000 HD 
BRANCH  26  29
HETATM   29  C   UNL     3      -9.180   5.617  66.055  1.00  0.00    -0.152 C  
HETATM   30  C   UNL     3      -8.543   4.697  67.059  1.00  0.00    -0.104 C  
HETATM   31  O   UNL     3      -8.513   5.348  64.841  1.00  0.00    -0.145 OA 
HETATM   32  O   UNL     3      -7.229   4.790  67.329  1.00  0.00    -0.071 OA 
HETATM   33  O   UNL     3      -9.183   3.762  67.514  1.00  0.00    -0.152 OA 
HETATM   34  H   UNL     3      -8.462   4.414  64.675  1.00  0.00     0.000 HD 
ENDBRANCH  26  29
ENDBRANCH  23  26
ENDBRANCH   3  23
BRANCH   3  35
HETATM   35  C   UNL     3      -6.833  10.092  66.935  1.00  0.00    -0.087 C  
HETATM   36  O   UNL     3      -6.041  11.125  66.426  1.00  0.00    -0.128 OA 
HETATM   37  H   UNL     3      -5.954  11.848  67.036  1.00  0.00     0.000 HD 
ENDBRANCH   3  35
TORSDOF 8
ENDMDL
MODEL      165
REMARK 921   NORMALIZED FREE ENERGY PREDICTED BY IDOCK:   -4.53 KCAL/MOL
REMARK 922        TOTAL FREE ENERGY PREDICTED BY IDOCK:   -8.33 KCAL/MOL
REMARK 923 INTER-LIGAND FREE ENERGY PREDICTED BY IDOCK:   -6.90 KCAL/MOL
REMARK 924 INTRA-LIGAND FREE ENERGY PREDICTED BY IDOCK:   -1.43 KCAL/MOL
REMARK 927      BINDING AFFINITY PREDICTED BY RF-SCORE:    0.00 PKD
ROOT
HETATM    1 MN   UNL     1     -10.289  11.879  70.026  1.00  0.00    -0.421 Mn 
HETATM    2  C   UNL     2     -10.840   4.792  73.112  1.00  0.00    -0.270 C  
HETATM    3  C   UNL     3      -8.875  12.943  68.139  1.00  0.00    -0.194 C  
HETATM    4  H   UNL     3      -8.446  14.582  67.190  1.00  0.00     0.000 HD 
HETATM    5  H   UNL     2     -10.229   6.529  73.634  1.00  0.00     0.000 HD 
HETATM    6  O   UNL     2     -10.386   5.712  74.093  1.00  0.00    -0.251 OA 
HETATM    7  O   UNL     3      -7.971  13.809  67.473  1.00  0.00    -0.158 OA 
ENDROOT
BRANCH   2   8
HETATM    8  C   UNL     2     -11.096   3.467  73.857  1.00  0.00    -0.139 C  
HETATM    9  H   UNL     2     -10.112   2.172  74.987  1.00  0.00     0.000 HD 
HETATM   10  O   UNL     2      -9.954   2.988  74.528  1.00  0.00    -0.114 OA 
ENDBRANCH   2   8
BRANCH   2  11
HETATM   11  C   UNL     2      -9.772   4.720  71.951  1.00  0.00    -0.163 C  
HETATM   12  H   UNL     2      -9.254   3.473  70.510  1.00  0.00     0.000 HD 
HETATM   13  O   UNL     2      -9.896   3.517  71.209  1.00  0.00    -0.182 OA 
BRANCH  11  14
HETATM   14  C   UNL     2      -9.799   5.897  70.921  1.00  0.00    -0.179 C  
HETATM   15  H   UNL     2      -9.812   6.049  69.004  1.00  0.00     0.000 HD 
HETATM   16  O   UNL     2      -9.796   5.335  69.630  1.00  0.00    -0.167 OA 
BRANCH  14  17
HETATM   17  C   UNL     2      -8.621   6.895  71.016  1.00  0.00    -0.135 C  
HETATM   18  C   UNL     2      -9.048   8.298  70.620  1.00  0.00    -0.152 C  
HETATM   19  H   UNL     2      -6.865   7.091  70.219  1.00  0.00     0.000 HD 
HETATM   20  O   UNL     2      -7.588   6.478  70.161  1.00  0.00    -0.092 OA 
HETATM   21  O   UNL     2      -8.165   9.309  70.683  1.00  0.00    -0.166 OA 
HETATM   22  O   UNL     2     -10.212   8.551  70.312  1.00  0.00    -0.187 OA 
ENDBRANCH  14  17
ENDBRANCH  11  14
ENDBRANCH   2  11
BRANCH   3  23
HETATM   23  C   UNL     3     -10.096  12.768  67.150  1.00  0.00    -0.234 C  
HETATM   24  O   UNL     3     -10.998  11.938  67.844  1.00  0.00    -0.200 OA 
HETATM   25  H   UNL     3     -11.732  11.833  67.250  1.00  0.00     0.000 HD 
BRANCH  23  26
HETATM   26  C   UNL     3     -10.998  13.868  66.424  1.00  0.00    -0.303 C  
HETATM   27  O   UNL     3     -12.270  13.273  66.347  1.00  0.00    -0.402 OA 
HETATM   28  H   UNL     3     -12.806  13.927  65.915  1.00  0.00     0.000 HD 
BRANCH  26  29
HETATM   29  C   UNL     3     -10.771  14.478  64.957  1.00  0.00    -0.427 C  
HETATM   30  C   UNL     3     -11.629  15.607  64.459  1.00  0.00    -0.262 C  
HETATM   31  O   UNL     3     -10.876  13.478  63.965  1.00  0.00    -0.554 OA 
HETATM   32  O   UNL     3     -12.946  15.423  64.255  1.00  0.00    -0.302 OA 
HETATM   33  O   UNL     3     -11.106  16.647  64.091  1.00  0.00    -1.005 OA 
HETATM   34  H   UNL     3     -10.742  13.839  63.097  1.00  0.00     0.000 HD 
ENDBRANCH  26  29
ENDBRANCH  23  26
ENDBRANCH   3  23
BRANCH   3  35
HETATM   35  C   UNL     3      -8.091  11.668  68.605  1.00  0.00    -0.121 C  
HETATM   36  O   UNL     3      -8.426  10.535  67.859  1.00  0.00    -0.117 OA 
HETATM   37  H   UNL     3      -7.951   9.762  68.142  1.00  0.00     0.000 HD 
ENDBRANCH   3  35
TORSDOF 8
ENDMDL
MODEL      166
REMARK 921   NORMALIZED FREE ENERGY PREDICTED BY IDOCK:   -4.53 KCAL/MOL
REMARK 922        TOTAL FREE ENERGY PREDICTED BY IDOCK:   -8.32 KCAL/MOL
REMARK 923 INTER-LIGAND FREE ENERGY PREDICTED BY IDOCK:   -6.50 KCAL/MOL
REMARK 924 INTRA-LIGAND FREE ENERGY PREDICTED BY IDOCK:   -1.83 KCAL/MOL
REMARK 927      BINDING AFFINITY PREDICTED BY RF-SCORE:    0.00 PKD
ROOT
HETATM    1 MN   UNL     1      -8.652   8.631  65.852  1.00  0.00    -0.108 Mn 
HETATM    2  C   UNL     2     -10.277  16.207  65.991  1.00  0.00    -0.356 C  
HETATM    3  C   UNL     3      -8.350   6.796  67.651  1.00  0.00    -0.123 C  
HETATM    4  H   UNL     3      -7.909   4.934  67.979  1.00  0.00     0.000 HD 
HETATM    5  H   UNL     2      -8.798  15.076  65.550  1.00  0.00     0.000 HD 
HETATM    6  O   UNL     2      -8.988  16.000  65.436  1.00  0.00    -0.147 OA 
HETATM    7  O   UNL     3      -7.756   5.762  68.418  1.00  0.00    -0.093 OA 
ENDROOT
BRANCH   2   8
HETATM    8  C   UNL     2     -10.585  17.706  65.806  1.00  0.00    -0.177 C  
HETATM    9  H   UNL     2      -9.624  19.437  65.771  1.00  0.00     0.000 HD 
HETATM   10  O   UNL     2      -9.434  18.514  65.886  1.00  0.00    -0.488 OA 
ENDBRANCH   2   8
BRANCH   2  11
HETATM   11  C   UNL     2     -10.273  15.697  67.487  1.00  0.00    -0.263 C  
HETATM   12  H   UNL     2     -10.986  16.274  69.235  1.00  0.00     0.000 HD 
HETATM   13  O   UNL     2     -10.988  16.581  68.336  1.00  0.00    -0.331 OA 
BRANCH  11  14
HETATM   14  C   UNL     2     -10.856  14.265  67.724  1.00  0.00    -0.253 C  
HETATM   15  H   UNL     2     -11.498  13.273  69.240  1.00  0.00     0.000 HD 
HETATM   16  O   UNL     2     -11.144  14.142  69.096  1.00  0.00    -0.251 OA 
BRANCH  14  17
HETATM   17  C   UNL     2      -9.931  13.092  67.318  1.00  0.00    -0.230 C  
HETATM   18  C   UNL     2     -10.707  11.794  67.181  1.00  0.00    -0.241 C  
HETATM   19  H   UNL     2      -8.369  12.205  68.047  1.00  0.00     0.000 HD 
HETATM   20  O   UNL     2      -8.937  12.925  68.296  1.00  0.00    -0.194 OA 
HETATM   21  O   UNL     2     -10.075  10.674  66.792  1.00  0.00    -0.207 OA 
HETATM   22  O   UNL     2     -11.926  11.755  67.345  1.00  0.00    -0.617 OA 
ENDBRANCH  14  17
ENDBRANCH  11  14
ENDBRANCH   2  11
BRANCH   3  23
HETATM   23  C   UNL     3      -9.840   6.331  67.399  1.00  0.00    -0.131 C  
HETATM   24  O   UNL     3     -10.318   7.197  66.396  1.00  0.00    -0.476 OA 
HETATM   25  H   UNL     3     -11.213   6.917  66.245  1.00  0.00     0.000 HD 
BRANCH  23  26
HETATM   26  C   UNL     3     -10.420   4.889  67.033  1.00  0.00    -0.102 C  
HETATM   27  O   UNL     3      -9.734   4.014  67.895  1.00  0.00    -0.159 OA 
HETATM   28  H   UNL     3     -10.079   3.156  67.677  1.00  0.00     0.000 HD 
BRANCH  26  29
HETATM   29  C   UNL     3     -10.343   4.158  65.606  1.00  0.00    -0.097 C  
HETATM   30  C   UNL     3      -9.107   4.269  64.758  1.00  0.00    -0.149 C  
HETATM   31  O   UNL     3     -11.399   4.567  64.764  1.00  0.00    -0.903 OA 
HETATM   32  O   UNL     3      -8.736   5.457  64.247  1.00  0.00    -0.102 OA 
HETATM   33  O   UNL     3      -8.525   3.256  64.401  1.00  0.00    -0.093 OA 
HETATM   34  H   UNL     3     -11.353   4.134  63.919  1.00  0.00     0.000 HD 
ENDBRANCH  26  29
ENDBRANCH  23  26
ENDBRANCH   3  23
BRANCH   3  35
HETATM   35  C   UNL     3      -8.097   8.163  68.376  1.00  0.00    -0.128 C  
HETATM   36  O   UNL     3      -7.172   8.962  67.699  1.00  0.00    -0.079 OA 
HETATM   37  H   UNL     3      -7.019   9.790  68.138  1.00  0.00     0.000 HD 
ENDBRANCH   3  35
TORSDOF 8
ENDMDL
MODEL      167
REMARK 921   NORMALIZED FREE ENERGY PREDICTED BY IDOCK:   -4.52 KCAL/MOL
REMARK 922        TOTAL FREE ENERGY PREDICTED BY IDOCK:   -8.32 KCAL/MOL
REMARK 923 INTER-LIGAND FREE ENERGY PREDICTED BY IDOCK:   -7.20 KCAL/MOL
REMARK 924 INTRA-LIGAND FREE ENERGY PREDICTED BY IDOCK:   -1.12 KCAL/MOL
REMARK 927      BINDING AFFINITY PREDICTED BY RF-SCORE:    0.00 PKD
ROOT
HETATM    1 MN   UNL     1      -8.489  11.410  66.269  1.00  0.00    -0.145 Mn 
HETATM    2  C   UNL     2      -9.073   6.575  72.297  1.00  0.00    -0.138 C  
HETATM    3  C   UNL     3      -9.166  11.307  63.774  1.00  0.00    -0.078 C  
HETATM    4  H   UNL     3      -9.130  12.230  62.067  1.00  0.00     0.000 HD 
HETATM    5  H   UNL     2      -7.695   7.322  71.199  1.00  0.00     0.000 HD 
HETATM    6  O   UNL     2      -7.707   6.823  72.008  1.00  0.00    -0.094 OA 
HETATM    7  O   UNL     3      -9.064  11.329  62.360  1.00  0.00    -0.317 OA 
ENDROOT
BRANCH   2   8
HETATM    8  C   UNL     2      -9.091   5.766  73.609  1.00  0.00    -0.127 C  
HETATM    9  H   UNL     2     -10.183   5.608  75.254  1.00  0.00     0.000 HD 
HETATM   10  O   UNL     2     -10.172   6.107  74.446  1.00  0.00    -0.303 OA 
ENDBRANCH   2   8
BRANCH   2  11
HETATM   11  C   UNL     2      -9.734   5.861  71.052  1.00  0.00    -0.172 C  
HETATM   12  H   UNL     2     -10.709   4.187  70.669  1.00  0.00     0.000 HD 
HETATM   13  O   UNL     2     -10.311   4.617  71.418  1.00  0.00    -0.176 OA 
BRANCH  11  14
HETATM   14  C   UNL     2     -10.839   6.675  70.302  1.00  0.00    -0.271 C  
HETATM   15  H   UNL     2     -11.817   6.478  68.659  1.00  0.00     0.000 HD 
HETATM   16  O   UNL     2     -11.146   5.984  69.115  1.00  0.00    -0.362 OA 
BRANCH  14  17
HETATM   17  C   UNL     2     -10.460   8.128  69.930  1.00  0.00    -0.226 C  
HETATM   18  C   UNL     2     -11.312   9.134  70.684  1.00  0.00    -0.273 C  
HETATM   19  H   UNL     2     -10.415   9.211  68.323  1.00  0.00     0.000 HD 
HETATM   20  O   UNL     2     -10.647   8.319  68.551  1.00  0.00    -0.187 OA 
HETATM   21  O   UNL     2     -11.096  10.450  70.520  1.00  0.00    -0.311 OA 
HETATM   22  O   UNL     2     -12.154   8.774  71.506  1.00  0.00    -0.298 OA 
ENDBRANCH  14  17
ENDBRANCH  11  14
ENDBRANCH   2  11
BRANCH   3  23
HETATM   23  C   UNL     3     -10.475  12.125  64.115  1.00  0.00    -0.362 C  
HETATM   24  O   UNL     3     -11.504  11.453  63.427  1.00  0.00    -0.743 OA 
HETATM   25  H   UNL     3     -12.290  11.945  63.632  1.00  0.00     0.000 HD 
BRANCH  23  26
HETATM   26  C   UNL     3     -11.097  12.528  65.529  1.00  0.00    -0.301 C  
HETATM   27  O   UNL     3     -12.486  12.522  65.308  1.00  0.00    -0.608 OA 
HETATM   28  H   UNL     3     -12.856  12.762  66.149  1.00  0.00     0.000 HD 
BRANCH  26  29
HETATM   29  C   UNL     3     -10.845  13.894  66.334  1.00  0.00    -0.291 C  
HETATM   30  C   UNL     3      -9.771  13.974  67.383  1.00  0.00    -0.233 C  
HETATM   31  O   UNL     3     -12.020  14.331  66.983  1.00  0.00    -0.414 OA 
HETATM   32  O   UNL     3      -9.866  13.246  68.510  1.00  0.00    -0.227 OA 
HETATM   33  O   UNL     3      -8.892  14.816  67.286  1.00  0.00    -0.182 OA 
HETATM   34  H   UNL     3     -11.870  15.139  67.459  1.00  0.00     0.000 HD 
ENDBRANCH  26  29
ENDBRANCH  23  26
ENDBRANCH   3  23
BRANCH   3  35
HETATM   35  C   UNL     3      -9.057   9.820  64.258  1.00  0.00    -0.246 C  
HETATM   36  O   UNL     3     -10.212   9.388  64.917  1.00  0.00    -0.114 OA 
HETATM   37  H   UNL     3     -10.146   8.486  65.210  1.00  0.00     0.000 HD 
ENDBRANCH   3  35
TORSDOF 8
ENDMDL
MODEL      168
REMARK 921   NORMALIZED FREE ENERGY PREDICTED BY IDOCK:   -4.52 KCAL/MOL
REMARK 922        TOTAL FREE ENERGY PREDICTED BY IDOCK:   -8.31 KCAL/MOL
REMARK 923 INTER-LIGAND FREE ENERGY PREDICTED BY IDOCK:   -6.95 KCAL/MOL
REMARK 924 INTRA-LIGAND FREE ENERGY PREDICTED BY IDOCK:   -1.36 KCAL/MOL
REMARK 927      BINDING AFFINITY PREDICTED BY RF-SCORE:    0.00 PKD
ROOT
HETATM    1 MN   UNL     1      -8.286  13.331  66.004  1.00  0.00    -0.375 Mn 
HETATM    2  C   UNL     2      -6.948   7.211  70.565  1.00  0.00    -0.058 C  
HETATM    3  C   UNL     3     -10.052  15.222  65.958  1.00  0.00    -0.318 C  
HETATM    4  H   UNL     3     -10.700  16.783  65.003  1.00  0.00     0.000 HD 
HETATM    5  H   UNL     2      -7.515   7.552  68.770  1.00  0.00     0.000 HD 
HETATM    6  O   UNL     2      -7.250   6.776  69.249  1.00  0.00    -0.084 OA 
HETATM    7  O   UNL     3     -11.089  16.069  65.495  1.00  0.00    -0.227 OA 
ENDROOT
BRANCH   2   8
HETATM    8  C   UNL     2      -6.517   5.951  71.343  1.00  0.00    -0.049 C  
HETATM    9  H   UNL     2      -7.250   4.182  71.849  1.00  0.00     0.000 HD 
HETATM   10  O   UNL     2      -7.516   4.959  71.370  1.00  0.00    -0.073 OA 
ENDBRANCH   2   8
BRANCH   2  11
HETATM   11  C   UNL     2      -8.204   7.970  71.149  1.00  0.00    -0.106 C  
HETATM   12  H   UNL     2      -8.644   9.772  71.827  1.00  0.00     0.000 HD 
HETATM   13  O   UNL     2      -7.889   9.315  71.476  1.00  0.00    -0.336 OA 
BRANCH  11  14
HETATM   14  C   UNL     2      -9.470   8.007  70.231  1.00  0.00    -0.167 C  
HETATM   15  H   UNL     2     -10.094   9.116  68.790  1.00  0.00     0.000 HD 
HETATM   16  O   UNL     2      -9.326   9.093  69.348  1.00  0.00    -0.153 OA 
BRANCH  14  17
HETATM   17  C   UNL     2     -10.823   8.159  70.966  1.00  0.00    -0.235 C  
HETATM   18  C   UNL     2     -11.788   7.048  70.590  1.00  0.00    -0.330 C  
HETATM   19  H   UNL     2     -12.231   9.488  71.078  1.00  0.00     0.000 HD 
HETATM   20  O   UNL     2     -11.400   9.394  70.627  1.00  0.00    -0.263 OA 
HETATM   21  O   UNL     2     -13.001   6.993  71.164  1.00  0.00    -0.360 OA 
HETATM   22  O   UNL     2     -11.458   6.145  69.822  1.00  0.00    -0.433 OA 
ENDBRANCH  14  17
ENDBRANCH  11  14
ENDBRANCH   2  11
BRANCH   3  23
HETATM   23  C   UNL     3      -9.022  16.176  66.686  1.00  0.00    -0.255 C  
HETATM   24  O   UNL     3      -8.410  16.899  65.644  1.00  0.00    -0.379 OA 
HETATM   25  H   UNL     3      -7.791  17.472  66.081  1.00  0.00     0.000 HD 
BRANCH  23  26
HETATM   26  C   UNL     3      -9.250  17.229  67.863  1.00  0.00    -0.247 C  
HETATM   27  O   UNL     3     -10.638  17.458  67.856  1.00  0.00    -0.367 OA 
HETATM   28  H   UNL     3     -10.774  18.085  68.556  1.00  0.00     0.000 HD 
BRANCH  26  29
HETATM   29  C   UNL     3      -8.621  18.702  67.968  1.00  0.00    -0.299 C  
HETATM   30  C   UNL     3      -9.140  19.817  67.103  1.00  0.00    -0.330 C  
HETATM   31  O   UNL     3      -7.228  18.682  67.738  1.00  0.00    -0.223 OA 
HETATM   32  O   UNL     3      -8.985  19.770  65.768  1.00  0.00    -0.371 OA 
HETATM   33  O   UNL     3      -9.562  20.839  67.621  1.00  0.00    -0.362 OA 
HETATM   34  H   UNL     3      -6.856  19.554  67.800  1.00  0.00     0.000 HD 
ENDBRANCH  26  29
ENDBRANCH  23  26
ENDBRANCH   3  23
BRANCH   3  35
HETATM   35  C   UNL     3     -10.695  14.044  66.769  1.00  0.00    -0.285 C  
HETATM   36  O   UNL     3     -10.646  12.832  66.077  1.00  0.00    -0.262 OA 
HETATM   37  H   UNL     3     -11.036  12.118  66.568  1.00  0.00     0.000 HD 
ENDBRANCH   3  35
TORSDOF 8
ENDMDL
MODEL      169
REMARK 921   NORMALIZED FREE ENERGY PREDICTED BY IDOCK:   -4.51 KCAL/MOL
REMARK 922        TOTAL FREE ENERGY PREDICTED BY IDOCK:   -8.30 KCAL/MOL
REMARK 923 INTER-LIGAND FREE ENERGY PREDICTED BY IDOCK:   -6.99 KCAL/MOL
REMARK 924 INTRA-LIGAND FREE ENERGY PREDICTED BY IDOCK:   -1.31 KCAL/MOL
REMARK 927      BINDING AFFINITY PREDICTED BY RF-SCORE:    0.00 PKD
ROOT
HETATM    1 MN   UNL     1     -13.246  13.073  69.906  1.00  0.00     0.026 Mn 
HETATM    2  C   UNL     2     -10.232   5.952  69.398  1.00  0.00    -0.221 C  
HETATM    3  C   UNL     3     -13.228  14.939  71.699  1.00  0.00    -0.359 C  
HETATM    4  H   UNL     3     -13.875  16.706  72.175  1.00  0.00     0.000 HD 
HETATM    5  H   UNL     2     -11.960   6.760  69.539  1.00  0.00     0.000 HD 
HETATM    6  O   UNL     2     -11.648   5.881  69.358  1.00  0.00    -0.119 OA 
HETATM    7  O   UNL     3     -13.693  15.895  72.636  1.00  0.00    -0.532 OA 
ENDROOT
BRANCH   2   8
HETATM    8  C   UNL     2      -9.724   4.526  69.104  1.00  0.00    -0.179 C  
HETATM    9  H   UNL     2      -9.669   3.239  67.600  1.00  0.00     0.000 HD 
HETATM   10  O   UNL     2      -9.982   4.117  67.781  1.00  0.00    -0.104 OA 
ENDBRANCH   2   8
BRANCH   2  11
HETATM   11  C   UNL     2      -9.792   6.553  70.792  1.00  0.00    -0.184 C  
HETATM   12  H   UNL     2      -8.465   6.167  72.202  1.00  0.00     0.000 HD 
HETATM   13  O   UNL     2      -8.730   5.806  71.364  1.00  0.00    -0.131 OA 
BRANCH  11  14
HETATM   14  C   UNL     2      -9.344   8.051  70.781  1.00  0.00    -0.157 C  
HETATM   15  H   UNL     2      -8.855   9.333  69.434  1.00  0.00     0.000 HD 
HETATM   16  O   UNL     2      -9.127   8.423  69.441  1.00  0.00    -0.151 OA 
BRANCH  14  17
HETATM   17  C   UNL     2      -8.060   8.369  71.584  1.00  0.00    -0.144 C  
HETATM   18  C   UNL     2      -8.347   8.476  73.071  1.00  0.00    -0.032 C  
HETATM   19  H   UNL     2      -6.734   9.783  71.630  1.00  0.00     0.000 HD 
HETATM   20  O   UNL     2      -7.522   9.587  71.137  1.00  0.00    -0.324 OA 
HETATM   21  O   UNL     2      -7.341   8.706  73.932  1.00  0.00    -0.356 OA 
HETATM   22  O   UNL     2      -9.475   8.282  73.522  1.00  0.00    -0.188 OA 
ENDBRANCH  14  17
ENDBRANCH  11  14
ENDBRANCH   2  11
BRANCH   3  23
HETATM   23  C   UNL     3     -12.053  15.652  70.917  1.00  0.00    -0.407 C  
HETATM   24  O   UNL     3     -10.906  14.898  71.235  1.00  0.00    -0.552 OA 
HETATM   25  H   UNL     3     -10.200  15.327  70.766  1.00  0.00     0.000 HD 
BRANCH  23  26
HETATM   26  C   UNL     3     -11.916  16.008  69.367  1.00  0.00    -0.178 C  
HETATM   27  O   UNL     3     -12.531  14.927  68.710  1.00  0.00    -0.584 OA 
HETATM   28  H   UNL     3     -12.450  15.139  67.788  1.00  0.00     0.000 HD 
BRANCH  26  29
HETATM   29  C   UNL     3     -10.551  16.225  68.549  1.00  0.00    -0.294 C  
HETATM   30  C   UNL     3      -9.958  15.102  67.745  1.00  0.00    -0.225 C  
HETATM   31  O   UNL     3      -9.508  16.655  69.398  1.00  0.00    -0.173 OA 
HETATM   32  O   UNL     3      -9.497  13.996  68.357  1.00  0.00    -0.209 OA 
HETATM   33  O   UNL     3      -9.749  15.257  66.552  1.00  0.00    -0.240 OA 
HETATM   34  H   UNL     3      -8.701  16.783  68.914  1.00  0.00     0.000 HD 
ENDBRANCH  26  29
ENDBRANCH  23  26
ENDBRANCH   3  23
BRANCH   3  35
HETATM   35  C   UNL     3     -12.927  13.601  72.459  1.00  0.00    -0.298 C  
HETATM   36  O   UNL     3     -14.060  12.793  72.583  1.00  0.00    -0.679 OA 
HETATM   37  H   UNL     3     -13.878  11.982  73.043  1.00  0.00     0.000 HD 
ENDBRANCH   3  35
TORSDOF 8
ENDMDL
MODEL      170
REMARK 921   NORMALIZED FREE ENERGY PREDICTED BY IDOCK:   -4.51 KCAL/MOL
REMARK 922        TOTAL FREE ENERGY PREDICTED BY IDOCK:   -8.30 KCAL/MOL
REMARK 923 INTER-LIGAND FREE ENERGY PREDICTED BY IDOCK:   -5.66 KCAL/MOL
REMARK 924 INTRA-LIGAND FREE ENERGY PREDICTED BY IDOCK:   -2.64 KCAL/MOL
REMARK 927      BINDING AFFINITY PREDICTED BY RF-SCORE:    0.00 PKD
ROOT
HETATM    1 MN   UNL     1      -9.142  16.099  69.487  1.00  0.00    -0.203 Mn 
HETATM    2  C   UNL     2      -7.991   8.498  68.506  1.00  0.00    -0.117 C  
HETATM    3  C   UNL     3      -8.047  18.247  68.548  1.00  0.00    -0.314 C  
HETATM    4  H   UNL     3      -8.025  20.187  68.604  1.00  0.00     0.000 HD 
HETATM    5  H   UNL     2      -7.784   9.803  69.890  1.00  0.00     0.000 HD 
HETATM    6  O   UNL     2      -7.741   8.854  69.856  1.00  0.00    -0.068 OA 
HETATM    7  O   UNL     3      -7.379  19.497  68.505  1.00  0.00    -0.307 OA 
ENDROOT
BRANCH   2   8
HETATM    8  C   UNL     2      -7.921   6.959  68.450  1.00  0.00    -0.122 C  
HETATM    9  H   UNL     2      -6.702   5.497  68.996  1.00  0.00     0.000 HD 
HETATM   10  O   UNL     2      -6.745   6.445  69.030  1.00  0.00    -0.049 OA 
ENDBRANCH   2   8
BRANCH   2  11
HETATM   11  C   UNL     2      -6.958   9.256  67.582  1.00  0.00    -0.078 C  
HETATM   12  H   UNL     2      -6.271   9.125  65.735  1.00  0.00     0.000 HD 
HETATM   13  O   UNL     2      -6.892   8.669  66.291  1.00  0.00    -0.068 OA 
BRANCH  11  14
HETATM   14  C   UNL     2      -7.216  10.785  67.375  1.00  0.00    -0.093 C  
HETATM   15  H   UNL     2      -7.975  11.879  65.988  1.00  0.00     0.000 HD 
HETATM   16  O   UNL     2      -7.818  10.950  66.114  1.00  0.00    -0.157 OA 
BRANCH  14  17
HETATM   17  C   UNL     2      -5.961  11.688  67.433  1.00  0.00    -0.096 C  
HETATM   18  C   UNL     2      -6.320  13.118  67.796  1.00  0.00    -0.156 C  
HETATM   19  H   UNL     2      -4.557  12.238  66.214  1.00  0.00     0.000 HD 
HETATM   20  O   UNL     2      -5.328  11.684  66.179  1.00  0.00    -0.304 OA 
HETATM   21  O   UNL     2      -5.350  14.037  67.934  1.00  0.00    -0.163 OA 
HETATM   22  O   UNL     2      -7.481  13.444  68.043  1.00  0.00    -0.109 OA 
ENDBRANCH  14  17
ENDBRANCH  11  14
ENDBRANCH   2  11
BRANCH   3  23
HETATM   23  C   UNL     3      -9.215  18.356  67.488  1.00  0.00    -0.272 C  
HETATM   24  O   UNL     3      -8.562  18.376  66.240  1.00  0.00    -0.390 OA 
HETATM   25  H   UNL     3      -9.264  18.442  65.604  1.00  0.00     0.000 HD 
BRANCH  23  26
HETATM   26  C   UNL     3     -10.506  17.440  67.282  1.00  0.00    -0.321 C  
HETATM   27  O   UNL     3     -11.023  17.278  68.579  1.00  0.00    -0.290 OA 
HETATM   28  H   UNL     3     -11.791  16.732  68.457  1.00  0.00     0.000 HD 
BRANCH  26  29
HETATM   29  C   UNL     3     -10.542  15.957  66.668  1.00  0.00    -0.305 C  
HETATM   30  C   UNL     3     -11.318  14.867  67.352  1.00  0.00    -0.347 C  
HETATM   31  O   UNL     3      -9.239  15.435  66.514  1.00  0.00    -0.246 OA 
HETATM   32  O   UNL     3     -10.947  14.429  68.569  1.00  0.00    -0.235 OA 
HETATM   33  O   UNL     3     -12.189  14.269  66.741  1.00  0.00    -0.441 OA 
HETATM   34  H   UNL     3      -9.261  14.558  66.151  1.00  0.00     0.000 HD 
ENDBRANCH  26  29
ENDBRANCH  23  26
ENDBRANCH   3  23
BRANCH   3  35
HETATM   35  C   UNL     3      -6.983  17.107  68.384  1.00  0.00    -0.195 C  
HETATM   36  O   UNL     3      -6.845  16.337  69.542  1.00  0.00    -0.210 OA 
HETATM   37  H   UNL     3      -6.200  15.646  69.443  1.00  0.00     0.000 HD 
ENDBRANCH   3  35
TORSDOF 8
ENDMDL
MODEL      171
REMARK 921   NORMALIZED FREE ENERGY PREDICTED BY IDOCK:   -4.51 KCAL/MOL
REMARK 922        TOTAL FREE ENERGY PREDICTED BY IDOCK:   -8.30 KCAL/MOL
REMARK 923 INTER-LIGAND FREE ENERGY PREDICTED BY IDOCK:   -6.69 KCAL/MOL
REMARK 924 INTRA-LIGAND FREE ENERGY PREDICTED BY IDOCK:   -1.61 KCAL/MOL
REMARK 927      BINDING AFFINITY PREDICTED BY RF-SCORE:    0.00 PKD
ROOT
HETATM    1 MN   UNL     1      -7.519  13.875  70.118  1.00  0.00    -0.342 Mn 
HETATM    2  C   UNL     2     -11.196   7.249  71.742  1.00  0.00    -0.247 C  
HETATM    3  C   UNL     3      -6.265  14.808  68.056  1.00  0.00    -0.155 C  
HETATM    4  H   UNL     3      -5.234  16.292  67.347  1.00  0.00     0.000 HD 
HETATM    5  H   UNL     2      -9.607   8.166  72.286  1.00  0.00     0.000 HD 
HETATM    6  O   UNL     2     -10.080   7.406  72.604  1.00  0.00    -0.182 OA 
HETATM    7  O   UNL     3      -5.227  15.346  67.256  1.00  0.00    -0.335 OA 
ENDROOT
BRANCH   2   8
HETATM    8  C   UNL     2     -11.964   6.016  72.259  1.00  0.00    -0.204 C  
HETATM    9  H   UNL     2     -11.732   4.553  73.574  1.00  0.00     0.000 HD 
HETATM   10  O   UNL     2     -11.259   5.313  73.256  1.00  0.00    -0.305 OA 
ENDBRANCH   2   8
BRANCH   2  11
HETATM   11  C   UNL     2     -10.678   7.150  70.253  1.00  0.00    -0.238 C  
HETATM   12  H   UNL     2     -11.288   6.387  68.537  1.00  0.00     0.000 HD 
HETATM   13  O   UNL     2     -11.599   6.447  69.433  1.00  0.00    -0.382 OA 
BRANCH  11  14
HETATM   14  C   UNL     2     -10.376   8.509  69.541  1.00  0.00    -0.218 C  
HETATM   15  H   UNL     2     -11.068  10.299  69.639  1.00  0.00     0.000 HD 
HETATM   16  O   UNL     2     -11.252   9.474  70.072  1.00  0.00    -0.239 OA 
BRANCH  14  17
HETATM   17  C   UNL     2     -10.536   8.506  68.002  1.00  0.00    -0.191 C  
HETATM   18  C   UNL     2      -9.203   8.295  67.305  1.00  0.00    -0.138 C  
HETATM   19  H   UNL     2     -11.173   9.733  66.644  1.00  0.00     0.000 HD 
HETATM   20  O   UNL     2     -11.074   9.735  67.588  1.00  0.00    -0.244 OA 
HETATM   21  O   UNL     2      -9.154   8.221  65.964  1.00  0.00    -0.179 OA 
HETATM   22  O   UNL     2      -8.167   8.114  67.943  1.00  0.00    -0.125 OA 
ENDBRANCH  14  17
ENDBRANCH  11  14
ENDBRANCH   2  11
BRANCH   3  23
HETATM   23  C   UNL     3      -7.569  15.603  67.647  1.00  0.00    -0.158 C  
HETATM   24  O   UNL     3      -8.048  14.934  66.503  1.00  0.00    -0.335 OA 
HETATM   25  H   UNL     3      -8.831  15.412  66.257  1.00  0.00     0.000 HD 
BRANCH  23  26
HETATM   26  C   UNL     3      -8.865  15.966  68.506  1.00  0.00    -0.195 C  
HETATM   27  O   UNL     3      -9.267  14.736  69.057  1.00  0.00    -0.243 OA 
HETATM   28  H   UNL     3     -10.038  14.951  69.568  1.00  0.00     0.000 HD 
BRANCH  26  29
HETATM   29  C   UNL     3     -10.232  16.604  67.957  1.00  0.00    -0.280 C  
HETATM   30  C   UNL     3     -10.331  18.079  67.688  1.00  0.00    -0.388 C  
HETATM   31  O   UNL     3     -11.312  16.318  68.819  1.00  0.00    -0.350 OA 
HETATM   32  O   UNL     3     -10.243  18.962  68.699  1.00  0.00    -0.381 OA 
HETATM   33  O   UNL     3     -10.648  18.472  66.576  1.00  0.00    -0.392 OA 
HETATM   34  H   UNL     3     -12.121  16.696  68.494  1.00  0.00     0.000 HD 
ENDBRANCH  26  29
ENDBRANCH  23  26
ENDBRANCH   3  23
BRANCH   3  35
HETATM   35  C   UNL     3      -6.252  13.247  67.905  1.00  0.00    -0.144 C  
HETATM   36  O   UNL     3      -7.522  12.686  68.065  1.00  0.00    -0.097 OA 
HETATM   37  H   UNL     3      -7.514  11.741  67.973  1.00  0.00     0.000 HD 
ENDBRANCH   3  35
TORSDOF 8
ENDMDL
MODEL      172
REMARK 921   NORMALIZED FREE ENERGY PREDICTED BY IDOCK:   -4.51 KCAL/MOL
REMARK 922        TOTAL FREE ENERGY PREDICTED BY IDOCK:   -8.29 KCAL/MOL
REMARK 923 INTER-LIGAND FREE ENERGY PREDICTED BY IDOCK:   -6.66 KCAL/MOL
REMARK 924 INTRA-LIGAND FREE ENERGY PREDICTED BY IDOCK:   -1.63 KCAL/MOL
REMARK 927      BINDING AFFINITY PREDICTED BY RF-SCORE:    0.00 PKD
ROOT
HETATM    1 MN   UNL     1     -12.177  11.485  66.356  1.00  0.00    -0.247 Mn 
HETATM    2  C   UNL     2      -9.280   4.491  64.698  1.00  0.00    -0.145 C  
HETATM    3  C   UNL     3     -11.836  13.196  68.267  1.00  0.00    -0.349 C  
HETATM    4  H   UNL     3     -12.391  14.904  69.003  1.00  0.00     0.000 HD 
HETATM    5  H   UNL     2     -10.956   5.250  65.222  1.00  0.00     0.000 HD 
HETATM    6  O   UNL     2     -10.679   4.396  64.913  1.00  0.00    -0.210 OA 
HETATM    7  O   UNL     3     -12.124  14.061  69.352  1.00  0.00    -0.324 OA 
ENDROOT
BRANCH   2   8
HETATM    8  C   UNL     2      -8.830   3.105  64.196  1.00  0.00    -0.097 C  
HETATM    9  H   UNL     2      -9.080   1.194  64.656  1.00  0.00     0.000 HD 
HETATM   10  O   UNL     2      -9.357   2.049  64.965  1.00  0.00    -0.131 OA 
ENDBRANCH   2   8
BRANCH   2  11
HETATM   11  C   UNL     2      -8.594   4.983  66.034  1.00  0.00    -0.121 C  
HETATM   12  H   UNL     2      -6.933   4.633  67.044  1.00  0.00     0.000 HD 
HETATM   13  O   UNL     2      -7.347   4.338  66.241  1.00  0.00    -0.077 OA 
BRANCH  11  14
HETATM   14  C   UNL     2      -8.337   6.521  66.146  1.00  0.00    -0.129 C  
HETATM   15  H   UNL     2      -9.424   8.082  66.428  1.00  0.00     0.000 HD 
HETATM   16  O   UNL     2      -9.579   7.147  66.360  1.00  0.00    -0.168 OA 
BRANCH  14  17
HETATM   17  C   UNL     2      -7.671   7.179  64.914  1.00  0.00    -0.117 C  
HETATM   18  C   UNL     2      -6.220   7.533  65.190  1.00  0.00    -0.038 C  
HETATM   19  H   UNL     2      -7.959   8.755  63.823  1.00  0.00     0.000 HD 
HETATM   20  O   UNL     2      -8.368   8.351  64.579  1.00  0.00    -0.166 OA 
HETATM   21  O   UNL     2      -5.467   8.075  64.218  1.00  0.00    -0.043 OA 
HETATM   22  O   UNL     2      -5.688   7.265  66.267  1.00  0.00    -0.030 OA 
ENDBRANCH  14  17
ENDBRANCH  11  14
ENDBRANCH   2  11
BRANCH   3  23
HETATM   23  C   UNL     3     -10.827  13.994  67.347  1.00  0.00    -0.282 C  
HETATM   24  O   UNL     3     -11.301  13.785  66.037  1.00  0.00    -0.307 OA 
HETATM   25  H   UNL     3     -10.695  14.265  65.484  1.00  0.00     0.000 HD 
BRANCH  23  26
HETATM   26  C   UNL     3     -10.376  15.524  67.401  1.00  0.00    -0.266 C  
HETATM   27  O   UNL     3     -11.526  16.207  67.838  1.00  0.00    -0.248 OA 
HETATM   28  H   UNL     3     -11.258  17.117  67.870  1.00  0.00     0.000 HD 
BRANCH  26  29
HETATM   29  C   UNL     3      -9.848  16.413  66.173  1.00  0.00    -0.338 C  
HETATM   30  C   UNL     3      -9.590  17.883  66.351  1.00  0.00    -0.286 C  
HETATM   31  O   UNL     3     -10.721  16.328  65.067  1.00  0.00    -0.600 OA 
HETATM   32  O   UNL     3     -10.606  18.725  66.613  1.00  0.00    -0.403 OA 
HETATM   33  O   UNL     3      -8.485  18.338  66.102  1.00  0.00    -0.451 OA 
HETATM   34  H   UNL     3     -10.408  16.854  64.340  1.00  0.00     0.000 HD 
ENDBRANCH  26  29
ENDBRANCH  23  26
ENDBRANCH   3  23
BRANCH   3  35
HETATM   35  C   UNL     3     -11.395  11.806  68.842  1.00  0.00    -0.267 C  
HETATM   36  O   UNL     3     -12.335  10.803  68.590  1.00  0.00    -0.825 OA 
HETATM   37  H   UNL     3     -12.067   9.960  68.939  1.00  0.00     0.000 HD 
ENDBRANCH   3  35
TORSDOF 8
ENDMDL
MODEL      173
REMARK 921   NORMALIZED FREE ENERGY PREDICTED BY IDOCK:   -4.51 KCAL/MOL
REMARK 922        TOTAL FREE ENERGY PREDICTED BY IDOCK:   -8.29 KCAL/MOL
REMARK 923 INTER-LIGAND FREE ENERGY PREDICTED BY IDOCK:   -7.45 KCAL/MOL
REMARK 924 INTRA-LIGAND FREE ENERGY PREDICTED BY IDOCK:   -0.84 KCAL/MOL
REMARK 927      BINDING AFFINITY PREDICTED BY RF-SCORE:    0.00 PKD
ROOT
HETATM    1 MN   UNL     1     -11.026   7.763  68.072  1.00  0.00    -0.213 Mn 
HETATM    2  C   UNL     2     -10.922  15.146  65.719  1.00  0.00    -0.349 C  
HETATM    3  C   UNL     3      -9.701   6.384  69.815  1.00  0.00    -0.154 C  
HETATM    4  H   UNL     3      -9.422   4.625  70.587  1.00  0.00     0.000 HD 
HETATM    5  H   UNL     2     -10.487  13.421  65.015  1.00  0.00     0.000 HD 
HETATM    6  O   UNL     2     -10.570  14.291  64.643  1.00  0.00    -0.421 OA 
HETATM    7  O   UNL     3      -8.878   5.374  70.373  1.00  0.00    -0.125 OA 
ENDROOT
BRANCH   2   8
HETATM    8  C   UNL     2     -11.057  16.558  65.115  1.00  0.00    -0.129 C  
HETATM    9  H   UNL     2     -11.636  17.413  63.425  1.00  0.00     0.000 HD 
HETATM   10  O   UNL     2     -11.553  16.543  63.797  1.00  0.00    -1.109 OA 
ENDBRANCH   2   8
BRANCH   2  11
HETATM   11  C   UNL     2      -9.839  14.998  66.860  1.00  0.00    -0.238 C  
HETATM   12  H   UNL     2      -8.589  13.622  67.526  1.00  0.00     0.000 HD 
HETATM   13  O   UNL     2      -9.241  13.711  66.840  1.00  0.00    -0.237 OA 
BRANCH  11  14
HETATM   14  C   UNL     2      -8.676  16.044  66.840  1.00  0.00    -0.229 C  
HETATM   15  H   UNL     2      -6.769  15.978  66.601  1.00  0.00     0.000 HD 
HETATM   16  O   UNL     2      -7.476  15.343  66.612  1.00  0.00    -0.058 OA 
BRANCH  14  17
HETATM   17  C   UNL     2      -8.509  16.881  68.130  1.00  0.00    -0.217 C  
HETATM   18  C   UNL     2      -8.762  18.356  67.872  1.00  0.00    -0.283 C  
HETATM   19  H   UNL     2      -7.099  17.238  69.412  1.00  0.00     0.000 HD 
HETATM   20  O   UNL     2      -7.202  16.724  68.620  1.00  0.00    -0.183 OA 
HETATM   21  O   UNL     2      -8.704  19.233  68.888  1.00  0.00    -0.362 OA 
HETATM   22  O   UNL     2      -9.096  18.764  66.760  1.00  0.00    -0.291 OA 
ENDBRANCH  14  17
ENDBRANCH  11  14
ENDBRANCH   2  11
BRANCH   3  23
HETATM   23  C   UNL     3     -10.889   6.574  70.841  1.00  0.00    -0.253 C  
HETATM   24  O   UNL     3     -12.034   6.727  70.033  1.00  0.00    -0.636 OA 
HETATM   25  H   UNL     3     -12.747   6.841  70.650  1.00  0.00     0.000 HD 
BRANCH  23  26
HETATM   26  C   UNL     3     -11.348   5.658  72.065  1.00  0.00    -0.176 C  
HETATM   27  O   UNL     3     -12.259   6.461  72.774  1.00  0.00    -0.481 OA 
HETATM   28  H   UNL     3     -12.532   5.917  73.502  1.00  0.00     0.000 HD 
BRANCH  26  29
HETATM   29  C   UNL     3     -10.405   5.048  73.212  1.00  0.00    -0.191 C  
HETATM   30  C   UNL     3     -10.174   3.565  73.301  1.00  0.00    -0.151 C  
HETATM   31  O   UNL     3     -10.853   5.423  74.497  1.00  0.00    -0.401 OA 
HETATM   32  O   UNL     3     -11.190   2.735  73.598  1.00  0.00    -0.214 OA 
HETATM   33  O   UNL     3      -9.035   3.126  73.260  1.00  0.00    -0.085 OA 
HETATM   34  H   UNL     3     -10.295   5.062  75.176  1.00  0.00     0.000 HD 
ENDBRANCH  26  29
ENDBRANCH  23  26
ENDBRANCH   3  23
BRANCH   3  35
HETATM   35  C   UNL     3      -8.803   7.620  69.463  1.00  0.00    -0.139 C  
HETATM   36  O   UNL     3      -8.642   7.786  68.085  1.00  0.00    -0.123 OA 
HETATM   37  H   UNL     3      -8.098   8.535  67.871  1.00  0.00     0.000 HD 
ENDBRANCH   3  35
TORSDOF 8
ENDMDL
MODEL      174
REMARK 921   NORMALIZED FREE ENERGY PREDICTED BY IDOCK:   -4.48 KCAL/MOL
REMARK 922        TOTAL FREE ENERGY PREDICTED BY IDOCK:   -8.26 KCAL/MOL
REMARK 923 INTER-LIGAND FREE ENERGY PREDICTED BY IDOCK:   -6.23 KCAL/MOL
REMARK 924 INTRA-LIGAND FREE ENERGY PREDICTED BY IDOCK:   -2.03 KCAL/MOL
REMARK 927      BINDING AFFINITY PREDICTED BY RF-SCORE:    0.00 PKD
ROOT
HETATM    1 MN   UNL     1      -9.201  17.033  69.435  1.00  0.00    -0.239 Mn 
HETATM    2  C   UNL     2     -10.806   9.458  69.750  1.00  0.00    -0.232 C  
HETATM    3  C   UNL     3      -7.471  18.481  68.167  1.00  0.00    -0.268 C  
HETATM    4  H   UNL     3      -6.774  20.273  67.900  1.00  0.00     0.000 HD 
HETATM    5  H   UNL     2     -10.098  10.812  70.901  1.00  0.00     0.000 HD 
HETATM    6  O   UNL     2     -10.388   9.916  71.025  1.00  0.00    -0.215 OA 
HETATM    7  O   UNL     3      -6.414  19.394  67.927  1.00  0.00    -0.221 OA 
ENDROOT
BRANCH   2   8
HETATM    8  C   UNL     2     -11.278   8.004  69.952  1.00  0.00    -0.038 C  
HETATM    9  H   UNL     2     -12.289   6.931  71.275  1.00  0.00     0.000 HD 
HETATM   10  O   UNL     2     -11.998   7.827  71.150  1.00  0.00    -0.297 OA 
ENDBRANCH   2   8
BRANCH   2  11
HETATM   11  C   UNL     2      -9.616   9.647  68.728  1.00  0.00    -0.152 C  
HETATM   12  H   UNL     2      -8.747   8.619  67.283  1.00  0.00     0.000 HD 
HETATM   13  O   UNL     2      -9.462   8.506  67.898  1.00  0.00    -0.138 OA 
BRANCH  11  14
HETATM   14  C   UNL     2      -9.715  10.889  67.783  1.00  0.00    -0.168 C  
HETATM   15  H   UNL     2      -9.333  11.247  65.933  1.00  0.00     0.000 HD 
HETATM   16  O   UNL     2      -9.273  10.492  66.507  1.00  0.00    -0.157 OA 
BRANCH  14  17
HETATM   17  C   UNL     2      -8.892  12.125  68.216  1.00  0.00    -0.182 C  
HETATM   18  C   UNL     2      -9.790  13.310  68.528  1.00  0.00    -0.168 C  
HETATM   19  H   UNL     2      -7.506  13.242  67.448  1.00  0.00     0.000 HD 
HETATM   20  O   UNL     2      -8.012  12.484  67.182  1.00  0.00    -0.175 OA 
HETATM   21  O   UNL     2      -9.251  14.461  68.963  1.00  0.00    -0.134 OA 
HETATM   22  O   UNL     2     -11.016  13.220  68.465  1.00  0.00    -0.246 OA 
ENDBRANCH  14  17
ENDBRANCH  11  14
ENDBRANCH   2  11
BRANCH   3  23
HETATM   23  C   UNL     3      -8.575  18.820  67.087  1.00  0.00    -0.277 C  
HETATM   24  O   UNL     3      -8.013  19.860  66.321  1.00  0.00    -0.312 OA 
HETATM   25  H   UNL     3      -8.677  20.064  65.672  1.00  0.00     0.000 HD 
BRANCH  23  26
HETATM   26  C   UNL     3      -9.317  17.869  66.041  1.00  0.00    -0.029 C  
HETATM   27  O   UNL     3     -10.446  18.608  65.646  1.00  0.00    -0.603 OA 
HETATM   28  H   UNL     3     -10.888  18.043  65.024  1.00  0.00     0.000 HD 
BRANCH  26  29
HETATM   29  C   UNL     3      -9.902  16.402  66.326  1.00  0.00    -0.314 C  
HETATM   30  C   UNL     3     -10.347  15.524  65.190  1.00  0.00    -0.356 C  
HETATM   31  O   UNL     3     -11.008  16.453  67.202  1.00  0.00    -0.226 OA 
HETATM   32  O   UNL     3     -11.403  15.873  64.434  1.00  0.00    -0.435 OA 
HETATM   33  O   UNL     3      -9.850  14.417  65.050  1.00  0.00    -0.259 OA 
HETATM   34  H   UNL     3     -11.354  15.584  67.370  1.00  0.00     0.000 HD 
ENDBRANCH  26  29
ENDBRANCH  23  26
ENDBRANCH   3  23
BRANCH   3  35
HETATM   35  C   UNL     3      -6.877  17.031  68.212  1.00  0.00    -0.170 C  
HETATM   36  O   UNL     3      -6.783  16.533  69.514  1.00  0.00    -0.220 OA 
HETATM   37  H   UNL     3      -6.423  15.654  69.540  1.00  0.00     0.000 HD 
ENDBRANCH   3  35
TORSDOF 8
ENDMDL
MODEL      175
REMARK 921   NORMALIZED FREE ENERGY PREDICTED BY IDOCK:   -4.48 KCAL/MOL
REMARK 922        TOTAL FREE ENERGY PREDICTED BY IDOCK:   -8.25 KCAL/MOL
REMARK 923 INTER-LIGAND FREE ENERGY PREDICTED BY IDOCK:   -7.97 KCAL/MOL
REMARK 924 INTRA-LIGAND FREE ENERGY PREDICTED BY IDOCK:   -0.28 KCAL/MOL
REMARK 927      BINDING AFFINITY PREDICTED BY RF-SCORE:    0.00 PKD
ROOT
HETATM    1 MN   UNL     1     -10.759  14.905  68.918  1.00  0.00    -0.200 Mn 
HETATM    2  C   UNL     2     -11.128   7.536  71.287  1.00  0.00    -0.246 C  
HETATM    3  C   UNL     3      -9.434  16.171  67.091  1.00  0.00    -0.223 C  
HETATM    4  H   UNL     3      -9.058  17.902  66.297  1.00  0.00     0.000 HD 
HETATM    5  H   UNL     2     -10.506   9.217  71.956  1.00  0.00     0.000 HD 
HETATM    6  O   UNL     2     -10.638   8.356  72.335  1.00  0.00    -0.316 OA 
HETATM    7  O   UNL     3      -8.566  17.110  66.479  1.00  0.00    -0.235 OA 
ENDROOT
BRANCH   2   8
HETATM    8  C   UNL     2     -11.343   6.139  71.903  1.00  0.00    -0.296 C  
HETATM    9  H   UNL     2     -11.062   5.206  73.627  1.00  0.00     0.000 HD 
HETATM   10  O   UNL     2     -10.930   6.066  73.247  1.00  0.00    -0.257 OA 
ENDBRANCH   2   8
BRANCH   2  11
HETATM   11  C   UNL     2     -10.110   7.594  70.079  1.00  0.00    -0.204 C  
HETATM   12  H   UNL     2      -9.795   8.709  68.481  1.00  0.00     0.000 HD 
HETATM   13  O   UNL     2     -10.407   8.673  69.207  1.00  0.00    -0.214 OA 
BRANCH  11  14
HETATM   14  C   UNL     2      -8.599   7.718  70.463  1.00  0.00    -0.132 C  
HETATM   15  H   UNL     2      -7.406   6.814  71.669  1.00  0.00     0.000 HD 
HETATM   16  O   UNL     2      -8.324   6.739  71.436  1.00  0.00    -0.118 OA 
BRANCH  14  17
HETATM   17  C   UNL     2      -8.163   9.092  71.022  1.00  0.00    -0.137 C  
HETATM   18  C   UNL     2      -7.239   9.817  70.059  1.00  0.00    -0.130 C  
HETATM   19  H   UNL     2      -7.222   9.749  72.585  1.00  0.00     0.000 HD 
HETATM   20  O   UNL     2      -7.490   8.906  72.241  1.00  0.00    -0.338 OA 
HETATM   21  O   UNL     2      -6.791  11.048  70.359  1.00  0.00    -0.220 OA 
HETATM   22  O   UNL     2      -6.946   9.334  68.965  1.00  0.00    -0.058 OA 
ENDBRANCH  14  17
ENDBRANCH  11  14
ENDBRANCH   2  11
BRANCH   3  23
HETATM   23  C   UNL     3     -10.697  16.084  66.142  1.00  0.00    -0.244 C  
HETATM   24  O   UNL     3     -10.670  17.284  65.405  1.00  0.00    -0.583 OA 
HETATM   25  H   UNL     3     -11.429  17.231  64.835  1.00  0.00     0.000 HD 
BRANCH  23  26
HETATM   26  C   UNL     3     -11.126  14.951  65.103  1.00  0.00    -0.393 C  
HETATM   27  O   UNL     3     -11.686  15.664  64.028  1.00  0.00    -0.899 OA 
HETATM   28  H   UNL     3     -11.942  14.990  63.410  1.00  0.00     0.000 HD 
BRANCH  26  29
HETATM   29  C   UNL     3     -12.173  13.761  65.359  1.00  0.00    -0.440 C  
HETATM   30  C   UNL     3     -12.304  12.635  64.372  1.00  0.00    -0.446 C  
HETATM   31  O   UNL     3     -13.484  14.259  65.519  1.00  0.00    -0.683 OA 
HETATM   32  O   UNL     3     -12.767  12.868  63.131  1.00  0.00    -0.606 OA 
HETATM   33  O   UNL     3     -12.141  11.483  64.743  1.00  0.00    -0.001 OA 
HETATM   34  H   UNL     3     -14.104  13.555  65.670  1.00  0.00     0.000 HD 
ENDBRANCH  26  29
ENDBRANCH  23  26
ENDBRANCH   3  23
BRANCH   3  35
HETATM   35  C   UNL     3      -8.623  14.863  67.391  1.00  0.00    -0.193 C  
HETATM   36  O   UNL     3      -8.356  14.703  68.753  1.00  0.00    -0.159 OA 
HETATM   37  H   UNL     3      -7.865  13.910  68.935  1.00  0.00     0.000 HD 
ENDBRANCH   3  35
TORSDOF 8
ENDMDL
MODEL      176
REMARK 921   NORMALIZED FREE ENERGY PREDICTED BY IDOCK:   -4.47 KCAL/MOL
REMARK 922        TOTAL FREE ENERGY PREDICTED BY IDOCK:   -8.23 KCAL/MOL
REMARK 923 INTER-LIGAND FREE ENERGY PREDICTED BY IDOCK:   -6.72 KCAL/MOL
REMARK 924 INTRA-LIGAND FREE ENERGY PREDICTED BY IDOCK:   -1.52 KCAL/MOL
REMARK 927      BINDING AFFINITY PREDICTED BY RF-SCORE:    0.00 PKD
ROOT
HETATM    1 MN   UNL     1     -11.614  11.093  68.041  1.00  0.00    -0.206 Mn 
HETATM    2  C   UNL     2      -8.524   4.209  69.808  1.00  0.00    -0.060 C  
HETATM    3  C   UNL     3     -12.081  13.274  69.352  1.00  0.00    -0.248 C  
HETATM    4  H   UNL     3     -12.843  15.058  69.270  1.00  0.00     0.000 HD 
HETATM    5  H   UNL     2     -10.234   4.922  69.331  1.00  0.00     0.000 HD 
HETATM    6  O   UNL     2      -9.879   4.045  69.422  1.00  0.00    -0.185 OA 
HETATM    7  O   UNL     3     -12.783  14.367  69.919  1.00  0.00    -0.263 OA 
ENDROOT
BRANCH   2   8
HETATM    8  C   UNL     2      -7.947   2.787  69.956  1.00  0.00    -0.042 C  
HETATM    9  H   UNL     2      -8.587   0.940  70.278  1.00  0.00     0.000 HD 
HETATM   10  O   UNL     2      -8.942   1.817  70.187  1.00  0.00    -0.064 OA 
ENDBRANCH   2   8
BRANCH   2  11
HETATM   11  C   UNL     2      -8.471   5.100  71.111  1.00  0.00    -0.122 C  
HETATM   12  H   UNL     2      -7.100   5.921  72.271  1.00  0.00     0.000 HD 
HETATM   13  O   UNL     2      -7.132   5.385  71.487  1.00  0.00    -0.063 OA 
BRANCH  11  14
HETATM   14  C   UNL     2      -9.226   6.467  71.038  1.00  0.00    -0.160 C  
HETATM   15  H   UNL     2     -11.065   7.028  71.066  1.00  0.00     0.000 HD 
HETATM   16  O   UNL     2     -10.606   6.198  71.110  1.00  0.00    -0.227 OA 
BRANCH  14  17
HETATM   17  C   UNL     2      -8.965   7.307  69.766  1.00  0.00    -0.142 C  
HETATM   18  C   UNL     2      -8.462   8.698  70.111  1.00  0.00    -0.135 C  
HETATM   19  H   UNL     2      -9.997   7.942  68.252  1.00  0.00     0.000 HD 
HETATM   20  O   UNL     2     -10.157   7.426  69.033  1.00  0.00    -0.182 OA 
HETATM   21  O   UNL     2      -8.140   9.557  69.129  1.00  0.00    -0.094 OA 
HETATM   22  O   UNL     2      -8.268   9.038  71.278  1.00  0.00    -0.224 OA 
ENDBRANCH  14  17
ENDBRANCH  11  14
ENDBRANCH   2  11
BRANCH   3  23
HETATM   23  C   UNL     3     -10.746  13.889  68.767  1.00  0.00    -0.262 C  
HETATM   24  O   UNL     3      -9.892  12.782  68.594  1.00  0.00    -0.361 OA 
HETATM   25  H   UNL     3      -9.090  13.151  68.243  1.00  0.00     0.000 HD 
BRANCH  23  26
HETATM   26  C   UNL     3     -10.515  14.813  67.486  1.00  0.00    -0.245 C  
HETATM   27  O   UNL     3     -11.323  15.940  67.724  1.00  0.00    -0.299 OA 
HETATM   28  H   UNL     3     -11.185  16.490  66.962  1.00  0.00     0.000 HD 
BRANCH  26  29
HETATM   29  C   UNL     3     -10.830  14.433  65.959  1.00  0.00    -0.309 C  
HETATM   30  C   UNL     3     -12.087  13.691  65.601  1.00  0.00    -0.425 C  
HETATM   31  O   UNL     3      -9.784  13.671  65.395  1.00  0.00    -0.518 OA 
HETATM   32  O   UNL     3     -12.277  12.429  66.026  1.00  0.00    -0.636 OA 
HETATM   33  O   UNL     3     -12.866  14.175  64.794  1.00  0.00    -0.677 OA 
HETATM   34  H   UNL     3      -9.971  13.446  64.490  1.00  0.00     0.000 HD 
ENDBRANCH  26  29
ENDBRANCH  23  26
ENDBRANCH   3  23
BRANCH   3  35
HETATM   35  C   UNL     3     -11.982  12.135  70.423  1.00  0.00    -0.272 C  
HETATM   36  O   UNL     3     -12.581  10.947  69.995  1.00  0.00    -0.295 OA 
HETATM   37  H   UNL     3     -12.521  10.256  70.645  1.00  0.00     0.000 HD 
ENDBRANCH   3  35
TORSDOF 8
ENDMDL
MODEL      177
REMARK 921   NORMALIZED FREE ENERGY PREDICTED BY IDOCK:   -4.47 KCAL/MOL
REMARK 922        TOTAL FREE ENERGY PREDICTED BY IDOCK:   -8.23 KCAL/MOL
REMARK 923 INTER-LIGAND FREE ENERGY PREDICTED BY IDOCK:   -6.43 KCAL/MOL
REMARK 924 INTRA-LIGAND FREE ENERGY PREDICTED BY IDOCK:   -1.80 KCAL/MOL
REMARK 927      BINDING AFFINITY PREDICTED BY RF-SCORE:    0.00 PKD
ROOT
HETATM    1 MN   UNL     1     -12.025  12.617  66.577  1.00  0.00    -0.302 Mn 
HETATM    2  C   UNL     2      -9.049   5.530  65.590  1.00  0.00    -0.122 C  
HETATM    3  C   UNL     3     -11.522  14.605  68.156  1.00  0.00    -0.323 C  
HETATM    4  H   UNL     3     -12.056  16.389  68.701  1.00  0.00     0.000 HD 
HETATM    5  H   UNL     2     -10.678   6.316  66.215  1.00  0.00     0.000 HD 
HETATM    6  O   UNL     2     -10.404   5.432  66.000  1.00  0.00    -0.152 OA 
HETATM    7  O   UNL     3     -11.710  15.616  69.131  1.00  0.00    -0.353 OA 
ENDROOT
BRANCH   2   8
HETATM    8  C   UNL     2      -8.604   4.096  65.241  1.00  0.00    -0.119 C  
HETATM    9  H   UNL     2      -9.067   2.656  63.962  1.00  0.00     0.000 HD 
HETATM   10  O   UNL     2      -9.342   3.540  64.177  1.00  0.00    -0.121 OA 
ENDBRANCH   2   8
BRANCH   2  11
HETATM   11  C   UNL     2      -8.222   6.235  66.737  1.00  0.00    -0.110 C  
HETATM   12  H   UNL     2      -6.383   6.195  67.456  1.00  0.00     0.000 HD 
HETATM   13  O   UNL     2      -6.881   5.771  66.766  1.00  0.00    -0.060 OA 
BRANCH  11  14
HETATM   14  C   UNL     2      -8.164   7.797  66.680  1.00  0.00    -0.123 C  
HETATM   15  H   UNL     2      -7.590   9.198  67.864  1.00  0.00     0.000 HD 
HETATM   16  O   UNL     2      -7.625   8.250  67.898  1.00  0.00    -0.098 OA 
BRANCH  14  17
HETATM   17  C   UNL     2      -9.520   8.507  66.457  1.00  0.00    -0.218 C  
HETATM   18  C   UNL     2      -9.329   9.914  65.919  1.00  0.00    -0.192 C  
HETATM   19  H   UNL     2     -11.045   9.016  67.541  1.00  0.00     0.000 HD 
HETATM   20  O   UNL     2     -10.212   8.580  67.677  1.00  0.00    -0.205 OA 
HETATM   21  O   UNL     2     -10.400  10.670  65.624  1.00  0.00    -0.255 OA 
HETATM   22  O   UNL     2      -8.208  10.360  65.671  1.00  0.00    -0.148 OA 
ENDBRANCH  14  17
ENDBRANCH  11  14
ENDBRANCH   2  11
BRANCH   3  23
HETATM   23  C   UNL     3     -10.676  15.281  67.004  1.00  0.00    -0.313 C  
HETATM   24  O   UNL     3     -11.078  14.614  65.830  1.00  0.00    -0.317 OA 
HETATM   25  H   UNL     3     -10.570  15.020  65.138  1.00  0.00     0.000 HD 
BRANCH  23  26
HETATM   26  C   UNL     3     -10.536  16.818  66.597  1.00  0.00    -0.258 C  
HETATM   27  O   UNL     3     -10.171  16.783  65.239  1.00  0.00    -0.607 OA 
HETATM   28  H   UNL     3     -10.087  17.698  64.997  1.00  0.00     0.000 HD 
BRANCH  26  29
HETATM   29  C   UNL     3      -9.527  17.891  67.236  1.00  0.00    -0.263 C  
HETATM   30  C   UNL     3      -8.477  18.551  66.387  1.00  0.00    -0.258 C  
HETATM   31  O   UNL     3      -8.820  17.342  68.328  1.00  0.00    -0.248 OA 
HETATM   32  O   UNL     3      -7.478  17.825  65.855  1.00  0.00    -0.463 OA 
HETATM   33  O   UNL     3      -8.440  19.769  66.308  1.00  0.00    -0.346 OA 
HETATM   34  H   UNL     3      -8.223  17.978  68.705  1.00  0.00     0.000 HD 
ENDBRANCH  26  29
ENDBRANCH  23  26
ENDBRANCH   3  23
BRANCH   3  35
HETATM   35  C   UNL     3     -10.950  13.329  68.864  1.00  0.00    -0.240 C  
HETATM   36  O   UNL     3     -10.047  12.631  68.058  1.00  0.00    -0.215 OA 
HETATM   37  H   UNL     3      -9.700  11.858  68.488  1.00  0.00     0.000 HD 
ENDBRANCH   3  35
TORSDOF 8
ENDMDL
MODEL      178
REMARK 921   NORMALIZED FREE ENERGY PREDICTED BY IDOCK:   -4.44 KCAL/MOL
REMARK 922        TOTAL FREE ENERGY PREDICTED BY IDOCK:   -8.20 KCAL/MOL
REMARK 923 INTER-LIGAND FREE ENERGY PREDICTED BY IDOCK:   -6.61 KCAL/MOL
REMARK 924 INTRA-LIGAND FREE ENERGY PREDICTED BY IDOCK:   -1.59 KCAL/MOL
REMARK 927      BINDING AFFINITY PREDICTED BY RF-SCORE:    0.00 PKD
ROOT
HETATM    1 MN   UNL     1     -11.062  15.389  68.423  1.00  0.00    -0.229 Mn 
HETATM    2  C   UNL     2      -8.299   8.311  69.947  1.00  0.00    -0.125 C  
HETATM    3  C   UNL     3     -10.193  17.444  67.113  1.00  0.00    -0.323 C  
HETATM    4  H   UNL     3     -10.550  19.282  66.600  1.00  0.00     0.000 HD 
HETATM    5  H   UNL     2      -8.687   9.923  70.901  1.00  0.00     0.000 HD 
HETATM    6  O   UNL     2      -8.459   9.037  71.155  1.00  0.00    -0.187 OA 
HETATM    7  O   UNL     3      -9.782  18.771  66.829  1.00  0.00    -0.301 OA 
ENDROOT
BRANCH   2   8
HETATM    8  C   UNL     2      -7.930   6.872  70.360  1.00  0.00    -0.114 C  
HETATM    9  H   UNL     2      -8.428   5.537  71.736  1.00  0.00     0.000 HD 
HETATM   10  O   UNL     2      -8.655   6.423  71.481  1.00  0.00    -0.129 OA 
ENDBRANCH   2   8
BRANCH   2  11
HETATM   11  C   UNL     2      -7.232   9.051  69.048  1.00  0.00    -0.072 C  
HETATM   12  H   UNL     2      -5.908   8.585  67.659  1.00  0.00     0.000 HD 
HETATM   13  O   UNL     2      -6.550   8.140  68.200  1.00  0.00    -0.054 OA 
BRANCH  11  14
HETATM   14  C   UNL     2      -7.781  10.199  68.138  1.00  0.00    -0.088 C  
HETATM   15  H   UNL     2      -8.072  12.089  68.331  1.00  0.00     0.000 HD 
HETATM   16  O   UNL     2      -7.739  11.392  68.883  1.00  0.00    -0.134 OA 
BRANCH  14  17
HETATM   17  C   UNL     2      -9.224  10.005  67.617  1.00  0.00    -0.137 C  
HETATM   18  C   UNL     2      -9.237   9.602  66.153  1.00  0.00    -0.174 C  
HETATM   19  H   UNL     2     -10.823  11.088  67.442  1.00  0.00     0.000 HD 
HETATM   20  O   UNL     2      -9.936  11.207  67.762  1.00  0.00    -0.171 OA 
HETATM   21  O   UNL     2     -10.405   9.348  65.539  1.00  0.00     0.033 OA 
HETATM   22  O   UNL     2      -8.193   9.427  65.526  1.00  0.00    -0.119 OA 
ENDBRANCH  14  17
ENDBRANCH  11  14
ENDBRANCH   2  11
BRANCH   3  23
HETATM   23  C   UNL     3     -11.065  16.997  65.872  1.00  0.00     0.320 C  
HETATM   24  O   UNL     3     -11.134  18.144  65.056  1.00  0.00    -0.650 OA 
HETATM   25  H   UNL     3     -11.658  17.875  64.310  1.00  0.00     0.000 HD 
BRANCH  23  26
HETATM   26  C   UNL     3     -10.875  15.769  64.871  1.00  0.00    -0.413 C  
HETATM   27  O   UNL     3     -11.818  16.005  63.854  1.00  0.00    -1.275 OA 
HETATM   28  H   UNL     3     -11.705  15.273  63.258  1.00  0.00     0.000 HD 
BRANCH  26  29
HETATM   29  C   UNL     3     -11.066  14.212  65.215  1.00  0.00    -0.331 C  
HETATM   30  C   UNL     3     -12.352  13.716  65.816  1.00  0.00    -0.482 C  
HETATM   31  O   UNL     3     -10.056  13.753  66.087  1.00  0.00    -0.291 OA 
HETATM   32  O   UNL     3     -12.721  14.106  67.050  1.00  0.00    -0.060 OA 
HETATM   33  O   UNL     3     -12.984  12.838  65.251  1.00  0.00    -0.690 OA 
HETATM   34  H   UNL     3     -10.170  12.832  66.291  1.00  0.00     0.000 HD 
ENDBRANCH  26  29
ENDBRANCH  23  26
ENDBRANCH   3  23
BRANCH   3  35
HETATM   35  C   UNL     3      -8.927  16.600  67.490  1.00  0.00    -0.200 C  
HETATM   36  O   UNL     3      -7.866  16.805  66.604  1.00  0.00    -0.212 OA 
HETATM   37  H   UNL     3      -7.099  16.294  66.833  1.00  0.00     0.000 HD 
ENDBRANCH   3  35
TORSDOF 8
ENDMDL
MODEL      179
REMARK 921   NORMALIZED FREE ENERGY PREDICTED BY IDOCK:   -4.43 KCAL/MOL
REMARK 922        TOTAL FREE ENERGY PREDICTED BY IDOCK:   -8.18 KCAL/MOL
REMARK 923 INTER-LIGAND FREE ENERGY PREDICTED BY IDOCK:   -7.42 KCAL/MOL
REMARK 924 INTRA-LIGAND FREE ENERGY PREDICTED BY IDOCK:   -0.76 KCAL/MOL
REMARK 927      BINDING AFFINITY PREDICTED BY RF-SCORE:    0.00 PKD
ROOT
HETATM    1 MN   UNL     1      -9.006  14.246  70.054  1.00  0.00    -0.351 Mn 
HETATM    2  C   UNL     2      -8.312   6.795  72.069  1.00  0.00    -0.111 C  
HETATM    3  C   UNL     3     -10.111  15.509  68.084  1.00  0.00    -0.218 C  
HETATM    4  H   UNL     3     -10.416  17.242  67.265  1.00  0.00     0.000 HD 
HETATM    5  H   UNL     2      -7.183   8.220  71.471  1.00  0.00     0.000 HD 
HETATM    6  O   UNL     2      -7.030   7.350  71.822  1.00  0.00    -0.061 OA 
HETATM    7  O   UNL     3     -10.262  16.356  66.958  1.00  0.00    -0.272 OA 
ENDROOT
BRANCH   2   8
HETATM    8  C   UNL     2      -8.064   5.384  72.638  1.00  0.00    -0.106 C  
HETATM    9  H   UNL     2      -7.298   4.539  74.258  1.00  0.00     0.000 HD 
HETATM   10  O   UNL     2      -7.451   5.408  73.906  1.00  0.00    -0.089 OA 
ENDBRANCH   2   8
BRANCH   2  11
HETATM   11  C   UNL     2      -9.154   6.847  70.733  1.00  0.00    -0.154 C  
HETATM   12  H   UNL     2     -10.830   7.668  70.087  1.00  0.00     0.000 HD 
HETATM   13  O   UNL     2     -10.324   7.636  70.890  1.00  0.00    -0.200 OA 
BRANCH  11  14
HETATM   14  C   UNL     2      -8.404   7.389  69.471  1.00  0.00    -0.132 C  
HETATM   15  H   UNL     2      -8.913   8.259  67.835  1.00  0.00     0.000 HD 
HETATM   16  O   UNL     2      -9.368   7.931  68.601  1.00  0.00    -0.146 OA 
BRANCH  14  17
HETATM   17  C   UNL     2      -7.578   6.342  68.686  1.00  0.00    -0.093 C  
HETATM   18  C   UNL     2      -6.861   6.973  67.505  1.00  0.00    -0.073 C  
HETATM   19  H   UNL     2      -7.928   4.693  67.728  1.00  0.00     0.000 HD 
HETATM   20  O   UNL     2      -8.435   5.336  68.210  1.00  0.00    -0.097 OA 
HETATM   21  O   UNL     2      -6.060   6.223  66.730  1.00  0.00    -0.024 OA 
HETATM   22  O   UNL     2      -6.935   8.181  67.280  1.00  0.00    -0.072 OA 
ENDBRANCH  14  17
ENDBRANCH  11  14
ENDBRANCH   2  11
BRANCH   3  23
HETATM   23  C   UNL     3     -11.370  15.791  68.997  1.00  0.00    -0.354 C  
HETATM   24  O   UNL     3     -12.377  14.950  68.482  1.00  0.00    -0.585 OA 
HETATM   25  H   UNL     3     -13.134  15.120  69.031  1.00  0.00     0.000 HD 
BRANCH  23  26
HETATM   26  C   UNL     3     -11.526  15.725  70.584  1.00  0.00    -0.390 C  
HETATM   27  O   UNL     3     -11.143  14.413  70.913  1.00  0.00    -0.491 OA 
HETATM   28  H   UNL     3     -11.235  14.373  71.857  1.00  0.00     0.000 HD 
BRANCH  26  29
HETATM   29  C   UNL     3     -12.874  15.952  71.426  1.00  0.00    -0.296 C  
HETATM   30  C   UNL     3     -13.013  15.383  72.811  1.00  0.00    -0.448 C  
HETATM   31  O   UNL     3     -14.002  15.478  70.723  1.00  0.00    -0.874 OA 
HETATM   32  O   UNL     3     -13.036  14.052  73.000  1.00  0.00    -0.500 OA 
HETATM   33  O   UNL     3     -13.263  16.125  73.748  1.00  0.00    -0.657 OA 
HETATM   34  H   UNL     3     -14.800  15.612  71.222  1.00  0.00     0.000 HD 
ENDBRANCH  26  29
ENDBRANCH  23  26
ENDBRANCH   3  23
BRANCH   3  35
HETATM   35  C   UNL     3      -9.857  14.047  67.577  1.00  0.00    -0.236 C  
HETATM   36  O   UNL     3      -8.823  13.980  66.640  1.00  0.00    -0.394 OA 
HETATM   37  H   UNL     3      -8.669  13.093  66.333  1.00  0.00     0.000 HD 
ENDBRANCH   3  35
TORSDOF 8
ENDMDL
MODEL      180
REMARK 921   NORMALIZED FREE ENERGY PREDICTED BY IDOCK:   -4.43 KCAL/MOL
REMARK 922        TOTAL FREE ENERGY PREDICTED BY IDOCK:   -8.18 KCAL/MOL
REMARK 923 INTER-LIGAND FREE ENERGY PREDICTED BY IDOCK:   -7.32 KCAL/MOL
REMARK 924 INTRA-LIGAND FREE ENERGY PREDICTED BY IDOCK:   -0.86 KCAL/MOL
REMARK 927      BINDING AFFINITY PREDICTED BY RF-SCORE:    0.00 PKD
ROOT
HETATM    1 MN   UNL     1      -8.206  11.283  66.125  1.00  0.00    -0.142 Mn 
HETATM    2  C   UNL     2      -9.977   7.496  72.650  1.00  0.00    -0.207 C  
HETATM    3  C   UNL     3      -8.017  10.628  63.629  1.00  0.00     0.063 C  
HETATM    4  H   UNL     3      -7.570  11.244  61.843  1.00  0.00     0.000 HD 
HETATM    5  H   UNL     2      -8.447   8.326  71.856  1.00  0.00     0.000 HD 
HETATM    6  O   UNL     2      -8.644   7.976  72.717  1.00  0.00    -0.155 OA 
HETATM    7  O   UNL     3      -7.468  10.438  62.336  1.00  0.00    -0.133 OA 
ENDROOT
BRANCH   2   8
HETATM    8  C   UNL     2     -10.297   6.929  74.048  1.00  0.00    -0.320 C  
HETATM    9  H   UNL     2      -9.906   5.319  75.134  1.00  0.00     0.000 HD 
HETATM   10  O   UNL     2      -9.709   5.669  74.273  1.00  0.00    -0.156 OA 
ENDBRANCH   2   8
BRANCH   2  11
HETATM   11  C   UNL     2     -10.084   6.463  71.460  1.00  0.00    -0.192 C  
HETATM   12  H   UNL     2     -11.052   4.790  71.053  1.00  0.00     0.000 HD 
HETATM   13  O   UNL     2     -10.987   5.412  71.769  1.00  0.00    -0.213 OA 
BRANCH  11  14
HETATM   14  C   UNL     2     -10.524   7.051  70.079  1.00  0.00    -0.215 C  
HETATM   15  H   UNL     2     -11.863   6.629  68.765  1.00  0.00     0.000 HD 
HETATM   16  O   UNL     2     -11.595   6.272  69.604  1.00  0.00    -0.430 OA 
BRANCH  14  17
HETATM   17  C   UNL     2      -9.428   7.083  68.988  1.00  0.00    -0.138 C  
HETATM   18  C   UNL     2      -8.603   8.355  69.064  1.00  0.00    -0.131 C  
HETATM   19  H   UNL     2      -9.359   7.029  67.051  1.00  0.00     0.000 HD 
HETATM   20  O   UNL     2     -10.031   7.009  67.721  1.00  0.00    -0.140 OA 
HETATM   21  O   UNL     2      -7.575   8.539  68.219  1.00  0.00    -0.094 OA 
HETATM   22  O   UNL     2      -8.806   9.199  69.937  1.00  0.00    -0.143 OA 
ENDBRANCH  14  17
ENDBRANCH  11  14
ENDBRANCH   2  11
BRANCH   3  23
HETATM   23  C   UNL     3      -9.473  11.197  63.389  1.00  0.00    -0.305 C  
HETATM   24  O   UNL     3     -10.026  10.352  62.406  1.00  0.00    -0.733 OA 
HETATM   25  H   UNL     3     -10.900  10.694  62.262  1.00  0.00     0.000 HD 
BRANCH  23  26
HETATM   26  C   UNL     3     -10.652  11.475  64.428  1.00  0.00    -0.334 C  
HETATM   27  O   UNL     3     -11.819  11.436  63.644  1.00  0.00    -0.520 OA 
HETATM   28  H   UNL     3     -12.520  11.602  64.261  1.00  0.00     0.000 HD 
BRANCH  26  29
HETATM   29  C   UNL     3     -10.844  12.788  65.332  1.00  0.00    -0.286 C  
HETATM   30  C   UNL     3     -12.194  13.136  65.895  1.00  0.00    -0.436 C  
HETATM   31  O   UNL     3     -10.427  13.948  64.645  1.00  0.00    -0.425 OA 
HETATM   32  O   UNL     3     -13.208  13.467  65.076  1.00  0.00    -0.715 OA 
HETATM   33  O   UNL     3     -12.330  13.271  67.101  1.00  0.00    -0.280 OA 
HETATM   34  H   UNL     3     -10.541  14.725  65.180  1.00  0.00     0.000 HD 
ENDBRANCH  26  29
ENDBRANCH  23  26
ENDBRANCH   3  23
BRANCH   3  35
HETATM   35  C   UNL     3      -7.849   9.299  64.442  1.00  0.00    -0.123 C  
HETATM   36  O   UNL     3      -9.061   8.629  64.624  1.00  0.00    -0.417 OA 
HETATM   37  H   UNL     3      -8.959   7.823  65.117  1.00  0.00     0.000 HD 
ENDBRANCH   3  35
TORSDOF 8
ENDMDL
MODEL      181
REMARK 921   NORMALIZED FREE ENERGY PREDICTED BY IDOCK:   -4.42 KCAL/MOL
REMARK 922        TOTAL FREE ENERGY PREDICTED BY IDOCK:   -8.17 KCAL/MOL
REMARK 923 INTER-LIGAND FREE ENERGY PREDICTED BY IDOCK:   -7.54 KCAL/MOL
REMARK 924 INTRA-LIGAND FREE ENERGY PREDICTED BY IDOCK:   -0.63 KCAL/MOL
REMARK 927      BINDING AFFINITY PREDICTED BY RF-SCORE:    0.00 PKD
ROOT
HETATM    1 MN   UNL     1      -8.745  15.297  69.447  1.00  0.00    -0.152 Mn 
HETATM    2  C   UNL     2     -10.860   8.312  72.051  1.00  0.00    -0.301 C  
HETATM    3  C   UNL     3      -8.651  16.426  67.120  1.00  0.00    -0.181 C  
HETATM    4  H   UNL     3      -8.155  18.025  66.136  1.00  0.00     0.000 HD 
HETATM    5  H   UNL     2      -9.255   9.338  71.871  1.00  0.00     0.000 HD 
HETATM    6  O   UNL     2      -9.482   8.526  72.310  1.00  0.00    -0.262 OA 
HETATM    7  O   UNL     3      -8.138  17.088  65.977  1.00  0.00    -0.452 OA 
ENDROOT
BRANCH   2   8
HETATM    8  C   UNL     2     -11.228   6.995  72.763  1.00  0.00    -0.257 C  
HETATM    9  H   UNL     2     -12.603   5.572  72.661  1.00  0.00     0.000 HD 
HETATM   10  O   UNL     2     -12.376   6.384  72.222  1.00  0.00    -0.252 OA 
ENDBRANCH   2   8
BRANCH   2  11
HETATM   11  C   UNL     2     -11.091   8.323  70.488  1.00  0.00    -0.249 C  
HETATM   12  H   UNL     2     -11.637   9.614  69.097  1.00  0.00     0.000 HD 
HETATM   13  O   UNL     2     -11.498   9.606  70.036  1.00  0.00    -0.225 OA 
BRANCH  11  14
HETATM   14  C   UNL     2      -9.868   7.896  69.611  1.00  0.00    -0.179 C  
HETATM   15  H   UNL     2      -8.823   8.709  68.217  1.00  0.00     0.000 HD 
HETATM   16  O   UNL     2      -9.565   8.968  68.750  1.00  0.00    -0.150 OA 
BRANCH  14  17
HETATM   17  C   UNL     2     -10.075   6.628  68.750  1.00  0.00    -0.158 C  
HETATM   18  C   UNL     2     -10.715   6.962  67.414  1.00  0.00    -0.326 C  
HETATM   19  H   UNL     2     -11.034   4.951  68.910  1.00  0.00     0.000 HD 
HETATM   20  O   UNL     2     -10.906   5.729  69.438  1.00  0.00    -0.318 OA 
HETATM   21  O   UNL     2     -10.933   5.989  66.514  1.00  0.00    -0.245 OA 
HETATM   22  O   UNL     2     -10.974   8.123  67.099  1.00  0.00    -0.165 OA 
ENDBRANCH  14  17
ENDBRANCH  11  14
ENDBRANCH   2  11
BRANCH   3  23
HETATM   23  C   UNL     3     -10.038  17.122  67.423  1.00  0.00    -0.301 C  
HETATM   24  O   UNL     3     -10.197  17.004  68.818  1.00  0.00    -0.278 OA 
HETATM   25  H   UNL     3     -11.031  17.422  69.000  1.00  0.00     0.000 HD 
BRANCH  23  26
HETATM   26  C   UNL     3     -10.557  18.586  67.055  1.00  0.00    -0.380 C  
HETATM   27  O   UNL     3     -10.292  18.709  65.679  1.00  0.00    -0.572 OA 
HETATM   28  H   UNL     3     -10.600  19.580  65.459  1.00  0.00     0.000 HD 
BRANCH  26  29
HETATM   29  C   UNL     3     -10.032  19.973  67.669  1.00  0.00    -0.428 C  
HETATM   30  C   UNL     3      -8.558  20.254  67.770  1.00  0.00    -0.206 C  
HETATM   31  O   UNL     3     -10.530  20.175  68.975  1.00  0.00    -0.558 OA 
HETATM   32  O   UNL     3      -7.779  19.518  68.583  1.00  0.00    -0.344 OA 
HETATM   33  O   UNL     3      -8.094  21.248  67.235  1.00  0.00    -0.199 OA 
HETATM   34  H   UNL     3     -10.219  20.996  69.339  1.00  0.00     0.000 HD 
ENDBRANCH  26  29
ENDBRANCH  23  26
ENDBRANCH   3  23
BRANCH   3  35
HETATM   35  C   UNL     3      -8.622  14.881  66.857  1.00  0.00    -0.239 C  
HETATM   36  O   UNL     3      -7.568  14.247  67.518  1.00  0.00    -0.163 OA 
HETATM   37  H   UNL     3      -7.550  13.310  67.358  1.00  0.00     0.000 HD 
ENDBRANCH   3  35
TORSDOF 8
ENDMDL
MODEL      182
REMARK 921   NORMALIZED FREE ENERGY PREDICTED BY IDOCK:   -4.42 KCAL/MOL
REMARK 922        TOTAL FREE ENERGY PREDICTED BY IDOCK:   -8.17 KCAL/MOL
REMARK 923 INTER-LIGAND FREE ENERGY PREDICTED BY IDOCK:   -7.09 KCAL/MOL
REMARK 924 INTRA-LIGAND FREE ENERGY PREDICTED BY IDOCK:   -1.07 KCAL/MOL
REMARK 927      BINDING AFFINITY PREDICTED BY RF-SCORE:    0.00 PKD
ROOT
HETATM    1 MN   UNL     1     -10.262  10.943  67.451  1.00  0.00    -0.170 Mn 
HETATM    2  C   UNL     2      -9.113   4.715  71.918  1.00  0.00    -0.131 C  
HETATM    3  C   UNL     3     -11.393  13.246  67.787  1.00  0.00    -0.295 C  
HETATM    4  H   UNL     3     -11.895  14.920  66.942  1.00  0.00     0.000 HD 
HETATM    5  H   UNL     2     -10.135   5.189  70.371  1.00  0.00     0.000 HD 
HETATM    6  O   UNL     2      -9.935   4.373  70.813  1.00  0.00    -0.204 OA 
HETATM    7  O   UNL     3     -12.270  14.344  67.597  1.00  0.00    -0.328 OA 
ENDROOT
BRANCH   2   8
HETATM    8  C   UNL     2      -8.789   3.390  72.636  1.00  0.00    -0.085 C  
HETATM    9  H   UNL     2      -9.619   1.620  72.955  1.00  0.00     0.000 HD 
HETATM   10  O   UNL     2      -9.819   2.437  72.513  1.00  0.00    -0.115 OA 
ENDBRANCH   2   8
BRANCH   2  11
HETATM   11  C   UNL     2      -9.865   5.794  72.794  1.00  0.00    -0.160 C  
HETATM   12  H   UNL     2      -9.400   7.242  74.053  1.00  0.00     0.000 HD 
HETATM   13  O   UNL     2      -8.948   6.593  73.526  1.00  0.00    -0.123 OA 
BRANCH  11  14
HETATM   14  C   UNL     2     -10.807   6.772  72.018  1.00  0.00    -0.227 C  
HETATM   15  H   UNL     2     -12.590   6.691  71.305  1.00  0.00     0.000 HD 
HETATM   16  O   UNL     2     -12.018   6.097  71.777  1.00  0.00    -0.289 OA 
BRANCH  14  17
HETATM   17  C   UNL     2     -10.263   7.289  70.665  1.00  0.00    -0.195 C  
HETATM   18  C   UNL     2     -10.399   8.797  70.551  1.00  0.00    -0.203 C  
HETATM   19  H   UNL     2     -10.647   7.006  68.786  1.00  0.00     0.000 HD 
HETATM   20  O   UNL     2     -10.980   6.689  69.617  1.00  0.00    -0.260 OA 
HETATM   21  O   UNL     2      -9.940   9.430  69.458  1.00  0.00    -0.174 OA 
HETATM   22  O   UNL     2     -10.855   9.472  71.474  1.00  0.00    -0.355 OA 
ENDBRANCH  14  17
ENDBRANCH  11  14
ENDBRANCH   2  11
BRANCH   3  23
HETATM   23  C   UNL     3      -9.971  13.884  68.056  1.00  0.00    -0.241 C  
HETATM   24  O   UNL     3      -9.235  12.858  68.679  1.00  0.00    -0.377 OA 
HETATM   25  H   UNL     3      -8.381  13.242  68.841  1.00  0.00     0.000 HD 
BRANCH  23  26
HETATM   26  C   UNL     3      -8.955  14.592  67.049  1.00  0.00    -0.240 C  
HETATM   27  O   UNL     3      -7.946  15.105  67.884  1.00  0.00    -0.122 OA 
HETATM   28  H   UNL     3      -7.341  15.527  67.285  1.00  0.00     0.000 HD 
BRANCH  26  29
HETATM   29  C   UNL     3      -9.281  15.807  66.052  1.00  0.00    -0.344 C  
HETATM   30  C   UNL     3      -9.495  17.196  66.587  1.00  0.00    -0.264 C  
HETATM   31  O   UNL     3     -10.427  15.537  65.274  1.00  0.00    -0.370 OA 
HETATM   32  O   UNL     3     -10.551  17.467  67.374  1.00  0.00    -0.349 OA 
HETATM   33  O   UNL     3      -8.800  18.114  66.181  1.00  0.00    -0.460 OA 
HETATM   34  H   UNL     3     -10.620  16.257  64.684  1.00  0.00     0.000 HD 
ENDBRANCH  26  29
ENDBRANCH  23  26
ENDBRANCH   3  23
BRANCH   3  35
HETATM   35  C   UNL     3     -12.011  12.295  68.869  1.00  0.00    -0.248 C  
HETATM   36  O   UNL     3     -12.309  11.029  68.358  1.00  0.00    -0.762 OA 
HETATM   37  H   UNL     3     -12.684  10.452  69.014  1.00  0.00     0.000 HD 
ENDBRANCH   3  35
TORSDOF 8
ENDMDL
MODEL      183
REMARK 921   NORMALIZED FREE ENERGY PREDICTED BY IDOCK:   -4.42 KCAL/MOL
REMARK 922        TOTAL FREE ENERGY PREDICTED BY IDOCK:   -8.16 KCAL/MOL
REMARK 923 INTER-LIGAND FREE ENERGY PREDICTED BY IDOCK:   -6.90 KCAL/MOL
REMARK 924 INTRA-LIGAND FREE ENERGY PREDICTED BY IDOCK:   -1.27 KCAL/MOL
REMARK 927      BINDING AFFINITY PREDICTED BY RF-SCORE:    0.00 PKD
ROOT
HETATM    1 MN   UNL     1      -9.128  13.701  69.453  1.00  0.00    -0.361 Mn 
HETATM    2  C   UNL     2      -7.397   6.879  72.697  1.00  0.00    -0.082 C  
HETATM    3  C   UNL     3      -9.524  14.523  67.032  1.00  0.00    -0.239 C  
HETATM    4  H   UNL     3      -9.891  16.059  65.904  1.00  0.00     0.000 HD 
HETATM    5  H   UNL     2      -6.561   8.579  72.423  1.00  0.00     0.000 HD 
HETATM    6  O   UNL     2      -6.350   7.807  72.935  1.00  0.00    -0.059 OA 
HETATM    7  O   UNL     3      -9.378  15.263  65.832  1.00  0.00    -0.326 OA 
ENDROOT
BRANCH   2   8
HETATM    8  C   UNL     2      -7.055   5.627  73.528  1.00  0.00    -0.086 C  
HETATM    9  H   UNL     2      -7.988   4.138  74.443  1.00  0.00     0.000 HD 
HETATM   10  O   UNL     2      -8.199   4.910  73.931  1.00  0.00    -0.104 OA 
ENDBRANCH   2   8
BRANCH   2  11
HETATM   11  C   UNL     2      -7.522   6.644  71.140  1.00  0.00    -0.084 C  
HETATM   12  H   UNL     2      -6.645   5.554  69.747  1.00  0.00     0.000 HD 
HETATM   13  O   UNL     2      -6.570   5.696  70.683  1.00  0.00    -0.037 OA 
BRANCH  11  14
HETATM   14  C   UNL     2      -8.922   6.170  70.628  1.00  0.00    -0.147 C  
HETATM   15  H   UNL     2      -9.583   5.265  69.066  1.00  0.00     0.000 HD 
HETATM   16  O   UNL     2      -8.733   5.553  69.377  1.00  0.00    -0.106 OA 
BRANCH  14  17
HETATM   17  C   UNL     2      -9.984   7.282  70.462  1.00  0.00    -0.190 C  
HETATM   18  C   UNL     2     -11.349   6.824  70.945  1.00  0.00    -0.315 C  
HETATM   19  H   UNL     2     -10.730   8.320  69.005  1.00  0.00     0.000 HD 
HETATM   20  O   UNL     2     -10.078   7.637  69.107  1.00  0.00    -0.183 OA 
HETATM   21  O   UNL     2     -12.389   7.674  70.918  1.00  0.00    -0.244 OA 
HETATM   22  O   UNL     2     -11.514   5.707  71.436  1.00  0.00    -0.125 OA 
ENDBRANCH  14  17
ENDBRANCH  11  14
ENDBRANCH   2  11
BRANCH   3  23
HETATM   23  C   UNL     3     -11.083  14.406  67.267  1.00  0.00    -0.311 C  
HETATM   24  O   UNL     3     -11.509  15.730  67.492  1.00  0.00    -0.216 OA 
HETATM   25  H   UNL     3     -12.445  15.659  67.634  1.00  0.00     0.000 HD 
BRANCH  23  26
HETATM   26  C   UNL     3     -12.214  13.741  66.358  1.00  0.00    -0.436 C  
HETATM   27  O   UNL     3     -11.978  12.359  66.471  1.00  0.00    -0.564 OA 
HETATM   28  H   UNL     3     -12.650  11.963  65.929  1.00  0.00     0.000 HD 
BRANCH  26  29
HETATM   29  C   UNL     3     -12.433  13.963  64.783  1.00  0.00    -0.354 C  
HETATM   30  C   UNL     3     -11.944  12.943  63.793  1.00  0.00    -0.512 C  
HETATM   31  O   UNL     3     -11.868  15.185  64.356  1.00  0.00    -0.572 OA 
HETATM   32  O   UNL     3     -10.626  12.713  63.648  1.00  0.00    -0.418 OA 
HETATM   33  O   UNL     3     -12.730  12.436  63.009  1.00  0.00    -0.485 OA 
HETATM   34  H   UNL     3     -11.998  15.316  63.423  1.00  0.00     0.000 HD 
ENDBRANCH  26  29
ENDBRANCH  23  26
ENDBRANCH   3  23
BRANCH   3  35
HETATM   35  C   UNL     3      -8.677  13.209  66.914  1.00  0.00    -0.148 C  
HETATM   36  O   UNL     3      -9.474  12.061  66.894  1.00  0.00    -0.193 OA 
HETATM   37  H   UNL     3      -8.960  11.265  66.823  1.00  0.00     0.000 HD 
ENDBRANCH   3  35
TORSDOF 8
ENDMDL
MODEL      184
REMARK 921   NORMALIZED FREE ENERGY PREDICTED BY IDOCK:   -4.41 KCAL/MOL
REMARK 922        TOTAL FREE ENERGY PREDICTED BY IDOCK:   -8.15 KCAL/MOL
REMARK 923 INTER-LIGAND FREE ENERGY PREDICTED BY IDOCK:   -6.36 KCAL/MOL
REMARK 924 INTRA-LIGAND FREE ENERGY PREDICTED BY IDOCK:   -1.79 KCAL/MOL
REMARK 927      BINDING AFFINITY PREDICTED BY RF-SCORE:    0.00 PKD
ROOT
HETATM    1 MN   UNL     1     -11.691  10.609  66.672  1.00  0.00    -0.196 Mn 
HETATM    2  C   UNL     2     -10.283  18.208  66.100  1.00  0.00    -0.367 C  
HETATM    3  C   UNL     3     -10.252   8.519  67.178  1.00  0.00    -0.284 C  
HETATM    4  H   UNL     3     -10.240   6.584  67.334  1.00  0.00     0.000 HD 
HETATM    5  H   UNL     2     -10.779  16.761  64.950  1.00  0.00     0.000 HD 
HETATM    6  O   UNL     2     -10.734  17.705  64.852  1.00  0.00    -0.646 OA 
HETATM    7  O   UNL     3      -9.638   7.250  67.023  1.00  0.00    -0.148 OA 
ENDROOT
BRANCH   2   8
HETATM    8  C   UNL     2     -10.211  19.740  65.942  1.00  0.00    -0.459 C  
HETATM    9  H   UNL     2     -10.365  21.368  67.059  1.00  0.00     0.000 HD 
HETATM   10  O   UNL     2     -10.409  20.424  67.157  1.00  0.00    -0.361 OA 
ENDBRANCH   2   8
BRANCH   2  11
HETATM   11  C   UNL     2      -8.919  17.501  66.468  1.00  0.00    -0.261 C  
HETATM   12  H   UNL     2      -7.293  17.905  67.513  1.00  0.00     0.000 HD 
HETATM   13  O   UNL     2      -8.113  18.331  67.291  1.00  0.00    -0.225 OA 
BRANCH  11  14
HETATM   14  C   UNL     2      -9.037  16.118  67.190  1.00  0.00    -0.203 C  
HETATM   15  H   UNL     2     -10.477  14.963  67.726  1.00  0.00     0.000 HD 
HETATM   16  O   UNL     2     -10.405  15.803  67.288  1.00  0.00    -0.276 OA 
BRANCH  14  17
HETATM   17  C   UNL     2      -8.422  16.051  68.608  1.00  0.00    -0.208 C  
HETATM   18  C   UNL     2      -7.716  14.727  68.845  1.00  0.00    -0.146 C  
HETATM   19  H   UNL     2      -9.064  16.157  70.434  1.00  0.00     0.000 HD 
HETATM   20  O   UNL     2      -9.441  16.198  69.563  1.00  0.00    -0.231 OA 
HETATM   21  O   UNL     2      -7.085  14.505  70.010  1.00  0.00    -0.096 OA 
HETATM   22  O   UNL     2      -7.642  13.873  67.963  1.00  0.00    -0.115 OA 
ENDBRANCH  14  17
ENDBRANCH  11  14
ENDBRANCH   2  11
BRANCH   3  23
HETATM   23  C   UNL     3     -10.736   8.572  68.682  1.00  0.00    -0.041 C  
HETATM   24  O   UNL     3     -11.408   7.350  68.882  1.00  0.00    -0.423 OA 
HETATM   25  H   UNL     3     -11.699   7.383  69.785  1.00  0.00     0.000 HD 
BRANCH  23  26
HETATM   26  C   UNL     3      -9.907   8.830  70.021  1.00  0.00    -0.178 C  
HETATM   27  O   UNL     3      -9.968  10.224  70.200  1.00  0.00    -0.418 OA 
HETATM   28  H   UNL     3      -9.474  10.378  70.997  1.00  0.00     0.000 HD 
BRANCH  26  29
HETATM   29  C   UNL     3      -8.361   8.480  70.275  1.00  0.00    -0.125 C  
HETATM   30  C   UNL     3      -7.349   9.577  70.451  1.00  0.00    -0.141 C  
HETATM   31  O   UNL     3      -7.844   7.670  69.241  1.00  0.00    -0.115 OA 
HETATM   32  O   UNL     3      -7.065  10.410  69.433  1.00  0.00    -0.076 OA 
HETATM   33  O   UNL     3      -6.669   9.617  71.464  1.00  0.00    -0.316 OA 
HETATM   34  H   UNL     3      -6.928   7.462  69.392  1.00  0.00     0.000 HD 
ENDBRANCH  26  29
ENDBRANCH  23  26
ENDBRANCH   3  23
BRANCH   3  35
HETATM   35  C   UNL     3      -9.259   9.618  66.664  1.00  0.00    -0.151 C  
HETATM   36  O   UNL     3      -9.530  10.877  67.208  1.00  0.00    -0.158 OA 
HETATM   37  H   UNL     3      -8.928  11.543  66.897  1.00  0.00     0.000 HD 
ENDBRANCH   3  35
TORSDOF 8
ENDMDL
MODEL      185
REMARK 921   NORMALIZED FREE ENERGY PREDICTED BY IDOCK:   -4.40 KCAL/MOL
REMARK 922        TOTAL FREE ENERGY PREDICTED BY IDOCK:   -8.14 KCAL/MOL
REMARK 923 INTER-LIGAND FREE ENERGY PREDICTED BY IDOCK:   -7.42 KCAL/MOL
REMARK 924 INTRA-LIGAND FREE ENERGY PREDICTED BY IDOCK:   -0.72 KCAL/MOL
REMARK 927      BINDING AFFINITY PREDICTED BY RF-SCORE:    0.00 PKD
ROOT
HETATM    1 MN   UNL     1     -11.009  13.931  66.312  1.00  0.00    -0.282 Mn 
HETATM    2  C   UNL     2      -9.895   6.469  68.080  1.00  0.00    -0.131 C  
HETATM    3  C   UNL     3     -10.705  16.171  67.572  1.00  0.00    -0.304 C  
HETATM    4  H   UNL     3     -10.923  18.098  67.485  1.00  0.00     0.000 HD 
HETATM    5  H   UNL     2     -11.362   7.643  67.719  1.00  0.00     0.000 HD 
HETATM    6  O   UNL     2     -11.269   6.702  67.815  1.00  0.00    -0.274 OA 
HETATM    7  O   UNL     3     -11.008  17.427  68.154  1.00  0.00    -0.334 OA 
ENDROOT
BRANCH   2   8
HETATM    8  C   UNL     2      -9.743   4.942  68.235  1.00  0.00    -0.145 C  
HETATM    9  H   UNL     2      -9.822   3.311  67.114  1.00  0.00     0.000 HD 
HETATM   10  O   UNL     2      -9.915   4.252  67.019  1.00  0.00    -0.206 OA 
ENDBRANCH   2   8
BRANCH   2  11
HETATM   11  C   UNL     2      -9.469   7.322  69.340  1.00  0.00    -0.154 C  
HETATM   12  H   UNL     2      -8.136   8.706  69.791  1.00  0.00     0.000 HD 
HETATM   13  O   UNL     2      -8.392   8.193  69.034  1.00  0.00    -0.125 OA 
BRANCH  11  14
HETATM   14  C   UNL     2     -10.594   8.196  69.987  1.00  0.00    -0.239 C  
HETATM   15  H   UNL     2     -10.714   9.976  70.703  1.00  0.00     0.000 HD 
HETATM   16  O   UNL     2     -10.031   9.445  70.310  1.00  0.00    -0.203 OA 
BRANCH  14  17
HETATM   17  C   UNL     2     -11.240   7.613  71.266  1.00  0.00    -0.254 C  
HETATM   18  C   UNL     2     -10.339   7.794  72.476  1.00  0.00    -0.268 C  
HETATM   19  H   UNL     2     -11.877   5.883  71.867  1.00  0.00     0.000 HD 
HETATM   20  O   UNL     2     -11.480   6.241  71.082  1.00  0.00    -0.310 OA 
HETATM   21  O   UNL     2     -10.754   7.385  73.687  1.00  0.00    -0.371 OA 
HETATM   22  O   UNL     2      -9.260   8.378  72.390  1.00  0.00    -0.232 OA 
ENDBRANCH  14  17
ENDBRANCH  11  14
ENDBRANCH   2  11
BRANCH   3  23
HETATM   23  C   UNL     3      -9.309  16.362  66.856  1.00  0.00    -0.227 C  
HETATM   24  O   UNL     3      -9.631  16.850  65.574  1.00  0.00    -0.519 OA 
HETATM   25  H   UNL     3      -8.792  16.964  65.145  1.00  0.00     0.000 HD 
BRANCH  23  26
HETATM   26  C   UNL     3      -8.021  17.185  67.317  1.00  0.00    -0.179 C  
HETATM   27  O   UNL     3      -8.308  17.560  68.642  1.00  0.00    -0.272 OA 
HETATM   28  H   UNL     3      -7.542  18.050  68.916  1.00  0.00     0.000 HD 
BRANCH  26  29
HETATM   29  C   UNL     3      -7.455  18.532  66.653  1.00  0.00    -0.231 C  
HETATM   30  C   UNL     3      -8.227  19.818  66.759  1.00  0.00    -0.312 C  
HETATM   31  O   UNL     3      -7.219  18.362  65.272  1.00  0.00    -0.504 OA 
HETATM   32  O   UNL     3      -9.425  19.943  66.160  1.00  0.00    -0.394 OA 
HETATM   33  O   UNL     3      -7.700  20.801  67.255  1.00  0.00    -0.348 OA 
HETATM   34  H   UNL     3      -6.885  19.160  64.879  1.00  0.00     0.000 HD 
ENDBRANCH  26  29
ENDBRANCH  23  26
ENDBRANCH   3  23
BRANCH   3  35
HETATM   35  C   UNL     3     -10.844  15.065  68.675  1.00  0.00    -0.249 C  
HETATM   36  O   UNL     3      -9.720  14.993  69.502  1.00  0.00    -0.352 OA 
HETATM   37  H   UNL     3      -9.804  14.323  70.170  1.00  0.00     0.000 HD 
ENDBRANCH   3  35
TORSDOF 8
ENDMDL
MODEL      186
REMARK 921   NORMALIZED FREE ENERGY PREDICTED BY IDOCK:   -4.40 KCAL/MOL
REMARK 922        TOTAL FREE ENERGY PREDICTED BY IDOCK:   -8.13 KCAL/MOL
REMARK 923 INTER-LIGAND FREE ENERGY PREDICTED BY IDOCK:   -6.47 KCAL/MOL
REMARK 924 INTRA-LIGAND FREE ENERGY PREDICTED BY IDOCK:   -1.65 KCAL/MOL
REMARK 927      BINDING AFFINITY PREDICTED BY RF-SCORE:    0.00 PKD
ROOT
HETATM    1 MN   UNL     1      -8.629   8.613  70.205  1.00  0.00    -0.106 Mn 
HETATM    2  C   UNL     2     -10.776  14.391  65.508  1.00  0.00    -0.336 C  
HETATM    3  C   UNL     3      -9.726   7.374  72.195  1.00  0.00    -0.150 C  
HETATM    4  H   UNL     3      -9.489   6.015  73.560  1.00  0.00     0.000 HD 
HETATM    5  H   UNL     2      -9.492  14.084  66.894  1.00  0.00     0.000 HD 
HETATM    6  O   UNL     2      -9.638  14.778  66.262  1.00  0.00    -0.280 OA 
HETATM    7  O   UNL     3      -9.927   6.857  73.499  1.00  0.00    -0.205 OA 
ENDROOT
BRANCH   2   8
HETATM    8  C   UNL     2     -11.011  15.517  64.482  1.00  0.00    -0.206 C  
HETATM    9  H   UNL     2     -10.851  17.487  64.360  1.00  0.00     0.000 HD 
HETATM   10  O   UNL     2     -10.707  16.793  64.993  1.00  0.00    -0.692 OA 
ENDBRANCH   2   8
BRANCH   2  11
HETATM   11  C   UNL     2     -11.974  14.119  66.502  1.00  0.00    -0.442 C  
HETATM   12  H   UNL     2     -13.620  13.030  66.551  1.00  0.00     0.000 HD 
HETATM   13  O   UNL     2     -12.899  13.194  65.953  1.00  0.00    -0.361 OA 
BRANCH  11  14
HETATM   14  C   UNL     2     -11.581  13.588  67.920  1.00  0.00    -0.342 C  
HETATM   15  H   UNL     2     -11.805  11.939  68.883  1.00  0.00     0.000 HD 
HETATM   16  O   UNL     2     -12.043  12.262  68.022  1.00  0.00    -0.439 OA 
BRANCH  14  17
HETATM   17  C   UNL     2     -12.149  14.390  69.114  1.00  0.00    -0.281 C  
HETATM   18  C   UNL     2     -11.095  15.296  69.727  1.00  0.00    -0.282 C  
HETATM   19  H   UNL     2     -12.956  13.991  70.831  1.00  0.00     0.000 HD 
HETATM   20  O   UNL     2     -12.607  13.498  70.098  1.00  0.00    -0.235 OA 
HETATM   21  O   UNL     2     -11.419  16.102  70.751  1.00  0.00    -0.393 OA 
HETATM   22  O   UNL     2      -9.960  15.367  69.258  1.00  0.00    -0.225 OA 
ENDBRANCH  14  17
ENDBRANCH  11  14
ENDBRANCH   2  11
BRANCH   3  23
HETATM   23  C   UNL     3     -10.160   6.216  71.210  1.00  0.00    -0.188 C  
HETATM   24  O   UNL     3      -9.743   6.656  69.938  1.00  0.00    -0.158 OA 
HETATM   25  H   UNL     3     -10.004   5.960  69.347  1.00  0.00     0.000 HD 
BRANCH  23  26
HETATM   26  C   UNL     3      -9.833   4.654  71.251  1.00  0.00    -0.190 C  
HETATM   27  O   UNL     3     -10.354   4.226  72.485  1.00  0.00    -0.177 OA 
HETATM   28  H   UNL     3     -10.159   3.297  72.511  1.00  0.00     0.000 HD 
BRANCH  26  29
HETATM   29  C   UNL     3      -8.378   3.977  71.196  1.00  0.00    -0.072 C  
HETATM   30  C   UNL     3      -7.139   4.826  71.250  1.00  0.00    -0.051 C  
HETATM   31  O   UNL     3      -8.226   3.184  70.038  1.00  0.00    -0.045 OA 
HETATM   32  O   UNL     3      -6.856   5.679  70.250  1.00  0.00    -0.049 OA 
HETATM   33  O   UNL     3      -6.308   4.629  72.122  1.00  0.00    -0.023 OA 
HETATM   34  H   UNL     3      -7.365   2.783  70.005  1.00  0.00     0.000 HD 
ENDBRANCH  26  29
ENDBRANCH  23  26
ENDBRANCH   3  23
BRANCH   3  35
HETATM   35  C   UNL     3     -10.448   8.762  72.093  1.00  0.00    -0.314 C  
HETATM   36  O   UNL     3     -11.012   8.979  70.833  1.00  0.00    -0.233 OA 
HETATM   37  H   UNL     3     -11.450   9.820  70.772  1.00  0.00     0.000 HD 
ENDBRANCH   3  35
TORSDOF 8
ENDMDL
MODEL      187
REMARK 921   NORMALIZED FREE ENERGY PREDICTED BY IDOCK:   -4.36 KCAL/MOL
REMARK 922        TOTAL FREE ENERGY PREDICTED BY IDOCK:   -8.08 KCAL/MOL
REMARK 923 INTER-LIGAND FREE ENERGY PREDICTED BY IDOCK:   -7.60 KCAL/MOL
REMARK 924 INTRA-LIGAND FREE ENERGY PREDICTED BY IDOCK:   -0.48 KCAL/MOL
REMARK 927      BINDING AFFINITY PREDICTED BY RF-SCORE:    0.00 PKD
ROOT
HETATM    1 MN   UNL     1      -9.142  13.929  69.271  1.00  0.00    -0.314 Mn 
HETATM    2  C   UNL     2      -7.881   6.367  68.141  1.00  0.00    -0.105 C  
HETATM    3  C   UNL     3     -10.355  15.794  67.950  1.00  0.00    -0.261 C  
HETATM    4  H   UNL     3     -10.795  17.684  67.889  1.00  0.00     0.000 HD 
HETATM    5  H   UNL     2      -6.866   7.988  68.190  1.00  0.00     0.000 HD 
HETATM    6  O   UNL     2      -6.646   7.064  68.165  1.00  0.00    -0.051 OA 
HETATM    7  O   UNL     3     -10.579  17.010  67.256  1.00  0.00    -0.321 OA 
ENDROOT
BRANCH   2   8
HETATM    8  C   UNL     2      -7.524   4.868  68.102  1.00  0.00    -0.074 C  
HETATM    9  H   UNL     2      -8.046   3.182  69.001  1.00  0.00     0.000 HD 
HETATM   10  O   UNL     2      -8.266   4.106  69.025  1.00  0.00    -0.070 OA 
ENDBRANCH   2   8
BRANCH   2  11
HETATM   11  C   UNL     2      -8.736   6.891  66.920  1.00  0.00    -0.118 C  
HETATM   12  H   UNL     2     -10.292   6.299  65.858  1.00  0.00     0.000 HD 
HETATM   13  O   UNL     2      -9.777   5.984  66.592  1.00  0.00    -0.149 OA 
BRANCH  11  14
HETATM   14  C   UNL     2      -9.395   8.298  67.099  1.00  0.00    -0.151 C  
HETATM   15  H   UNL     2     -11.112   9.073  66.717  1.00  0.00     0.000 HD 
HETATM   16  O   UNL     2     -10.712   8.219  66.608  1.00  0.00    -0.202 OA 
BRANCH  14  17
HETATM   17  C   UNL     2      -8.681   9.466  66.379  1.00  0.00    -0.135 C  
HETATM   18  C   UNL     2      -8.108   9.028  65.043  1.00  0.00    -0.137 C  
HETATM   19  H   UNL     2      -7.195  10.657  66.746  1.00  0.00     0.000 HD 
HETATM   20  O   UNL     2      -7.634   9.940  67.187  1.00  0.00    -0.091 OA 
HETATM   21  O   UNL     2      -7.488   9.923  64.255  1.00  0.00    -0.128 OA 
HETATM   22  O   UNL     2      -8.264   7.882  64.623  1.00  0.00    -0.144 OA 
ENDBRANCH  14  17
ENDBRANCH  11  14
ENDBRANCH   2  11
BRANCH   3  23
HETATM   23  C   UNL     3     -11.624  15.595  68.872  1.00  0.00    -0.383 C  
HETATM   24  O   UNL     3     -12.345  14.549  68.264  1.00  0.00    -0.597 OA 
HETATM   25  H   UNL     3     -13.107  14.430  68.818  1.00  0.00     0.000 HD 
BRANCH  23  26
HETATM   26  C   UNL     3     -11.723  15.327  70.443  1.00  0.00    -0.310 C  
HETATM   27  O   UNL     3     -11.529  13.940  70.568  1.00  0.00    -0.509 OA 
HETATM   28  H   UNL     3     -11.588  13.780  71.502  1.00  0.00     0.000 HD 
BRANCH  26  29
HETATM   29  C   UNL     3     -12.985  15.623  71.390  1.00  0.00    -0.487 C  
HETATM   30  C   UNL     3     -13.116  14.939  72.722  1.00  0.00    -0.462 C  
HETATM   31  O   UNL     3     -14.199  15.356  70.722  1.00  0.00    -0.844 OA 
HETATM   32  O   UNL     3     -13.291  13.607  72.788  1.00  0.00    -0.557 OA 
HETATM   33  O   UNL     3     -13.222  15.609  73.738  1.00  0.00    -0.437 OA 
HETATM   34  H   UNL     3     -14.946  15.531  71.283  1.00  0.00     0.000 HD 
ENDBRANCH  26  29
ENDBRANCH  23  26
ENDBRANCH   3  23
BRANCH   3  35
HETATM   35  C   UNL     3      -9.998  14.682  66.905  1.00  0.00    -0.253 C  
HETATM   36  O   UNL     3     -10.815  14.732  65.773  1.00  0.00    -0.307 OA 
HETATM   37  H   UNL     3     -10.599  14.058  65.139  1.00  0.00     0.000 HD 
ENDBRANCH   3  35
TORSDOF 8
ENDMDL
MODEL      188
REMARK 921   NORMALIZED FREE ENERGY PREDICTED BY IDOCK:   -4.36 KCAL/MOL
REMARK 922        TOTAL FREE ENERGY PREDICTED BY IDOCK:   -8.08 KCAL/MOL
REMARK 923 INTER-LIGAND FREE ENERGY PREDICTED BY IDOCK:   -6.42 KCAL/MOL
REMARK 924 INTRA-LIGAND FREE ENERGY PREDICTED BY IDOCK:   -1.66 KCAL/MOL
REMARK 927      BINDING AFFINITY PREDICTED BY RF-SCORE:    0.00 PKD
ROOT
HETATM    1 MN   UNL     1      -8.201   9.078  67.394  1.00  0.00    -0.099 Mn 
HETATM    2  C   UNL     2      -9.257   3.849  73.015  1.00  0.00    -0.109 C  
HETATM    3  C   UNL     3      -9.577  11.063  66.465  1.00  0.00    -0.195 C  
HETATM    4  H   UNL     3      -9.661  12.461  65.121  1.00  0.00     0.000 HD 
HETATM    5  H   UNL     2      -9.168   3.887  71.104  1.00  0.00     0.000 HD 
HETATM    6  O   UNL     2      -9.181   3.197  71.757  1.00  0.00    -0.098 OA 
HETATM    7  O   UNL     3     -10.283  11.888  65.554  1.00  0.00    -0.237 OA 
ENDROOT
BRANCH   2   8
HETATM    8  C   UNL     2      -9.277   2.730  74.075  1.00  0.00    -0.081 C  
HETATM    9  H   UNL     2     -10.323   1.106  74.516  1.00  0.00     0.000 HD 
HETATM   10  O   UNL     2     -10.310   1.796  73.863  1.00  0.00    -0.089 OA 
ENDBRANCH   2   8
BRANCH   2  11
HETATM   11  C   UNL     2     -10.515   4.805  73.016  1.00  0.00    -0.202 C  
HETATM   12  H   UNL     2     -11.697   5.672  74.339  1.00  0.00     0.000 HD 
HETATM   13  O   UNL     2     -10.941   5.096  74.339  1.00  0.00    -0.256 OA 
BRANCH  11  14
HETATM   14  C   UNL     2     -10.336   6.174  72.281  1.00  0.00    -0.192 C  
HETATM   15  H   UNL     2      -8.846   7.241  71.701  1.00  0.00     0.000 HD 
HETATM   16  O   UNL     2      -8.955   6.409  72.147  1.00  0.00    -0.137 OA 
BRANCH  14  17
HETATM   17  C   UNL     2     -10.968   7.398  72.986  1.00  0.00    -0.374 C  
HETATM   18  C   UNL     2     -12.109   7.980  72.172  1.00  0.00    -0.343 C  
HETATM   19  H   UNL     2     -10.375   9.139  73.599  1.00  0.00     0.000 HD 
HETATM   20  O   UNL     2      -9.988   8.388  73.166  1.00  0.00    -0.181 OA 
HETATM   21  O   UNL     2     -12.807   9.025  72.649  1.00  0.00    -0.381 OA 
HETATM   22  O   UNL     2     -12.466   7.470  71.110  1.00  0.00    -0.319 OA 
ENDBRANCH  14  17
ENDBRANCH  11  14
ENDBRANCH   2  11
BRANCH   3  23
HETATM   23  C   UNL     3      -8.711  12.050  67.345  1.00  0.00    -0.170 C  
HETATM   24  O   UNL     3      -7.552  12.284  66.578  1.00  0.00    -0.374 OA 
HETATM   25  H   UNL     3      -7.032  12.878  67.107  1.00  0.00     0.000 HD 
BRANCH  23  26
HETATM   26  C   UNL     3      -9.093  13.461  67.986  1.00  0.00    -0.205 C  
HETATM   27  O   UNL     3     -10.456  13.334  68.310  1.00  0.00    -0.237 OA 
HETATM   28  H   UNL     3     -10.684  14.173  68.692  1.00  0.00     0.000 HD 
BRANCH  26  29
HETATM   29  C   UNL     3      -9.004  14.896  67.271  1.00  0.00    -0.199 C  
HETATM   30  C   UNL     3      -9.663  16.098  67.888  1.00  0.00    -0.225 C  
HETATM   31  O   UNL     3      -9.505  14.843  65.953  1.00  0.00    -0.383 OA 
HETATM   32  O   UNL     3     -11.002  16.159  67.997  1.00  0.00    -0.331 OA 
HETATM   33  O   UNL     3      -8.995  17.087  68.147  1.00  0.00    -0.215 OA 
HETATM   34  H   UNL     3      -9.452  15.693  65.530  1.00  0.00     0.000 HD 
ENDBRANCH  26  29
ENDBRANCH  23  26
ENDBRANCH   3  23
BRANCH   3  35
HETATM   35  C   UNL     3     -10.603  10.117  67.180  1.00  0.00    -0.246 C  
HETATM   36  O   UNL     3     -11.563  10.824  67.907  1.00  0.00    -0.541 OA 
HETATM   37  H   UNL     3     -12.185  10.251  68.340  1.00  0.00     0.000 HD 
ENDBRANCH   3  35
TORSDOF 8
ENDMDL
MODEL      189
REMARK 921   NORMALIZED FREE ENERGY PREDICTED BY IDOCK:   -4.33 KCAL/MOL
REMARK 922        TOTAL FREE ENERGY PREDICTED BY IDOCK:   -8.04 KCAL/MOL
REMARK 923 INTER-LIGAND FREE ENERGY PREDICTED BY IDOCK:   -6.24 KCAL/MOL
REMARK 924 INTRA-LIGAND FREE ENERGY PREDICTED BY IDOCK:   -1.79 KCAL/MOL
REMARK 927      BINDING AFFINITY PREDICTED BY RF-SCORE:    0.00 PKD
ROOT
HETATM    1 MN   UNL     1      -8.315  16.969  65.722  1.00  0.00    -0.247 Mn 
HETATM    2  C   UNL     2     -10.126   9.603  67.310  1.00  0.00    -0.211 C  
HETATM    3  C   UNL     3      -9.418  19.261  66.193  1.00  0.00    -0.282 C  
HETATM    4  H   UNL     3      -9.302  21.180  65.918  1.00  0.00     0.000 HD 
HETATM    5  H   UNL     2      -9.991  10.737  65.775  1.00  0.00     0.000 HD 
HETATM    6  O   UNL     2     -10.102   9.802  65.906  1.00  0.00    -0.282 OA 
HETATM    7  O   UNL     3      -9.998  20.535  65.970  1.00  0.00    -0.247 OA 
ENDROOT
BRANCH   2   8
HETATM    8  C   UNL     2     -10.306   8.086  67.523  1.00  0.00    -0.261 C  
HETATM    9  H   UNL     2     -10.701   6.464  66.458  1.00  0.00     0.000 HD 
HETATM   10  O   UNL     2     -10.590   7.398  66.327  1.00  0.00     0.176 OA 
ENDBRANCH   2   8
BRANCH   2  11
HETATM   11  C   UNL     2     -11.257  10.513  67.934  1.00  0.00    -0.289 C  
HETATM   12  H   UNL     2     -12.753  10.325  69.209  1.00  0.00     0.000 HD 
HETATM   13  O   UNL     2     -12.073   9.778  68.833  1.00  0.00     0.495 OA 
BRANCH  11  14
HETATM   14  C   UNL     2     -10.768  11.787  68.697  1.00  0.00    -0.220 C  
HETATM   15  H   UNL     2     -11.125  12.590  70.407  1.00  0.00     0.000 HD 
HETATM   16  O   UNL     2     -11.421  11.816  69.943  1.00  0.00    -0.272 OA 
BRANCH  14  17
HETATM   17  C   UNL     2     -11.031  13.134  67.983  1.00  0.00    -0.247 C  
HETATM   18  C   UNL     2      -9.736  13.874  67.695  1.00  0.00    -0.226 C  
HETATM   19  H   UNL     2     -12.004  14.769  68.360  1.00  0.00     0.000 HD 
HETATM   20  O   UNL     2     -11.842  13.942  68.798  1.00  0.00    -0.323 OA 
HETATM   21  O   UNL     2      -9.766  15.046  67.040  1.00  0.00    -0.228 OA 
HETATM   22  O   UNL     2      -8.643  13.387  67.983  1.00  0.00    -0.156 OA 
ENDBRANCH  14  17
ENDBRANCH  11  14
ENDBRANCH   2  11
BRANCH   3  23
HETATM   23  C   UNL     3      -8.457  19.447  67.434  1.00  0.00    -0.296 C  
HETATM   24  O   UNL     3      -9.323  19.650  68.527  1.00  0.00    -0.355 OA 
HETATM   25  H   UNL     3      -8.745  19.762  69.272  1.00  0.00     0.000 HD 
BRANCH  23  26
HETATM   26  C   UNL     3      -7.289  18.506  67.981  1.00  0.00    -0.248 C  
HETATM   27  O   UNL     3      -7.918  17.266  68.192  1.00  0.00    -0.208 OA 
HETATM   28  H   UNL     3      -7.223  16.705  68.518  1.00  0.00     0.000 HD 
BRANCH  26  29
HETATM   29  C   UNL     3      -6.423  18.727  69.315  1.00  0.00    -0.279 C  
HETATM   30  C   UNL     3      -6.181  20.112  69.846  1.00  0.00    -0.345 C  
HETATM   31  O   UNL     3      -5.138  18.156  69.191  1.00  0.00    -0.176 OA 
HETATM   32  O   UNL     3      -5.449  20.993  69.141  1.00  0.00    -0.359 OA 
HETATM   33  O   UNL     3      -6.516  20.389  70.987  1.00  0.00    -0.523 OA 
HETATM   34  H   UNL     3      -4.626  18.287  69.981  1.00  0.00     0.000 HD 
ENDBRANCH  26  29
ENDBRANCH  23  26
ENDBRANCH   3  23
BRANCH   3  35
HETATM   35  C   UNL     3     -10.567  18.199  66.280  1.00  0.00    -0.274 C  
HETATM   36  O   UNL     3     -10.795  17.766  67.589  1.00  0.00    -0.363 OA 
HETATM   37  H   UNL     3     -11.492  17.122  67.641  1.00  0.00     0.000 HD 
ENDBRANCH   3  35
TORSDOF 8
ENDMDL
MODEL      190
REMARK 921   NORMALIZED FREE ENERGY PREDICTED BY IDOCK:   -4.32 KCAL/MOL
REMARK 922        TOTAL FREE ENERGY PREDICTED BY IDOCK:   -8.02 KCAL/MOL
REMARK 923 INTER-LIGAND FREE ENERGY PREDICTED BY IDOCK:   -7.13 KCAL/MOL
REMARK 924 INTRA-LIGAND FREE ENERGY PREDICTED BY IDOCK:   -0.89 KCAL/MOL
REMARK 927      BINDING AFFINITY PREDICTED BY RF-SCORE:    0.00 PKD
ROOT
HETATM    1 MN   UNL     1      -8.429  16.069  65.519  1.00  0.00    -0.275 Mn 
HETATM    2  C   UNL     2      -8.364   8.357  66.272  1.00  0.00    -0.122 C  
HETATM    3  C   UNL     3     -10.255  17.899  65.636  1.00  0.00     0.016 C  
HETATM    4  H   UNL     3     -10.635  19.794  65.451  1.00  0.00     0.000 HD 
HETATM    5  H   UNL     2      -8.098   9.655  64.892  1.00  0.00     0.000 HD 
HETATM    6  O   UNL     2      -7.960   8.717  64.960  1.00  0.00    -0.117 OA 
HETATM    7  O   UNL     3     -11.087  18.981  65.255  1.00  0.00    -0.401 OA 
ENDROOT
BRANCH   2   8
HETATM    8  C   UNL     2      -8.141   6.835  66.384  1.00  0.00    -0.110 C  
HETATM    9  H   UNL     2      -7.581   5.501  67.736  1.00  0.00     0.000 HD 
HETATM   10  O   UNL     2      -7.718   6.439  67.668  1.00  0.00    -0.099 OA 
ENDBRANCH   2   8
BRANCH   2  11
HETATM   11  C   UNL     2      -9.851   8.841  66.497  1.00  0.00    -0.279 C  
HETATM   12  H   UNL     2     -11.343   8.468  67.734  1.00  0.00     0.000 HD 
HETATM   13  O   UNL     2     -10.449   8.176  67.599  1.00  0.00    -0.234 OA 
BRANCH  11  14
HETATM   14  C   UNL     2     -10.044  10.376  66.729  1.00  0.00    -0.214 C  
HETATM   15  H   UNL     2     -10.435  11.502  68.237  1.00  0.00     0.000 HD 
HETATM   16  O   UNL     2     -10.318  10.570  68.096  1.00  0.00    -0.158 OA 
BRANCH  14  17
HETATM   17  C   UNL     2     -11.178  11.037  65.910  1.00  0.00     0.141 C  
HETATM   18  C   UNL     2     -10.646  11.676  64.639  1.00  0.00    -0.312 C  
HETATM   19  H   UNL     2     -12.493  12.434  66.188  1.00  0.00     0.000 HD 
HETATM   20  O   UNL     2     -11.797  12.028  66.690  1.00  0.00    -0.583 OA 
HETATM   21  O   UNL     2     -11.495  12.263  63.779  1.00  0.00    -0.386 OA 
HETATM   22  O   UNL     2      -9.456  11.604  64.335  1.00  0.00    -0.154 OA 
ENDBRANCH  14  17
ENDBRANCH  11  14
ENDBRANCH   2  11
BRANCH   3  23
HETATM   23  C   UNL     3      -9.835  18.196  67.131  1.00  0.00    -0.317 C  
HETATM   24  O   UNL     3     -10.705  17.405  67.908  1.00  0.00    -0.383 OA 
HETATM   25  H   UNL     3     -10.452  17.584  68.806  1.00  0.00     0.000 HD 
BRANCH  23  26
HETATM   26  C   UNL     3      -8.408  18.088  67.840  1.00  0.00    -0.248 C  
HETATM   27  O   UNL     3      -8.616  18.640  69.117  1.00  0.00    -0.121 OA 
HETATM   28  H   UNL     3      -7.767  18.576  69.538  1.00  0.00     0.000 HD 
BRANCH  26  29
HETATM   29  C   UNL     3      -7.039  18.766  67.348  1.00  0.00    -0.206 C  
HETATM   30  C   UNL     3      -6.375  18.311  66.079  1.00  0.00    -0.238 C  
HETATM   31  O   UNL     3      -6.037  18.671  68.338  1.00  0.00    -0.205 OA 
HETATM   32  O   UNL     3      -5.874  17.067  65.981  1.00  0.00    -0.225 OA 
HETATM   33  O   UNL     3      -6.149  19.119  65.191  1.00  0.00    -0.227 OA 
HETATM   34  H   UNL     3      -5.226  19.072  68.046  1.00  0.00     0.000 HD 
ENDBRANCH  26  29
ENDBRANCH  23  26
ENDBRANCH   3  23
BRANCH   3  35
HETATM   35  C   UNL     3     -11.001  16.559  65.313  1.00  0.00    -0.162 C  
HETATM   36  O   UNL     3     -11.507  16.531  64.011  1.00  0.00    -1.513 OA 
HETATM   37  H   UNL     3     -11.959  15.718  63.815  1.00  0.00     0.000 HD 
ENDBRANCH   3  35
TORSDOF 8
ENDMDL
MODEL      191
REMARK 921   NORMALIZED FREE ENERGY PREDICTED BY IDOCK:   -4.30 KCAL/MOL
REMARK 922        TOTAL FREE ENERGY PREDICTED BY IDOCK:   -7.99 KCAL/MOL
REMARK 923 INTER-LIGAND FREE ENERGY PREDICTED BY IDOCK:   -6.95 KCAL/MOL
REMARK 924 INTRA-LIGAND FREE ENERGY PREDICTED BY IDOCK:   -1.04 KCAL/MOL
REMARK 927      BINDING AFFINITY PREDICTED BY RF-SCORE:    0.00 PKD
ROOT
HETATM    1 MN   UNL     1     -11.135   5.180  65.174  1.00  0.00    -0.429 Mn 
HETATM    2  C   UNL     2     -12.359  12.832  65.128  1.00  0.00    -0.496 C  
HETATM    3  C   UNL     3      -9.040   3.666  65.057  1.00  0.00    -0.142 C  
HETATM    4  H   UNL     3      -8.389   1.839  64.985  1.00  0.00     0.000 HD 
HETATM    5  H   UNL     2     -12.682  11.332  63.985  1.00  0.00     0.000 HD 
HETATM    6  O   UNL     2     -12.960  12.240  63.987  1.00  0.00    -0.740 OA 
HETATM    7  O   UNL     3      -8.133   2.673  64.609  1.00  0.00    -0.084 OA 
ENDROOT
BRANCH   2   8
HETATM    8  C   UNL     2     -12.811  14.306  65.131  1.00  0.00    -0.238 C  
HETATM    9  H   UNL     2     -12.994  15.817  63.863  1.00  0.00     0.000 HD 
HETATM   10  O   UNL     2     -12.715  14.909  63.861  1.00  0.00    -0.789 OA 
ENDBRANCH   2   8
BRANCH   2  11
HETATM   11  C   UNL     2     -10.798  12.603  65.055  1.00  0.00    -0.290 C  
HETATM   12  H   UNL     2      -9.150  13.686  65.162  1.00  0.00     0.000 HD 
HETATM   13  O   UNL     2     -10.089  13.824  65.205  1.00  0.00    -0.335 OA 
BRANCH  11  14
HETATM   14  C   UNL     2     -10.203  11.598  66.096  1.00  0.00    -0.226 C  
HETATM   15  H   UNL     2      -8.566  11.456  67.093  1.00  0.00     0.000 HD 
HETATM   16  O   UNL     2      -8.927  12.066  66.461  1.00  0.00    -0.206 OA 
BRANCH  14  17
HETATM   17  C   UNL     2     -10.061  10.137  65.608  1.00  0.00    -0.254 C  
HETATM   18  C   UNL     2     -10.272   9.149  66.742  1.00  0.00    -0.261 C  
HETATM   19  H   UNL     2      -8.688   9.051  64.776  1.00  0.00     0.000 HD 
HETATM   20  O   UNL     2      -8.775   9.948  65.076  1.00  0.00    -0.151 OA 
HETATM   21  O   UNL     2     -10.228   7.829  66.496  1.00  0.00    -0.236 OA 
HETATM   22  O   UNL     2     -10.559   9.528  67.877  1.00  0.00    -0.231 OA 
ENDBRANCH  14  17
ENDBRANCH  11  14
ENDBRANCH   2  11
BRANCH   3  23
HETATM   23  C   UNL     3      -9.081   3.520  66.631  1.00  0.00    -0.162 C  
HETATM   24  O   UNL     3      -9.617   2.237  66.855  1.00  0.00    -0.386 OA 
HETATM   25  H   UNL     3      -9.642   2.150  67.801  1.00  0.00     0.000 HD 
BRANCH  23  26
HETATM   26  C   UNL     3      -7.918   3.694  67.711  1.00  0.00    -0.081 C  
HETATM   27  O   UNL     3      -7.148   2.524  67.578  1.00  0.00    -0.047 OA 
HETATM   28  H   UNL     3      -6.457   2.627  68.220  1.00  0.00     0.000 HD 
BRANCH  26  29
HETATM   29  C   UNL     3      -8.098   3.854  69.298  1.00  0.00    -0.054 C  
HETATM   30  C   UNL     3      -9.469   3.992  69.900  1.00  0.00    -0.194 C  
HETATM   31  O   UNL     3      -7.374   4.963  69.786  1.00  0.00    -0.054 OA 
HETATM   32  O   UNL     3     -10.223   5.074  69.635  1.00  0.00    -0.241 OA 
HETATM   33  O   UNL     3      -9.837   3.200  70.753  1.00  0.00    -0.139 OA 
HETATM   34  H   UNL     3      -7.481   5.058  70.725  1.00  0.00     0.000 HD 
ENDBRANCH  26  29
ENDBRANCH  23  26
ENDBRANCH   3  23
BRANCH   3  35
HETATM   35  C   UNL     3      -8.619   5.043  64.436  1.00  0.00    -0.135 C  
HETATM   36  O   UNL     3      -9.180   5.252  63.174  1.00  0.00    -0.347 OA 
HETATM   37  H   UNL     3      -8.924   6.086  62.798  1.00  0.00     0.000 HD 
ENDBRANCH   3  35
TORSDOF 8
ENDMDL
MODEL      192
REMARK 921   NORMALIZED FREE ENERGY PREDICTED BY IDOCK:   -4.29 KCAL/MOL
REMARK 922        TOTAL FREE ENERGY PREDICTED BY IDOCK:   -7.97 KCAL/MOL
REMARK 923 INTER-LIGAND FREE ENERGY PREDICTED BY IDOCK:   -6.94 KCAL/MOL
REMARK 924 INTRA-LIGAND FREE ENERGY PREDICTED BY IDOCK:   -1.03 KCAL/MOL
REMARK 927      BINDING AFFINITY PREDICTED BY RF-SCORE:    0.00 PKD
ROOT
HETATM    1 MN   UNL     1     -12.097  12.703  67.122  1.00  0.00    -0.309 Mn 
HETATM    2  C   UNL     2      -9.478   5.450  67.886  1.00  0.00    -0.120 C  
HETATM    3  C   UNL     3     -11.749  14.916  68.418  1.00  0.00    -0.309 C  
HETATM    4  H   UNL     3     -12.250  16.787  68.554  1.00  0.00     0.000 HD 
HETATM    5  H   UNL     2     -11.135   6.391  68.059  1.00  0.00     0.000 HD 
HETATM    6  O   UNL     2     -10.887   5.474  68.047  1.00  0.00    -0.154 OA 
HETATM    7  O   UNL     3     -12.037  16.088  69.161  1.00  0.00    -0.293 OA 
ENDROOT
BRANCH   2   8
HETATM    8  C   UNL     2      -9.076   3.962  67.866  1.00  0.00    -0.149 C  
HETATM    9  H   UNL     2      -7.489   2.836  68.239  1.00  0.00     0.000 HD 
HETATM   10  O   UNL     2      -7.737   3.753  68.251  1.00  0.00    -0.064 OA 
ENDBRANCH   2   8
BRANCH   2  11
HETATM   11  C   UNL     2      -8.821   6.314  69.035  1.00  0.00    -0.124 C  
HETATM   12  H   UNL     2      -7.513   7.784  69.198  1.00  0.00     0.000 HD 
HETATM   13  O   UNL     2      -7.908   7.264  68.508  1.00  0.00    -0.117 OA 
BRANCH  11  14
HETATM   14  C   UNL     2      -9.813   7.095  69.957  1.00  0.00    -0.178 C  
HETATM   15  H   UNL     2      -9.892   8.862  70.711  1.00  0.00     0.000 HD 
HETATM   16  O   UNL     2      -9.290   8.387  70.150  1.00  0.00    -0.160 OA 
BRANCH  14  17
HETATM   17  C   UNL     2     -10.069   6.465  71.347  1.00  0.00    -0.189 C  
HETATM   18  C   UNL     2     -11.555   6.356  71.643  1.00  0.00    -0.310 C  
HETATM   19  H   UNL     2      -9.624   6.874  73.189  1.00  0.00     0.000 HD 
HETATM   20  O   UNL     2      -9.467   7.260  72.336  1.00  0.00    -0.146 OA 
HETATM   21  O   UNL     2     -11.969   5.793  72.790  1.00  0.00    -0.199 OA 
HETATM   22  O   UNL     2     -12.400   6.705  70.820  1.00  0.00    -0.352 OA 
ENDBRANCH  14  17
ENDBRANCH  11  14
ENDBRANCH   2  11
BRANCH   3  23
HETATM   23  C   UNL     3     -10.669  15.350  67.348  1.00  0.00    -0.296 C  
HETATM   24  O   UNL     3     -10.967  14.577  66.209  1.00  0.00    -0.311 OA 
HETATM   25  H   UNL     3     -10.318  14.838  65.566  1.00  0.00     0.000 HD 
BRANCH  23  26
HETATM   26  C   UNL     3     -10.292  16.800  66.796  1.00  0.00    -0.293 C  
HETATM   27  O   UNL     3      -9.881  16.568  65.472  1.00  0.00    -0.537 OA 
HETATM   28  H   UNL     3      -9.657  17.430  65.143  1.00  0.00     0.000 HD 
BRANCH  26  29
HETATM   29  C   UNL     3      -9.167  17.786  67.379  1.00  0.00    -0.248 C  
HETATM   30  C   UNL     3      -8.347  18.639  66.452  1.00  0.00    -0.276 C  
HETATM   31  O   UNL     3      -8.222  17.082  68.156  1.00  0.00    -0.203 OA 
HETATM   32  O   UNL     3      -7.496  18.072  65.579  1.00  0.00    -0.538 OA 
HETATM   33  O   UNL     3      -8.335  19.852  66.598  1.00  0.00    -0.304 OA 
HETATM   34  H   UNL     3      -7.556  17.666  68.501  1.00  0.00     0.000 HD 
ENDBRANCH  26  29
ENDBRANCH  23  26
ENDBRANCH   3  23
BRANCH   3  35
HETATM   35  C   UNL     3     -11.398  13.763  69.421  1.00  0.00    -0.250 C  
HETATM   36  O   UNL     3     -11.425  14.188  70.752  1.00  0.00    -0.512 OA 
HETATM   37  H   UNL     3     -11.212  13.489  71.359  1.00  0.00     0.000 HD 
ENDBRANCH   3  35
TORSDOF 8
ENDMDL
MODEL      193
REMARK 921   NORMALIZED FREE ENERGY PREDICTED BY IDOCK:   -4.29 KCAL/MOL
REMARK 922        TOTAL FREE ENERGY PREDICTED BY IDOCK:   -7.97 KCAL/MOL
REMARK 923 INTER-LIGAND FREE ENERGY PREDICTED BY IDOCK:   -6.01 KCAL/MOL
REMARK 924 INTRA-LIGAND FREE ENERGY PREDICTED BY IDOCK:   -1.96 KCAL/MOL
REMARK 927      BINDING AFFINITY PREDICTED BY RF-SCORE:    0.00 PKD
ROOT
HETATM    1 MN   UNL     1      -9.521  15.200  68.753  1.00  0.00    -0.162 Mn 
HETATM    2  C   UNL     2     -10.547   7.694  67.123  1.00  0.00    -0.340 C  
HETATM    3  C   UNL     3      -7.780  16.992  68.082  1.00  0.00    -0.197 C  
HETATM    4  H   UNL     3      -7.201  18.829  68.322  1.00  0.00     0.000 HD 
HETATM    5  H   UNL     2     -10.082   8.772  68.633  1.00  0.00     0.000 HD 
HETATM    6  O   UNL     2     -10.313   7.858  68.512  1.00  0.00    -0.203 OA 
HETATM    7  O   UNL     3      -6.777  17.988  68.194  1.00  0.00    -0.193 OA 
ENDROOT
BRANCH   2   8
HETATM    8  C   UNL     2     -10.922   6.211  66.926  1.00  0.00    -0.305 C  
HETATM    9  H   UNL     2     -10.964   4.528  67.970  1.00  0.00     0.000 HD 
HETATM   10  O   UNL     2     -10.733   5.442  68.091  1.00  0.00    -0.137 OA 
ENDBRANCH   2   8
BRANCH   2  11
HETATM   11  C   UNL     2      -9.269   8.179  66.331  1.00  0.00    -0.199 C  
HETATM   12  H   UNL     2      -7.810   9.489  66.565  1.00  0.00     0.000 HD 
HETATM   13  O   UNL     2      -8.579   9.197  67.040  1.00  0.00    -0.122 OA 
BRANCH  11  14
HETATM   14  C   UNL     2      -8.219   7.074  65.981  1.00  0.00    -0.129 C  
HETATM   15  H   UNL     2      -6.581   6.434  66.759  1.00  0.00     0.000 HD 
HETATM   16  O   UNL     2      -7.219   7.105  66.972  1.00  0.00    -0.086 OA 
BRANCH  14  17
HETATM   17  C   UNL     2      -7.535   7.216  64.601  1.00  0.00    -0.098 C  
HETATM   18  C   UNL     2      -7.927   6.083  63.668  1.00  0.00    -0.108 C  
HETATM   19  H   UNL     2      -5.721   7.290  63.921  1.00  0.00     0.000 HD 
HETATM   20  O   UNL     2      -6.141   7.203  64.769  1.00  0.00    -0.036 OA 
HETATM   21  O   UNL     2      -7.462   6.064  62.407  1.00  0.00    -0.050 OA 
HETATM   22  O   UNL     2      -8.726   5.214  64.014  1.00  0.00    -0.129 OA 
ENDBRANCH  14  17
ENDBRANCH  11  14
ENDBRANCH   2  11
BRANCH   3  23
HETATM   23  C   UNL     3      -8.778  17.521  66.976  1.00  0.00    -0.240 C  
HETATM   24  O   UNL     3      -8.275  17.002  65.767  1.00  0.00    -0.486 OA 
HETATM   25  H   UNL     3      -8.875  17.319  65.102  1.00  0.00     0.000 HD 
BRANCH  23  26
HETATM   26  C   UNL     3     -10.366  17.385  66.874  1.00  0.00    -0.317 C  
HETATM   27  O   UNL     3     -10.741  16.810  68.101  1.00  0.00    -0.336 OA 
HETATM   28  H   UNL     3     -11.686  16.729  68.040  1.00  0.00     0.000 HD 
BRANCH  26  29
HETATM   29  C   UNL     3     -11.188  16.537  65.787  1.00  0.00     0.298 C  
HETATM   30  C   UNL     3     -11.051  15.041  65.723  1.00  0.00    -0.346 C  
HETATM   31  O   UNL     3     -10.914  16.983  64.476  1.00  0.00    -1.031 OA 
HETATM   32  O   UNL     3      -9.879  14.480  65.377  1.00  0.00    -0.334 OA 
HETATM   33  O   UNL     3     -12.043  14.338  65.833  1.00  0.00    -0.398 OA 
HETATM   34  H   UNL     3     -11.401  16.481  63.833  1.00  0.00     0.000 HD 
ENDBRANCH  26  29
ENDBRANCH  23  26
ENDBRANCH   3  23
BRANCH   3  35
HETATM   35  C   UNL     3      -7.082  15.605  67.869  1.00  0.00    -0.138 C  
HETATM   36  O   UNL     3      -7.941  14.656  67.309  1.00  0.00    -0.189 OA 
HETATM   37  H   UNL     3      -7.518  13.815  67.180  1.00  0.00     0.000 HD 
ENDBRANCH   3  35
TORSDOF 8
ENDMDL
MODEL      194
REMARK 921   NORMALIZED FREE ENERGY PREDICTED BY IDOCK:   -4.29 KCAL/MOL
REMARK 922        TOTAL FREE ENERGY PREDICTED BY IDOCK:   -7.97 KCAL/MOL
REMARK 923 INTER-LIGAND FREE ENERGY PREDICTED BY IDOCK:   -6.98 KCAL/MOL
REMARK 924 INTRA-LIGAND FREE ENERGY PREDICTED BY IDOCK:   -0.99 KCAL/MOL
REMARK 927      BINDING AFFINITY PREDICTED BY RF-SCORE:    0.00 PKD
ROOT
HETATM    1 MN   UNL     1      -6.484   8.898  67.322  1.00  0.00    -0.052 Mn 
HETATM    2  C   UNL     2     -11.206  14.478  64.748  1.00  0.00    -0.390 C  
HETATM    3  C   UNL     3      -6.755   6.858  68.890  1.00  0.00    -0.059 C  
HETATM    4  H   UNL     3      -5.849   5.375  69.757  1.00  0.00     0.000 HD 
HETATM    5  H   UNL     2      -9.689  14.317  65.903  1.00  0.00     0.000 HD 
HETATM    6  O   UNL     2     -10.163  15.048  65.523  1.00  0.00    -0.324 OA 
HETATM    7  O   UNL     3      -6.552   5.975  69.981  1.00  0.00    -0.038 OA 
ENDROOT
BRANCH   2   8
HETATM    8  C   UNL     2     -11.975  15.663  64.131  1.00  0.00    -0.039 C  
HETATM    9  H   UNL     2     -11.739  17.608  63.836  1.00  0.00     0.000 HD 
HETATM   10  O   UNL     2     -11.266  16.877  64.217  1.00  0.00    -1.204 OA 
ENDBRANCH   2   8
BRANCH   2  11
HETATM   11  C   UNL     2     -12.061  13.524  65.672  1.00  0.00    -0.430 C  
HETATM   12  H   UNL     2     -13.279  11.984  65.462  1.00  0.00     0.000 HD 
HETATM   13  O   UNL     2     -12.765  12.558  64.906  1.00  0.00    -0.657 OA 
BRANCH  11  14
HETATM   14  C   UNL     2     -11.269  12.745  66.773  1.00  0.00    -0.295 C  
HETATM   15  H   UNL     2     -10.459  11.007  66.917  1.00  0.00     0.000 HD 
HETATM   16  O   UNL     2     -10.941  11.481  66.249  1.00  0.00    -0.285 OA 
BRANCH  14  17
HETATM   17  C   UNL     2     -12.017  12.534  68.111  1.00  0.00    -0.219 C  
HETATM   18  C   UNL     2     -11.437  13.400  69.215  1.00  0.00    -0.290 C  
HETATM   19  H   UNL     2     -12.375  11.056  69.313  1.00  0.00     0.000 HD 
HETATM   20  O   UNL     2     -11.916  11.186  68.492  1.00  0.00    -0.526 OA 
HETATM   21  O   UNL     2     -11.988  13.381  70.440  1.00  0.00    -0.331 OA 
HETATM   22  O   UNL     2     -10.513  14.183  68.997  1.00  0.00    -0.237 OA 
ENDBRANCH  14  17
ENDBRANCH  11  14
ENDBRANCH   2  11
BRANCH   3  23
HETATM   23  C   UNL     3      -6.920   5.929  67.621  1.00  0.00    -0.069 C  
HETATM   24  O   UNL     3      -7.718   4.857  68.067  1.00  0.00    -0.082 OA 
HETATM   25  H   UNL     3      -7.817   4.299  67.305  1.00  0.00     0.000 HD 
BRANCH  23  26
HETATM   26  C   UNL     3      -7.447   6.275  66.154  1.00  0.00    -0.085 C  
HETATM   27  O   UNL     3      -6.895   7.539  65.880  1.00  0.00    -0.055 OA 
HETATM   28  H   UNL     3      -7.208   7.745  65.008  1.00  0.00     0.000 HD 
BRANCH  26  29
HETATM   29  C   UNL     3      -8.978   6.418  65.694  1.00  0.00    -0.004 C  
HETATM   30  C   UNL     3     -10.095   6.117  66.654  1.00  0.00    -0.162 C  
HETATM   31  O   UNL     3      -9.248   5.622  64.560  1.00  0.00    -0.335 OA 
HETATM   32  O   UNL     3     -10.278   4.867  67.114  1.00  0.00    -0.195 OA 
HETATM   33  O   UNL     3     -10.932   6.973  66.895  1.00  0.00    -0.371 OA 
HETATM   34  H   UNL     3     -10.155   5.707  64.288  1.00  0.00     0.000 HD 
ENDBRANCH  26  29
ENDBRANCH  23  26
ENDBRANCH   3  23
BRANCH   3  35
HETATM   35  C   UNL     3      -7.913   7.847  69.258  1.00  0.00    -0.117 C  
HETATM   36  O   UNL     3      -8.472   8.456  68.131  1.00  0.00    -0.129 OA 
HETATM   37  H   UNL     3      -9.174   9.056  68.355  1.00  0.00     0.000 HD 
ENDBRANCH   3  35
TORSDOF 8
ENDMDL
MODEL      195
REMARK 921   NORMALIZED FREE ENERGY PREDICTED BY IDOCK:   -4.28 KCAL/MOL
REMARK 922        TOTAL FREE ENERGY PREDICTED BY IDOCK:   -7.96 KCAL/MOL
REMARK 923 INTER-LIGAND FREE ENERGY PREDICTED BY IDOCK:   -5.72 KCAL/MOL
REMARK 924 INTRA-LIGAND FREE ENERGY PREDICTED BY IDOCK:   -2.25 KCAL/MOL
REMARK 927      BINDING AFFINITY PREDICTED BY RF-SCORE:    0.00 PKD
ROOT
HETATM    1 MN   UNL     1     -10.173   9.662  69.276  1.00  0.00    -0.163 Mn 
HETATM    2  C   UNL     2      -9.846  17.316  68.110  1.00  0.00    -0.290 C  
HETATM    3  C   UNL     3     -10.260   7.583  67.737  1.00  0.00    -0.201 C  
HETATM    4  H   UNL     3     -10.401   5.648  67.668  1.00  0.00     0.000 HD 
HETATM    5  H   UNL     2     -11.089  16.032  68.792  1.00  0.00     0.000 HD 
HETATM    6  O   UNL     2     -11.050  16.981  68.780  1.00  0.00    -0.245 OA 
HETATM    7  O   UNL     3     -10.714   6.378  67.146  1.00  0.00    -0.271 OA 
ENDROOT
BRANCH   2   8
HETATM    8  C   UNL     2      -9.783  18.856  68.091  1.00  0.00    -0.347 C  
HETATM    9  H   UNL     2     -10.977  20.398  67.746  1.00  0.00     0.000 HD 
HETATM   10  O   UNL     2     -11.016  19.449  67.757  1.00  0.00    -0.377 OA 
ENDBRANCH   2   8
BRANCH   2  11
HETATM   11  C   UNL     2      -9.844  16.621  66.691  1.00  0.00    -0.274 C  
HETATM   12  H   UNL     2      -8.839  16.751  64.996  1.00  0.00     0.000 HD 
HETATM   13  O   UNL     2      -8.841  17.169  65.849  1.00  0.00    -0.520 OA 
BRANCH  11  14
HETATM   14  C   UNL     2      -9.647  15.070  66.688  1.00  0.00    -0.263 C  
HETATM   15  H   UNL     2      -9.617  13.688  65.352  1.00  0.00     0.000 HD 
HETATM   16  O   UNL     2      -9.737  14.630  65.354  1.00  0.00    -0.295 OA 
BRANCH  14  17
HETATM   17  C   UNL     2     -10.666  14.266  67.530  1.00  0.00    -0.270 C  
HETATM   18  C   UNL     2     -10.099  12.923  67.956  1.00  0.00    -0.235 C  
HETATM   19  H   UNL     2     -12.453  13.554  67.289  1.00  0.00     0.000 HD 
HETATM   20  O   UNL     2     -11.827  14.047  66.772  1.00  0.00    -0.380 OA 
HETATM   21  O   UNL     2     -10.828  12.104  68.732  1.00  0.00    -0.221 OA 
HETATM   22  O   UNL     2      -8.949  12.592  67.668  1.00  0.00    -0.169 OA 
ENDBRANCH  14  17
ENDBRANCH  11  14
ENDBRANCH   2  11
BRANCH   3  23
HETATM   23  C   UNL     3      -8.702   7.398  67.932  1.00  0.00    -0.123 C  
HETATM   24  O   UNL     3      -8.361   8.311  68.949  1.00  0.00    -0.124 OA 
HETATM   25  H   UNL     3      -7.424   8.199  69.065  1.00  0.00     0.000 HD 
BRANCH  23  26
HETATM   26  C   UNL     3      -7.853   6.080  68.234  1.00  0.00    -0.106 C  
HETATM   27  O   UNL     3      -8.283   5.162  67.259  1.00  0.00    -0.107 OA 
HETATM   28  H   UNL     3      -7.778   4.378  67.439  1.00  0.00     0.000 HD 
BRANCH  26  29
HETATM   29  C   UNL     3      -7.861   5.225  69.593  1.00  0.00    -0.073 C  
HETATM   30  C   UNL     3      -8.689   3.976  69.704  1.00  0.00    -0.079 C  
HETATM   31  O   UNL     3      -8.250   6.018  70.695  1.00  0.00    -0.116 OA 
HETATM   32  O   UNL     3     -10.031   4.043  69.657  1.00  0.00    -0.166 OA 
HETATM   33  O   UNL     3      -8.152   2.918  69.993  1.00  0.00    -0.042 OA 
HETATM   34  H   UNL     3      -8.254   5.511  71.499  1.00  0.00     0.000 HD 
ENDBRANCH  26  29
ENDBRANCH  23  26
ENDBRANCH   3  23
BRANCH   3  35
HETATM   35  C   UNL     3     -10.776   8.787  66.874  1.00  0.00    -0.081 C  
HETATM   36  O   UNL     3      -9.908   9.881  66.913  1.00  0.00    -0.180 OA 
HETATM   37  H   UNL     3     -10.221  10.610  66.390  1.00  0.00     0.000 HD 
ENDBRANCH   3  35
TORSDOF 8
ENDMDL
MODEL      196
REMARK 921   NORMALIZED FREE ENERGY PREDICTED BY IDOCK:   -4.28 KCAL/MOL
REMARK 922        TOTAL FREE ENERGY PREDICTED BY IDOCK:   -7.96 KCAL/MOL
REMARK 923 INTER-LIGAND FREE ENERGY PREDICTED BY IDOCK:   -7.66 KCAL/MOL
REMARK 924 INTRA-LIGAND FREE ENERGY PREDICTED BY IDOCK:   -0.30 KCAL/MOL
REMARK 927      BINDING AFFINITY PREDICTED BY RF-SCORE:    0.00 PKD
ROOT
HETATM    1 MN   UNL     1     -12.047  12.617  67.501  1.00  0.00    -0.297 Mn 
HETATM    2  C   UNL     2      -9.862   5.629  70.041  1.00  0.00    -0.186 C  
HETATM    3  C   UNL     3     -11.774  15.040  68.365  1.00  0.00    -0.317 C  
HETATM    4  H   UNL     3     -12.207  16.907  68.057  1.00  0.00     0.000 HD 
HETATM    5  H   UNL     2     -11.485   6.612  69.798  1.00  0.00     0.000 HD 
HETATM    6  O   UNL     2     -11.278   5.708  70.002  1.00  0.00    -0.267 OA 
HETATM    7  O   UNL     3     -12.105  16.343  68.815  1.00  0.00     0.004 OA 
ENDROOT
BRANCH   2   8
HETATM    8  C   UNL     2      -9.525   4.162  70.373  1.00  0.00    -0.177 C  
HETATM    9  H   UNL     2      -9.494   2.395  69.477  1.00  0.00     0.000 HD 
HETATM   10  O   UNL     2      -9.702   3.299  69.273  1.00  0.00    -0.107 OA 
ENDBRANCH   2   8
BRANCH   2  11
HETATM   11  C   UNL     2      -9.322   6.697  71.073  1.00  0.00    -0.160 C  
HETATM   12  H   UNL     2      -7.747   7.870  71.280  1.00  0.00     0.000 HD 
HETATM   13  O   UNL     2      -8.072   7.227  70.660  1.00  0.00    -0.105 OA 
BRANCH  11  14
HETATM   14  C   UNL     2     -10.264   7.914  71.355  1.00  0.00    -0.190 C  
HETATM   15  H   UNL     2     -10.042   9.697  72.039  1.00  0.00     0.000 HD 
HETATM   16  O   UNL     2      -9.471   8.958  71.868  1.00  0.00    -0.290 OA 
BRANCH  14  17
HETATM   17  C   UNL     2     -11.416   7.648  72.352  1.00  0.00    -0.340 C  
HETATM   18  C   UNL     2     -12.399   8.806  72.386  1.00  0.00    -0.344 C  
HETATM   19  H   UNL     2     -11.592   7.305  74.252  1.00  0.00     0.000 HD 
HETATM   20  O   UNL     2     -10.885   7.467  73.640  1.00  0.00    -0.329 OA 
HETATM   21  O   UNL     2     -13.491   8.734  73.167  1.00  0.00    -0.208 OA 
HETATM   22  O   UNL     2     -12.261   9.786  71.655  1.00  0.00    -0.371 OA 
ENDBRANCH  14  17
ENDBRANCH  11  14
ENDBRANCH   2  11
BRANCH   3  23
HETATM   23  C   UNL     3     -10.547  15.231  67.386  1.00  0.00    -0.282 C  
HETATM   24  O   UNL     3     -10.621  14.133  66.507  1.00  0.00    -0.278 OA 
HETATM   25  H   UNL     3      -9.883  14.248  65.919  1.00  0.00     0.000 HD 
BRANCH  23  26
HETATM   26  C   UNL     3     -10.138  16.480  66.480  1.00  0.00    -0.299 C  
HETATM   27  O   UNL     3      -9.345  15.921  65.462  1.00  0.00    -0.352 OA 
HETATM   28  H   UNL     3      -9.101  16.664  64.923  1.00  0.00     0.000 HD 
BRANCH  26  29
HETATM   29  C   UNL     3      -9.309  17.773  66.945  1.00  0.00    -0.269 C  
HETATM   30  C   UNL     3      -9.989  18.890  67.686  1.00  0.00    -0.349 C  
HETATM   31  O   UNL     3      -8.675  18.397  65.848  1.00  0.00    -0.497 OA 
HETATM   32  O   UNL     3     -10.936  19.630  67.082  1.00  0.00    -0.467 OA 
HETATM   33  O   UNL     3      -9.573  19.229  68.783  1.00  0.00    -0.386 OA 
HETATM   34  H   UNL     3      -8.184  19.162  66.124  1.00  0.00     0.000 HD 
ENDBRANCH  26  29
ENDBRANCH  23  26
ENDBRANCH   3  23
BRANCH   3  35
HETATM   35  C   UNL     3     -11.605  14.110  69.616  1.00  0.00    -0.292 C  
HETATM   36  O   UNL     3     -10.888  14.725  70.645  1.00  0.00    -0.500 OA 
HETATM   37  H   UNL     3     -10.786  14.161  71.403  1.00  0.00     0.000 HD 
ENDBRANCH   3  35
TORSDOF 8
ENDMDL
MODEL      197
REMARK 921   NORMALIZED FREE ENERGY PREDICTED BY IDOCK:   -4.28 KCAL/MOL
REMARK 922        TOTAL FREE ENERGY PREDICTED BY IDOCK:   -7.96 KCAL/MOL
REMARK 923 INTER-LIGAND FREE ENERGY PREDICTED BY IDOCK:   -6.54 KCAL/MOL
REMARK 924 INTRA-LIGAND FREE ENERGY PREDICTED BY IDOCK:   -1.42 KCAL/MOL
REMARK 927      BINDING AFFINITY PREDICTED BY RF-SCORE:    0.00 PKD
ROOT
HETATM    1 MN   UNL     1     -12.961  13.480  68.963  1.00  0.00    -0.195 Mn 
HETATM    2  C   UNL     2      -9.687   6.591  67.591  1.00  0.00    -0.123 C  
HETATM    3  C   UNL     3     -13.400  14.903  71.078  1.00  0.00    -0.393 C  
HETATM    4  H   UNL     3     -14.192  16.533  71.774  1.00  0.00     0.000 HD 
HETATM    5  H   UNL     2     -11.429   7.380  67.516  1.00  0.00     0.000 HD 
HETATM    6  O   UNL     2     -11.056   6.557  67.221  1.00  0.00    -0.378 OA 
HETATM    7  O   UNL     3     -14.091  15.637  72.074  1.00  0.00    -0.492 OA 
ENDROOT
BRANCH   2   8
HETATM    8  C   UNL     2      -9.083   5.256  67.112  1.00  0.00    -0.112 C  
HETATM    9  H   UNL     2      -9.667   3.402  66.729  1.00  0.00     0.000 HD 
HETATM   10  O   UNL     2     -10.039   4.225  67.024  1.00  0.00    -0.178 OA 
ENDBRANCH   2   8
BRANCH   2  11
HETATM   11  C   UNL     2      -9.587   6.861  69.144  1.00  0.00    -0.144 C  
HETATM   12  H   UNL     2     -10.295   6.084  70.816  1.00  0.00     0.000 HD 
HETATM   13  O   UNL     2     -10.355   5.922  69.881  1.00  0.00    -0.199 OA 
BRANCH  11  14
HETATM   14  C   UNL     2      -8.146   6.849  69.751  1.00  0.00    -0.126 C  
HETATM   15  H   UNL     2      -7.339   6.202  71.371  1.00  0.00     0.000 HD 
HETATM   16  O   UNL     2      -8.214   6.209  71.002  1.00  0.00    -0.119 OA 
BRANCH  14  17
HETATM   17  C   UNL     2      -7.495   8.238  69.953  1.00  0.00    -0.065 C  
HETATM   18  C   UNL     2      -6.442   8.518  68.896  1.00  0.00    -0.049 C  
HETATM   19  H   UNL     2      -6.491   9.140  71.344  1.00  0.00     0.000 HD 
HETATM   20  O   UNL     2      -6.890   8.288  71.220  1.00  0.00    -0.050 OA 
HETATM   21  O   UNL     2      -5.799   9.698  68.887  1.00  0.00    -0.039 OA 
HETATM   22  O   UNL     2      -6.212   7.715  67.992  1.00  0.00    -0.042 OA 
ENDBRANCH  14  17
ENDBRANCH  11  14
ENDBRANCH   2  11
BRANCH   3  23
HETATM   23  C   UNL     3     -12.103  15.749  70.755  1.00  0.00    -0.408 C  
HETATM   24  O   UNL     3     -11.134  15.271  71.659  1.00  0.00    -0.490 OA 
HETATM   25  H   UNL     3     -10.355  15.779  71.464  1.00  0.00     0.000 HD 
BRANCH  23  26
HETATM   26  C   UNL     3     -11.334  15.963  69.373  1.00  0.00    -0.349 C  
HETATM   27  O   UNL     3     -10.864  14.681  69.038  1.00  0.00    -0.230 OA 
HETATM   28  H   UNL     3     -10.406  14.808  68.216  1.00  0.00     0.000 HD 
BRANCH  26  29
HETATM   29  C   UNL     3     -10.064  16.913  69.120  1.00  0.00    -0.269 C  
HETATM   30  C   UNL     3     -10.207  18.181  68.326  1.00  0.00    -0.389 C  
HETATM   31  O   UNL     3      -9.015  16.207  68.492  1.00  0.00    -0.188 OA 
HETATM   32  O   UNL     3     -10.520  18.134  67.018  1.00  0.00    -0.372 OA 
HETATM   33  O   UNL     3      -9.885  19.247  68.826  1.00  0.00    -0.405 OA 
HETATM   34  H   UNL     3      -8.263  16.769  68.342  1.00  0.00     0.000 HD 
ENDBRANCH  26  29
ENDBRANCH  23  26
ENDBRANCH   3  23
BRANCH   3  35
HETATM   35  C   UNL     3     -13.234  13.425  71.574  1.00  0.00    -0.312 C  
HETATM   36  O   UNL     3     -12.242  12.736  70.871  1.00  0.00    -0.420 OA 
HETATM   37  H   UNL     3     -12.141  11.840  71.172  1.00  0.00     0.000 HD 
ENDBRANCH   3  35
TORSDOF 8
ENDMDL
MODEL      198
REMARK 921   NORMALIZED FREE ENERGY PREDICTED BY IDOCK:   -4.28 KCAL/MOL
REMARK 922        TOTAL FREE ENERGY PREDICTED BY IDOCK:   -7.95 KCAL/MOL
REMARK 923 INTER-LIGAND FREE ENERGY PREDICTED BY IDOCK:   -7.19 KCAL/MOL
REMARK 924 INTRA-LIGAND FREE ENERGY PREDICTED BY IDOCK:   -0.76 KCAL/MOL
REMARK 927      BINDING AFFINITY PREDICTED BY RF-SCORE:    0.00 PKD
ROOT
HETATM    1 MN   UNL     1      -7.598  13.769  70.245  1.00  0.00    -0.328 Mn 
HETATM    2  C   UNL     2     -10.753   6.915  72.010  1.00  0.00    -0.216 C  
HETATM    3  C   UNL     3      -6.528  14.794  68.123  1.00  0.00    -0.136 C  
HETATM    4  H   UNL     3      -5.636  16.345  67.371  1.00  0.00     0.000 HD 
HETATM    5  H   UNL     2      -9.195   7.925  72.469  1.00  0.00     0.000 HD 
HETATM    6  O   UNL     2      -9.600   7.135  72.806  1.00  0.00    -0.144 OA 
HETATM    7  O   UNL     3      -5.575  15.402  67.269  1.00  0.00    -0.337 OA 
ENDROOT
BRANCH   2   8
HETATM    8  C   UNL     2     -11.411   5.632  72.557  1.00  0.00    -0.294 C  
HETATM    9  H   UNL     2     -10.904   3.776  73.029  1.00  0.00     0.000 HD 
HETATM   10  O   UNL     2     -10.499   4.567  72.692  1.00  0.00    -0.190 OA 
ENDBRANCH   2   8
BRANCH   2  11
HETATM   11  C   UNL     2     -10.319   6.858  70.492  1.00  0.00    -0.204 C  
HETATM   12  H   UNL     2     -11.115   6.353  68.757  1.00  0.00     0.000 HD 
HETATM   13  O   UNL     2     -11.376   6.386  69.670  1.00  0.00    -0.387 OA 
BRANCH  11  14
HETATM   14  C   UNL     2      -9.823   8.206  69.871  1.00  0.00    -0.186 C  
HETATM   15  H   UNL     2      -9.869  10.058  70.384  1.00  0.00     0.000 HD 
HETATM   16  O   UNL     2     -10.169   9.239  70.761  1.00  0.00    -0.241 OA 
BRANCH  14  17
HETATM   17  C   UNL     2     -10.404   8.552  68.479  1.00  0.00    -0.198 C  
HETATM   18  C   UNL     2      -9.385   8.319  67.378  1.00  0.00    -0.141 C  
HETATM   19  H   UNL     2     -11.148  10.115  67.606  1.00  0.00     0.000 HD 
HETATM   20  O   UNL     2     -10.791   9.902  68.460  1.00  0.00    -0.229 OA 
HETATM   21  O   UNL     2      -9.726   8.527  66.095  1.00  0.00    -0.241 OA 
HETATM   22  O   UNL     2      -8.266   7.869  67.624  1.00  0.00    -0.122 OA 
ENDBRANCH  14  17
ENDBRANCH  11  14
ENDBRANCH   2  11
BRANCH   3  23
HETATM   23  C   UNL     3      -7.901  15.508  67.799  1.00  0.00    -0.143 C  
HETATM   24  O   UNL     3      -7.748  16.816  68.300  1.00  0.00    -0.173 OA 
HETATM   25  H   UNL     3      -8.573  17.245  68.106  1.00  0.00     0.000 HD 
BRANCH  23  26
HETATM   26  C   UNL     3      -8.676  15.669  66.413  1.00  0.00    -0.318 C  
HETATM   27  O   UNL     3      -8.092  16.803  65.822  1.00  0.00    -0.358 OA 
HETATM   28  H   UNL     3      -8.553  16.899  64.997  1.00  0.00     0.000 HD 
BRANCH  26  29
HETATM   29  C   UNL     3     -10.251  15.903  66.215  1.00  0.00    -0.311 C  
HETATM   30  C   UNL     3     -11.145  14.769  65.796  1.00  0.00    -0.338 C  
HETATM   31  O   UNL     3     -10.503  16.929  65.278  1.00  0.00    -0.638 OA 
HETATM   32  O   UNL     3     -11.006  14.206  64.583  1.00  0.00    -0.391 OA 
HETATM   33  O   UNL     3     -12.099  14.462  66.493  1.00  0.00    -0.418 OA 
HETATM   34  H   UNL     3     -11.436  17.067  65.161  1.00  0.00     0.000 HD 
ENDBRANCH  26  29
ENDBRANCH  23  26
ENDBRANCH   3  23
BRANCH   3  35
HETATM   35  C   UNL     3      -6.428  13.239  67.955  1.00  0.00    -0.147 C  
HETATM   36  O   UNL     3      -6.592  12.835  66.627  1.00  0.00    -0.361 OA 
HETATM   37  H   UNL     3      -6.531  11.892  66.525  1.00  0.00     0.000 HD 
ENDBRANCH   3  35
TORSDOF 8
ENDMDL
MODEL      199
REMARK 921   NORMALIZED FREE ENERGY PREDICTED BY IDOCK:   -4.27 KCAL/MOL
REMARK 922        TOTAL FREE ENERGY PREDICTED BY IDOCK:   -7.95 KCAL/MOL
REMARK 923 INTER-LIGAND FREE ENERGY PREDICTED BY IDOCK:   -4.59 KCAL/MOL
REMARK 924 INTRA-LIGAND FREE ENERGY PREDICTED BY IDOCK:   -3.35 KCAL/MOL
REMARK 927      BINDING AFFINITY PREDICTED BY RF-SCORE:    0.00 PKD
ROOT
HETATM    1 MN   UNL     1      -5.779   9.502  68.877  1.00  0.00    -0.035 Mn 
HETATM    2  C   UNL     2      -9.852  15.620  66.420  1.00  0.00    -0.274 C  
HETATM    3  C   UNL     3      -5.964   7.870  70.877  1.00  0.00    -0.034 C  
HETATM    4  H   UNL     3      -5.152   6.363  71.792  1.00  0.00     0.000 HD 
HETATM    5  H   UNL     2      -8.121  15.264  67.153  1.00  0.00     0.000 HD 
HETATM    6  O   UNL     2      -8.533  16.021  66.754  1.00  0.00    -0.207 OA 
HETATM    7  O   UNL     3      -5.621   7.149  72.047  1.00  0.00    -0.036 OA 
ENDROOT
BRANCH   2   8
HETATM    8  C   UNL     2     -10.520  16.849  65.772  1.00  0.00    -0.268 C  
HETATM    9  H   UNL     2     -10.135  18.766  65.452  1.00  0.00     0.000 HD 
HETATM   10  O   UNL     2      -9.724  18.008  65.851  1.00  0.00    -0.530 OA 
ENDBRANCH   2   8
BRANCH   2  11
HETATM   11  C   UNL     2     -10.561  15.072  67.721  1.00  0.00    -0.264 C  
HETATM   12  H   UNL     2     -12.091  15.556  68.871  1.00  0.00     0.000 HD 
HETATM   13  O   UNL     2     -11.665  15.885  68.089  1.00  0.00    -0.292 OA 
BRANCH  11  14
HETATM   14  C   UNL     2     -11.083  13.599  67.649  1.00  0.00    -0.273 C  
HETATM   15  H   UNL     2     -12.802  12.753  67.495  1.00  0.00     0.000 HD 
HETATM   16  O   UNL     2     -12.485  13.647  67.539  1.00  0.00    -0.171 OA 
BRANCH  14  17
HETATM   17  C   UNL     2     -10.723  12.704  68.858  1.00  0.00    -0.164 C  
HETATM   18  C   UNL     2     -10.718  11.233  68.478  1.00  0.00    -0.201 C  
HETATM   19  H   UNL     2     -11.443  12.354  70.623  1.00  0.00     0.000 HD 
HETATM   20  O   UNL     2     -11.664  12.904  69.881  1.00  0.00    -0.304 OA 
HETATM   21  O   UNL     2     -10.385  10.307  69.393  1.00  0.00    -0.208 OA 
HETATM   22  O   UNL     2     -10.940  10.868  67.324  1.00  0.00    -0.274 OA 
ENDBRANCH  14  17
ENDBRANCH  11  14
ENDBRANCH   2  11
BRANCH   3  23
HETATM   23  C   UNL     3      -6.684   6.826  69.933  1.00  0.00    -0.049 C  
HETATM   24  O   UNL     3      -7.941   6.613  70.533  1.00  0.00    -0.107 OA 
HETATM   25  H   UNL     3      -8.373   5.986  69.966  1.00  0.00     0.000 HD 
BRANCH  23  26
HETATM   26  C   UNL     3      -6.962   6.880  68.362  1.00  0.00    -0.080 C  
HETATM   27  O   UNL     3      -5.825   7.516  67.833  1.00  0.00    -0.032 OA 
HETATM   28  H   UNL     3      -5.990   7.548  66.898  1.00  0.00     0.000 HD 
BRANCH  26  29
HETATM   29  C   UNL     3      -8.186   7.616  67.629  1.00  0.00    -0.121 C  
HETATM   30  C   UNL     3      -7.954   8.861  66.820  1.00  0.00    -0.107 C  
HETATM   31  O   UNL     3      -9.200   7.963  68.549  1.00  0.00    -0.139 OA 
HETATM   32  O   UNL     3      -7.541   9.993  67.418  1.00  0.00    -0.091 OA 
HETATM   33  O   UNL     3      -8.290   8.892  65.647  1.00  0.00    -0.123 OA 
HETATM   34  H   UNL     3      -9.924   8.398  68.114  1.00  0.00     0.000 HD 
ENDBRANCH  26  29
ENDBRANCH  23  26
ENDBRANCH   3  23
BRANCH   3  35
HETATM   35  C   UNL     3      -6.738   9.167  71.298  1.00  0.00    -0.072 C  
HETATM   36  O   UNL     3      -7.626   9.602  70.312  1.00  0.00    -0.136 OA 
HETATM   37  H   UNL     3      -8.096  10.388  70.568  1.00  0.00     0.000 HD 
ENDBRANCH   3  35
TORSDOF 8
ENDMDL
MODEL      200
REMARK 921   NORMALIZED FREE ENERGY PREDICTED BY IDOCK:   -4.25 KCAL/MOL
REMARK 922        TOTAL FREE ENERGY PREDICTED BY IDOCK:   -7.92 KCAL/MOL
REMARK 923 INTER-LIGAND FREE ENERGY PREDICTED BY IDOCK:   -6.72 KCAL/MOL
REMARK 924 INTRA-LIGAND FREE ENERGY PREDICTED BY IDOCK:   -1.20 KCAL/MOL
REMARK 927      BINDING AFFINITY PREDICTED BY RF-SCORE:    0.00 PKD
ROOT
HETATM    1 MN   UNL     1     -11.920  10.532  68.306  1.00  0.00    -0.290 Mn 
HETATM    2  C   UNL     2      -9.988  18.034  68.493  1.00  0.00    -0.390 C  
HETATM    3  C   UNL     3     -10.759   8.368  67.491  1.00  0.00    -0.137 C  
HETATM    4  H   UNL     3     -10.941   6.451  67.241  1.00  0.00     0.000 HD 
HETATM    5  H   UNL     2     -11.238  16.908  67.582  1.00  0.00     0.000 HD 
HETATM    6  O   UNL     2     -11.119  17.848  67.658  1.00  0.00    -0.211 OA 
HETATM    7  O   UNL     3     -10.523   7.167  66.776  1.00  0.00    -0.271 OA 
ENDROOT
BRANCH   2   8
HETATM    8  C   UNL     2      -9.796  19.559  68.617  1.00  0.00    -0.445 C  
HETATM    9  H   UNL     2      -8.414  20.928  68.241  1.00  0.00     0.000 HD 
HETATM   10  O   UNL     2      -8.533  19.988  68.165  1.00  0.00    -0.275 OA 
ENDBRANCH   2   8
BRANCH   2  11
HETATM   11  C   UNL     2      -8.766  17.247  67.875  1.00  0.00    -0.231 C  
HETATM   12  H   UNL     2      -7.146  16.317  68.515  1.00  0.00     0.000 HD 
HETATM   13  O   UNL     2      -7.880  16.791  68.886  1.00  0.00    -0.241 OA 
BRANCH  11  14
HETATM   14  C   UNL     2      -9.126  16.008  66.990  1.00  0.00    -0.214 C  
HETATM   15  H   UNL     2      -9.612  15.723  65.152  1.00  0.00     0.000 HD 
HETATM   16  O   UNL     2      -9.393  16.475  65.690  1.00  0.00    -0.490 OA 
BRANCH  14  17
HETATM   17  C   UNL     2     -10.343  15.180  67.465  1.00  0.00    -0.242 C  
HETATM   18  C   UNL     2      -9.912  13.857  68.075  1.00  0.00    -0.241 C  
HETATM   19  H   UNL     2     -11.932  14.412  66.663  1.00  0.00     0.000 HD 
HETATM   20  O   UNL     2     -11.185  14.921  66.371  1.00  0.00    -0.339 OA 
HETATM   21  O   UNL     2     -10.833  13.022  68.583  1.00  0.00    -0.247 OA 
HETATM   22  O   UNL     2      -8.723  13.560  68.186  1.00  0.00    -0.164 OA 
ENDBRANCH  14  17
ENDBRANCH  11  14
ENDBRANCH   2  11
BRANCH   3  23
HETATM   23  C   UNL     3     -10.319   8.066  68.979  1.00  0.00    -0.218 C  
HETATM   24  O   UNL     3     -11.342   8.623  69.772  1.00  0.00    -0.448 OA 
HETATM   25  H   UNL     3     -11.078   8.441  70.666  1.00  0.00     0.000 HD 
BRANCH  23  26
HETATM   26  C   UNL     3      -9.940   6.682  69.679  1.00  0.00    -0.175 C  
HETATM   27  O   UNL     3     -11.091   5.890  69.522  1.00  0.00    -0.381 OA 
HETATM   28  H   UNL     3     -10.866   5.067  69.938  1.00  0.00     0.000 HD 
BRANCH  26  29
HETATM   29  C   UNL     3      -9.533   6.464  71.217  1.00  0.00    -0.166 C  
HETATM   30  C   UNL     3      -8.259   5.752  71.576  1.00  0.00    -0.119 C  
HETATM   31  O   UNL     3     -10.545   5.776  71.921  1.00  0.00    -0.217 OA 
HETATM   32  O   UNL     3      -8.100   4.450  71.277  1.00  0.00    -0.079 OA 
HETATM   33  O   UNL     3      -7.431   6.311  72.277  1.00  0.00    -0.091 OA 
HETATM   34  H   UNL     3     -10.304   5.648  72.831  1.00  0.00     0.000 HD 
ENDBRANCH  26  29
ENDBRANCH  23  26
ENDBRANCH   3  23
BRANCH   3  35
HETATM   35  C   UNL     3     -10.069   9.548  66.724  1.00  0.00    -0.245 C  
HETATM   36  O   UNL     3      -9.505  10.489  67.590  1.00  0.00    -0.148 OA 
HETATM   37  H   UNL     3      -9.087  11.204  67.124  1.00  0.00     0.000 HD 
ENDBRANCH   3  35
TORSDOF 8
ENDMDL
MODEL      201
REMARK 921   NORMALIZED FREE ENERGY PREDICTED BY IDOCK:   -4.25 KCAL/MOL
REMARK 922        TOTAL FREE ENERGY PREDICTED BY IDOCK:   -7.91 KCAL/MOL
REMARK 923 INTER-LIGAND FREE ENERGY PREDICTED BY IDOCK:   -6.38 KCAL/MOL
REMARK 924 INTRA-LIGAND FREE ENERGY PREDICTED BY IDOCK:   -1.53 KCAL/MOL
REMARK 927      BINDING AFFINITY PREDICTED BY RF-SCORE:    0.00 PKD
ROOT
HETATM    1 MN   UNL     1     -11.420   5.838  67.449  1.00  0.00    -0.363 Mn 
HETATM    2  C   UNL     2     -12.564  13.301  65.703  1.00  0.00    -0.406 C  
HETATM    3  C   UNL     3      -9.371   4.420  68.148  1.00  0.00    -0.146 C  
HETATM    4  H   UNL     3      -8.730   2.639  68.578  1.00  0.00     0.000 HD 
HETATM    5  H   UNL     2     -12.585  11.610  64.808  1.00  0.00     0.000 HD 
HETATM    6  O   UNL     2     -12.851  12.492  64.574  1.00  0.00    -0.701 OA 
HETATM    7  O   UNL     3      -8.383   3.405  68.134  1.00  0.00    -0.080 OA 
ENDROOT
BRANCH   2   8
HETATM    8  C   UNL     2     -12.996  14.732  65.324  1.00  0.00     0.284 C  
HETATM    9  H   UNL     2     -13.142  15.871  63.710  1.00  0.00     0.000 HD 
HETATM   10  O   UNL     2     -12.875  14.990  63.944  1.00  0.00    -0.679 OA 
ENDBRANCH   2   8
BRANCH   2  11
HETATM   11  C   UNL     2     -11.038  13.131  66.075  1.00  0.00    -0.280 C  
HETATM   12  H   UNL     2      -9.325  12.833  65.137  1.00  0.00     0.000 HD 
HETATM   13  O   UNL     2     -10.243  12.935  64.915  1.00  0.00    -0.301 OA 
BRANCH  11  14
HETATM   14  C   UNL     2     -10.392  14.308  66.877  1.00  0.00    -0.268 C  
HETATM   15  H   UNL     2      -8.705  15.230  66.853  1.00  0.00     0.000 HD 
HETATM   16  O   UNL     2      -9.098  14.515  66.365  1.00  0.00    -0.255 OA 
BRANCH  14  17
HETATM   17  C   UNL     2     -10.279  14.091  68.405  1.00  0.00    -0.239 C  
HETATM   18  C   UNL     2     -10.967  15.203  69.177  1.00  0.00    -0.259 C  
HETATM   19  H   UNL     2      -8.853  13.924  69.708  1.00  0.00     0.000 HD 
HETATM   20  O   UNL     2      -8.923  14.058  68.770  1.00  0.00    -0.141 OA 
HETATM   21  O   UNL     2     -11.007  15.161  70.519  1.00  0.00    -0.273 OA 
HETATM   22  O   UNL     2     -11.559  16.114  68.599  1.00  0.00    -0.376 OA 
ENDBRANCH  14  17
ENDBRANCH  11  14
ENDBRANCH   2  11
BRANCH   3  23
HETATM   23  C   UNL     3      -9.819   4.553  69.658  1.00  0.00    -0.218 C  
HETATM   24  O   UNL     3      -8.851   3.827  70.380  1.00  0.00    -0.075 OA 
HETATM   25  H   UNL     3      -9.120   3.907  71.288  1.00  0.00     0.000 HD 
BRANCH  23  26
HETATM   26  C   UNL     3     -10.118   5.855  70.532  1.00  0.00    -0.197 C  
HETATM   27  O   UNL     3     -10.826   6.700  69.659  1.00  0.00    -0.239 OA 
HETATM   28  H   UNL     3     -11.004   7.475  70.178  1.00  0.00     0.000 HD 
BRANCH  26  29
HETATM   29  C   UNL     3      -9.034   6.826  71.209  1.00  0.00    -0.139 C  
HETATM   30  C   UNL     3      -9.125   8.316  71.025  1.00  0.00    -0.158 C  
HETATM   31  O   UNL     3      -7.724   6.489  70.808  1.00  0.00    -0.097 OA 
HETATM   32  O   UNL     3      -8.956   8.862  69.808  1.00  0.00    -0.140 OA 
HETATM   33  O   UNL     3      -9.194   9.043  72.004  1.00  0.00    -0.373 OA 
HETATM   34  H   UNL     3      -7.082   7.065  71.209  1.00  0.00     0.000 HD 
ENDBRANCH  26  29
ENDBRANCH  23  26
ENDBRANCH   3  23
BRANCH   3  35
HETATM   35  C   UNL     3      -8.799   5.683  67.416  1.00  0.00    -0.105 C  
HETATM   36  O   UNL     3      -9.448   5.937  66.205  1.00  0.00    -0.158 OA 
HETATM   37  H   UNL     3      -9.101   6.703  65.762  1.00  0.00     0.000 HD 
ENDBRANCH   3  35
TORSDOF 8
ENDMDL
MODEL      202
REMARK 921   NORMALIZED FREE ENERGY PREDICTED BY IDOCK:   -4.23 KCAL/MOL
REMARK 922        TOTAL FREE ENERGY PREDICTED BY IDOCK:   -7.88 KCAL/MOL
REMARK 923 INTER-LIGAND FREE ENERGY PREDICTED BY IDOCK:   -6.98 KCAL/MOL
REMARK 924 INTRA-LIGAND FREE ENERGY PREDICTED BY IDOCK:   -0.91 KCAL/MOL
REMARK 927      BINDING AFFINITY PREDICTED BY RF-SCORE:    0.00 PKD
ROOT
HETATM    1 MN   UNL     1      -8.695   7.879  69.399  1.00  0.00    -0.123 Mn 
HETATM    2  C   UNL     2     -10.698  15.358  69.064  1.00  0.00    -0.242 C  
HETATM    3  C   UNL     3      -9.957   5.672  69.877  1.00  0.00    -0.204 C  
HETATM    4  H   UNL     3      -9.792   3.749  70.095  1.00  0.00     0.000 HD 
HETATM    5  H   UNL     2      -9.644  14.215  70.179  1.00  0.00     0.000 HD 
HETATM    6  O   UNL     2      -9.763  15.155  70.112  1.00  0.00    -0.066 OA 
HETATM    7  O   UNL     3     -10.313   4.442  70.485  1.00  0.00    -0.106 OA 
ENDROOT
BRANCH   2   8
HETATM    8  C   UNL     2     -10.891  16.884  68.954  1.00  0.00    -0.274 C  
HETATM    9  H   UNL     2     -10.863  18.298  67.568  1.00  0.00     0.000 HD 
HETATM   10  O   UNL     2     -10.744  17.358  67.636  1.00  0.00    -0.363 OA 
ENDBRANCH   2   8
BRANCH   2  11
HETATM   11  C   UNL     2     -12.006  14.532  69.384  1.00  0.00    -0.322 C  
HETATM   12  H   UNL     2     -12.967  12.968  68.656  1.00  0.00     0.000 HD 
HETATM   13  O   UNL     2     -12.181  13.465  68.464  1.00  0.00    -0.295 OA 
BRANCH  11  14
HETATM   14  C   UNL     2     -12.095  13.917  70.819  1.00  0.00    -0.330 C  
HETATM   15  H   UNL     2     -12.323  12.154  71.550  1.00  0.00     0.000 HD 
HETATM   16  O   UNL     2     -12.270  12.528  70.679  1.00  0.00    -0.369 OA 
BRANCH  14  17
HETATM   17  C   UNL     2     -13.238  14.460  71.709  1.00  0.00    -0.358 C  
HETATM   18  C   UNL     2     -12.799  15.685  72.491  1.00  0.00    -0.435 C  
HETATM   19  H   UNL     2     -14.338  13.796  73.160  1.00  0.00     0.000 HD 
HETATM   20  O   UNL     2     -13.636  13.463  72.614  1.00  0.00    -0.635 OA 
HETATM   21  O   UNL     2     -13.676  16.320  73.288  1.00  0.00    -0.549 OA 
HETATM   22  O   UNL     2     -11.672  16.162  72.358  1.00  0.00    -0.482 OA 
ENDBRANCH  14  17
ENDBRANCH  11  14
ENDBRANCH   2  11
BRANCH   3  23
HETATM   23  C   UNL     3     -10.068   5.420  68.320  1.00  0.00    -0.167 C  
HETATM   24  O   UNL     3     -11.098   6.282  67.894  1.00  0.00    -0.338 OA 
HETATM   25  H   UNL     3     -11.164   6.130  66.959  1.00  0.00     0.000 HD 
BRANCH  23  26
HETATM   26  C   UNL     3      -8.949   5.494  67.184  1.00  0.00    -0.112 C  
HETATM   27  O   UNL     3      -9.284   6.643  66.445  1.00  0.00    -0.156 OA 
HETATM   28  H   UNL     3      -8.618   6.687  65.769  1.00  0.00     0.000 HD 
BRANCH  26  29
HETATM   29  C   UNL     3      -8.651   4.389  66.057  1.00  0.00    -0.113 C  
HETATM   30  C   UNL     3      -9.554   4.256  64.863  1.00  0.00    -0.173 C  
HETATM   31  O   UNL     3      -8.591   3.094  66.614  1.00  0.00    -0.107 OA 
HETATM   32  O   UNL     3     -10.829   3.857  65.015  1.00  0.00    -0.079 OA 
HETATM   33  O   UNL     3      -9.088   4.356  63.738  1.00  0.00    -0.141 OA 
HETATM   34  H   UNL     3      -8.415   2.440  65.947  1.00  0.00     0.000 HD 
ENDBRANCH  26  29
ENDBRANCH  23  26
ENDBRANCH   3  23
BRANCH   3  35
HETATM   35  C   UNL     3     -10.816   6.813  70.521  1.00  0.00    -0.258 C  
HETATM   36  O   UNL     3     -10.096   7.557  71.460  1.00  0.00    -0.182 OA 
HETATM   37  H   UNL     3     -10.617   8.250  71.850  1.00  0.00     0.000 HD 
ENDBRANCH   3  35
TORSDOF 8
ENDMDL
MODEL      203
REMARK 921   NORMALIZED FREE ENERGY PREDICTED BY IDOCK:   -4.23 KCAL/MOL
REMARK 922        TOTAL FREE ENERGY PREDICTED BY IDOCK:   -7.88 KCAL/MOL
REMARK 923 INTER-LIGAND FREE ENERGY PREDICTED BY IDOCK:   -6.97 KCAL/MOL
REMARK 924 INTRA-LIGAND FREE ENERGY PREDICTED BY IDOCK:   -0.91 KCAL/MOL
REMARK 927      BINDING AFFINITY PREDICTED BY RF-SCORE:    0.00 PKD
ROOT
HETATM    1 MN   UNL     1      -8.402  11.335  68.250  1.00  0.00    -0.107 Mn 
HETATM    2  C   UNL     2      -7.546  18.971  67.243  1.00  0.00    -0.229 C  
HETATM    3  C   UNL     3     -10.383   9.785  68.856  1.00  0.00    -0.210 C  
HETATM    4  H   UNL     3     -10.930   7.960  69.233  1.00  0.00     0.000 HD 
HETATM    5  H   UNL     2      -6.986  17.627  68.485  1.00  0.00     0.000 HD 
HETATM    6  O   UNL     2      -6.754  18.536  68.338  1.00  0.00    -0.227 OA 
HETATM    7  O   UNL     3     -11.165   8.826  69.547  1.00  0.00    -0.057 OA 
ENDROOT
BRANCH   2   8
HETATM    8  C   UNL     2      -7.169  20.447  67.005  1.00  0.00    -0.299 C  
HETATM    9  H   UNL     2      -5.989  21.834  67.783  1.00  0.00     0.000 HD 
HETATM   10  O   UNL     2      -6.221  20.925  67.930  1.00  0.00    -0.292 OA 
ENDBRANCH   2   8
BRANCH   2  11
HETATM   11  C   UNL     2      -9.066  18.706  67.580  1.00  0.00    -0.280 C  
HETATM   12  H   UNL     2     -10.600  19.706  68.318  1.00  0.00     0.000 HD 
HETATM   13  O   UNL     2      -9.686  19.865  68.116  1.00  0.00    -0.368 OA 
BRANCH  11  14
HETATM   14  C   UNL     2      -9.957  18.222  66.389  1.00  0.00    -0.380 C  
HETATM   15  H   UNL     2     -11.683  18.687  65.682  1.00  0.00     0.000 HD 
HETATM   16  O   UNL     2     -11.142  18.981  66.405  1.00  0.00    -0.099 OA 
BRANCH  14  17
HETATM   17  C   UNL     2     -10.343  16.724  66.411  1.00  0.00    -0.306 C  
HETATM   18  C   UNL     2     -11.127  16.334  65.169  1.00  0.00    -0.212 C  
HETATM   19  H   UNL     2     -11.368  15.543  67.558  1.00  0.00     0.000 HD 
HETATM   20  O   UNL     2     -11.131  16.463  67.544  1.00  0.00    -0.241 OA 
HETATM   21  O   UNL     2     -11.512  15.058  64.994  1.00  0.00    -0.366 OA 
HETATM   22  O   UNL     2     -11.357  17.146  64.274  1.00  0.00    -1.126 OA 
ENDBRANCH  14  17
ENDBRANCH  11  14
ENDBRANCH   2  11
BRANCH   3  23
HETATM   23  C   UNL     3     -10.569   9.454  67.321  1.00  0.00    -0.244 C  
HETATM   24  O   UNL     3     -10.009  10.559  66.650  1.00  0.00    -0.195 OA 
HETATM   25  H   UNL     3     -10.122  10.360  65.728  1.00  0.00     0.000 HD 
BRANCH  23  26
HETATM   26  C   UNL     3     -10.122   8.171  66.484  1.00  0.00    -0.216 C  
HETATM   27  O   UNL     3     -10.762   7.098  67.130  1.00  0.00    -0.307 OA 
HETATM   28  H   UNL     3     -10.496   6.335  66.632  1.00  0.00     0.000 HD 
BRANCH  26  29
HETATM   29  C   UNL     3      -8.622   7.644  66.263  1.00  0.00    -0.144 C  
HETATM   30  C   UNL     3      -8.369   6.248  65.768  1.00  0.00    -0.145 C  
HETATM   31  O   UNL     3      -7.862   7.753  67.448  1.00  0.00    -0.113 OA 
HETATM   32  O   UNL     3      -8.704   5.187  66.523  1.00  0.00    -0.111 OA 
HETATM   33  O   UNL     3      -7.716   6.076  64.750  1.00  0.00    -0.087 OA 
HETATM   34  H   UNL     3      -6.974   7.441  67.317  1.00  0.00     0.000 HD 
ENDBRANCH  26  29
ENDBRANCH  23  26
ENDBRANCH   3  23
BRANCH   3  35
HETATM   35  C   UNL     3     -10.771  11.212  69.375  1.00  0.00    -0.175 C  
HETATM   36  O   UNL     3     -11.457  11.169  70.591  1.00  0.00    -0.433 OA 
HETATM   37  H   UNL     3     -11.692  12.034  70.906  1.00  0.00     0.000 HD 
ENDBRANCH   3  35
TORSDOF 8
ENDMDL
MODEL      204
REMARK 921   NORMALIZED FREE ENERGY PREDICTED BY IDOCK:   -4.21 KCAL/MOL
REMARK 922        TOTAL FREE ENERGY PREDICTED BY IDOCK:   -7.86 KCAL/MOL
REMARK 923 INTER-LIGAND FREE ENERGY PREDICTED BY IDOCK:   -6.18 KCAL/MOL
REMARK 924 INTRA-LIGAND FREE ENERGY PREDICTED BY IDOCK:   -1.68 KCAL/MOL
REMARK 927      BINDING AFFINITY PREDICTED BY RF-SCORE:    0.00 PKD
ROOT
HETATM    1 MN   UNL     1      -9.457  16.897  69.140  1.00  0.00    -0.223 Mn 
HETATM    2  C   UNL     2      -9.596   9.153  69.389  1.00  0.00    -0.165 C  
HETATM    3  C   UNL     3      -7.839  18.663  68.160  1.00  0.00    -0.287 C  
HETATM    4  H   UNL     3      -7.465  20.558  67.969  1.00  0.00     0.000 HD 
HETATM    5  H   UNL     2      -9.384  10.613  70.607  1.00  0.00     0.000 HD 
HETATM    6  O   UNL     2      -9.514   9.677  70.705  1.00  0.00    -0.244 OA 
HETATM    7  O   UNL     3      -6.952  19.766  68.087  1.00  0.00    -0.270 OA 
ENDROOT
BRANCH   2   8
HETATM    8  C   UNL     2      -9.807   7.634  69.547  1.00  0.00    -0.178 C  
HETATM    9  H   UNL     2      -9.362   6.187  70.826  1.00  0.00     0.000 HD 
HETATM   10  O   UNL     2      -9.232   7.123  70.728  1.00  0.00    -0.156 OA 
ENDBRANCH   2   8
BRANCH   2  11
HETATM   11  C   UNL     2      -8.300   9.577  68.592  1.00  0.00    -0.117 C  
HETATM   12  H   UNL     2      -6.350   9.280  68.698  1.00  0.00     0.000 HD 
HETATM   13  O   UNL     2      -7.130   9.025  69.178  1.00  0.00    -0.061 OA 
BRANCH  11  14
HETATM   14  C   UNL     2      -8.273   9.197  67.075  1.00  0.00    -0.116 C  
HETATM   15  H   UNL     2      -7.007   9.358  65.637  1.00  0.00     0.000 HD 
HETATM   16  O   UNL     2      -7.023   9.588  66.558  1.00  0.00    -0.082 OA 
BRANCH  14  17
HETATM   17  C   UNL     2      -9.378   9.844  66.206  1.00  0.00    -0.176 C  
HETATM   18  C   UNL     2      -9.432  11.349  66.406  1.00  0.00    -0.204 C  
HETATM   19  H   UNL     2     -11.302   9.693  66.020  1.00  0.00     0.000 HD 
HETATM   20  O   UNL     2     -10.623   9.296  66.553  1.00  0.00    -0.178 OA 
HETATM   21  O   UNL     2     -10.305  12.087  65.699  1.00  0.00    -0.237 OA 
HETATM   22  O   UNL     2      -8.640  11.926  67.150  1.00  0.00    -0.158 OA 
ENDBRANCH  14  17
ENDBRANCH  11  14
ENDBRANCH   2  11
BRANCH   3  23
HETATM   23  C   UNL     3      -8.772  18.785  66.890  1.00  0.00    -0.293 C  
HETATM   24  O   UNL     3      -7.931  18.483  65.801  1.00  0.00    -0.498 OA 
HETATM   25  H   UNL     3      -8.492  18.557  65.038  1.00  0.00     0.000 HD 
BRANCH  23  26
HETATM   26  C   UNL     3     -10.166  18.078  66.565  1.00  0.00    -0.382 C  
HETATM   27  O   UNL     3     -10.814  18.006  67.811  1.00  0.00    -0.383 OA 
HETATM   28  H   UNL     3     -11.643  17.585  67.618  1.00  0.00     0.000 HD 
BRANCH  26  29
HETATM   29  C   UNL     3     -10.376  16.614  65.940  1.00  0.00    -0.340 C  
HETATM   30  C   UNL     3     -10.870  15.482  66.798  1.00  0.00    -0.291 C  
HETATM   31  O   UNL     3      -9.185  16.132  65.354  1.00  0.00    -0.305 OA 
HETATM   32  O   UNL     3     -10.118  15.018  67.811  1.00  0.00    -0.232 OA 
HETATM   33  O   UNL     3     -11.883  14.880  66.479  1.00  0.00    -0.279 OA 
HETATM   34  H   UNL     3      -9.310  15.266  64.984  1.00  0.00     0.000 HD 
ENDBRANCH  26  29
ENDBRANCH  23  26
ENDBRANCH   3  23
BRANCH   3  35
HETATM   35  C   UNL     3      -6.994  17.357  68.354  1.00  0.00    -0.201 C  
HETATM   36  O   UNL     3      -7.454  16.302  67.562  1.00  0.00    -0.128 OA 
HETATM   37  H   UNL     3      -6.942  15.510  67.679  1.00  0.00     0.000 HD 
ENDBRANCH   3  35
TORSDOF 8
ENDMDL
MODEL      205
REMARK 921   NORMALIZED FREE ENERGY PREDICTED BY IDOCK:   -4.21 KCAL/MOL
REMARK 922        TOTAL FREE ENERGY PREDICTED BY IDOCK:   -7.85 KCAL/MOL
REMARK 923 INTER-LIGAND FREE ENERGY PREDICTED BY IDOCK:   -6.79 KCAL/MOL
REMARK 924 INTRA-LIGAND FREE ENERGY PREDICTED BY IDOCK:   -1.06 KCAL/MOL
REMARK 927      BINDING AFFINITY PREDICTED BY RF-SCORE:    0.00 PKD
ROOT
HETATM    1 MN   UNL     1      -8.041  11.133  70.285  1.00  0.00    -0.344 Mn 
HETATM    2  C   UNL     2      -9.214  18.112  67.127  1.00  0.00    -0.256 C  
HETATM    3  C   UNL     3      -9.300   8.872  70.236  1.00  0.00    -0.185 C  
HETATM    4  H   UNL     3      -9.343   7.050  70.905  1.00  0.00     0.000 HD 
HETATM    5  H   UNL     2      -9.225  17.316  68.867  1.00  0.00     0.000 HD 
HETATM    6  O   UNL     2      -9.259  18.208  68.542  1.00  0.00    -0.306 OA 
HETATM    7  O   UNL     3      -9.985   7.715  70.685  1.00  0.00    -0.183 OA 
ENDROOT
BRANCH   2   8
HETATM    8  C   UNL     2      -9.268  19.559  66.599  1.00  0.00    -0.354 C  
HETATM    9  H   UNL     2     -10.003  21.319  67.132  1.00  0.00     0.000 HD 
HETATM   10  O   UNL     2      -9.970  20.427  67.458  1.00  0.00    -0.420 OA 
ENDBRANCH   2   8
BRANCH   2  11
HETATM   11  C   UNL     2     -10.388  17.171  66.645  1.00  0.00    -0.310 C  
HETATM   12  H   UNL     2     -11.474  16.898  65.019  1.00  0.00     0.000 HD 
HETATM   13  O   UNL     2     -10.768  17.464  65.309  1.00  0.00    -0.646 OA 
BRANCH  11  14
HETATM   14  C   UNL     2     -10.107  15.634  66.713  1.00  0.00    -0.272 C  
HETATM   15  H   UNL     2      -9.095  14.372  65.675  1.00  0.00     0.000 HD 
HETATM   16  O   UNL     2      -9.266  15.305  65.634  1.00  0.00    -0.231 OA 
BRANCH  14  17
HETATM   17  C   UNL     2     -11.356  14.723  66.647  1.00  0.00    -0.347 C  
HETATM   18  C   UNL     2     -11.176  13.471  67.486  1.00  0.00    -0.283 C  
HETATM   19  H   UNL     2     -12.353  13.788  65.273  1.00  0.00     0.000 HD 
HETATM   20  O   UNL     2     -11.586  14.347  65.314  1.00  0.00    -0.333 OA 
HETATM   21  O   UNL     2     -12.177  12.580  67.583  1.00  0.00    -0.401 OA 
HETATM   22  O   UNL     2     -10.154  13.283  68.147  1.00  0.00    -0.228 OA 
ENDBRANCH  14  17
ENDBRANCH  11  14
ENDBRANCH   2  11
BRANCH   3  23
HETATM   23  C   UNL     3      -8.310   8.367  69.112  1.00  0.00    -0.122 C  
HETATM   24  O   UNL     3      -8.152   6.991  69.370  1.00  0.00    -0.125 OA 
HETATM   25  H   UNL     3      -7.557   6.688  68.694  1.00  0.00     0.000 HD 
BRANCH  23  26
HETATM   26  C   UNL     3      -8.404   8.498  67.524  1.00  0.00    -0.128 C  
HETATM   27  O   UNL     3      -7.915   7.268  67.048  1.00  0.00    -0.106 OA 
HETATM   28  H   UNL     3      -7.971   7.346  66.103  1.00  0.00     0.000 HD 
BRANCH  26  29
HETATM   29  C   UNL     3      -7.662   9.585  66.605  1.00  0.00    -0.098 C  
HETATM   30  C   UNL     3      -7.780   9.526  65.107  1.00  0.00    -0.112 C  
HETATM   31  O   UNL     3      -6.274   9.609  66.860  1.00  0.00    -0.063 OA 
HETATM   32  O   UNL     3      -7.258   8.491  64.424  1.00  0.00    -0.086 OA 
HETATM   33  O   UNL     3      -8.209  10.492  64.496  1.00  0.00    -0.154 OA 
HETATM   34  H   UNL     3      -5.835  10.253  66.316  1.00  0.00     0.000 HD 
ENDBRANCH  26  29
ENDBRANCH  23  26
ENDBRANCH   3  23
BRANCH   3  35
HETATM   35  C   UNL     3     -10.359   9.969  69.873  1.00  0.00    -0.272 C  
HETATM   36  O   UNL     3     -11.573   9.420  69.453  1.00  0.00    -0.430 OA 
HETATM   37  H   UNL     3     -12.215  10.085  69.233  1.00  0.00     0.000 HD 
ENDBRANCH   3  35
TORSDOF 8
ENDMDL
MODEL      206
REMARK 921   NORMALIZED FREE ENERGY PREDICTED BY IDOCK:   -4.20 KCAL/MOL
REMARK 922        TOTAL FREE ENERGY PREDICTED BY IDOCK:   -7.84 KCAL/MOL
REMARK 923 INTER-LIGAND FREE ENERGY PREDICTED BY IDOCK:   -7.26 KCAL/MOL
REMARK 924 INTRA-LIGAND FREE ENERGY PREDICTED BY IDOCK:   -0.59 KCAL/MOL
REMARK 927      BINDING AFFINITY PREDICTED BY RF-SCORE:    0.00 PKD
ROOT
HETATM    1 MN   UNL     1      -9.986   7.111  67.303  1.00  0.00    -0.134 Mn 
HETATM    2  C   UNL     2     -11.879  14.249  64.955  1.00  0.00    -0.396 C  
HETATM    3  C   UNL     3      -8.222   6.130  68.923  1.00  0.00    -0.112 C  
HETATM    4  H   UNL     3      -7.460   4.507  69.666  1.00  0.00     0.000 HD 
HETATM    5  H   UNL     2     -11.100  12.667  64.215  1.00  0.00     0.000 HD 
HETATM    6  O   UNL     2     -11.423  13.483  63.852  1.00  0.00    -0.355 OA 
HETATM    7  O   UNL     3      -7.134   5.361  69.405  1.00  0.00    -0.060 OA 
ENDROOT
BRANCH   2   8
HETATM    8  C   UNL     2     -12.404  15.574  64.367  1.00  0.00    -0.001 C  
HETATM    9  H   UNL     2     -11.692  17.253  63.593  1.00  0.00     0.000 HD 
HETATM   10  O   UNL     2     -11.369  16.436  63.956  1.00  0.00    -0.964 OA 
ENDBRANCH   2   8
BRANCH   2  11
HETATM   11  C   UNL     2     -10.700  14.392  65.997  1.00  0.00    -0.302 C  
HETATM   12  H   UNL     2      -8.968  15.329  66.132  1.00  0.00     0.000 HD 
HETATM   13  O   UNL     2      -9.677  15.243  65.505  1.00  0.00    -0.332 OA 
BRANCH  11  14
HETATM   14  C   UNL     2     -11.097  14.925  67.413  1.00  0.00    -0.325 C  
HETATM   15  H   UNL     2     -10.254  15.998  68.767  1.00  0.00     0.000 HD 
HETATM   16  O   UNL     2     -10.013  15.674  67.907  1.00  0.00    -0.221 OA 
BRANCH  14  17
HETATM   17  C   UNL     2     -11.452  13.841  68.459  1.00  0.00    -0.307 C  
HETATM   18  C   UNL     2     -11.995  14.458  69.736  1.00  0.00    -0.332 C  
HETATM   19  H   UNL     2     -10.518  12.434  69.410  1.00  0.00     0.000 HD 
HETATM   20  O   UNL     2     -10.301  13.099  68.768  1.00  0.00    -0.216 OA 
HETATM   21  O   UNL     2     -12.397  13.666  70.744  1.00  0.00    -0.344 OA 
HETATM   22  O   UNL     2     -12.149  15.674  69.846  1.00  0.00    -0.357 OA 
ENDBRANCH  14  17
ENDBRANCH  11  14
ENDBRANCH   2  11
BRANCH   3  23
HETATM   23  C   UNL     3      -9.329   6.047  70.048  1.00  0.00    -0.153 C  
HETATM   24  O   UNL     3      -8.635   6.299  71.248  1.00  0.00    -0.124 OA 
HETATM   25  H   UNL     3      -9.301   6.249  71.924  1.00  0.00     0.000 HD 
BRANCH  23  26
HETATM   26  C   UNL     3     -10.717   6.824  70.185  1.00  0.00    -0.233 C  
HETATM   27  O   UNL     3     -11.440   6.441  69.040  1.00  0.00    -0.580 OA 
HETATM   28  H   UNL     3     -12.265   6.903  69.121  1.00  0.00     0.000 HD 
BRANCH  26  29
HETATM   29  C   UNL     3     -10.925   8.414  70.252  1.00  0.00    -0.232 C  
HETATM   30  C   UNL     3     -11.944   9.012  71.182  1.00  0.00    -0.298 C  
HETATM   31  O   UNL     3     -11.236   8.944  68.982  1.00  0.00    -0.434 OA 
HETATM   32  O   UNL     3     -13.255   8.779  70.994  1.00  0.00    -0.114 OA 
HETATM   33  O   UNL     3     -11.595   9.836  72.013  1.00  0.00    -0.152 OA 
HETATM   34  H   UNL     3     -11.359   9.886  69.022  1.00  0.00     0.000 HD 
ENDBRANCH  26  29
ENDBRANCH  23  26
ENDBRANCH   3  23
BRANCH   3  35
HETATM   35  C   UNL     3      -7.684   7.539  68.494  1.00  0.00    -0.120 C  
HETATM   36  O   UNL     3      -7.220   8.286  69.580  1.00  0.00    -0.059 OA 
HETATM   37  H   UNL     3      -6.894   9.140  69.319  1.00  0.00     0.000 HD 
ENDBRANCH   3  35
TORSDOF 8
ENDMDL
MODEL      207
REMARK 921   NORMALIZED FREE ENERGY PREDICTED BY IDOCK:   -4.20 KCAL/MOL
REMARK 922        TOTAL FREE ENERGY PREDICTED BY IDOCK:   -7.84 KCAL/MOL
REMARK 923 INTER-LIGAND FREE ENERGY PREDICTED BY IDOCK:   -6.80 KCAL/MOL
REMARK 924 INTRA-LIGAND FREE ENERGY PREDICTED BY IDOCK:   -1.04 KCAL/MOL
REMARK 927      BINDING AFFINITY PREDICTED BY RF-SCORE:    0.00 PKD
ROOT
HETATM    1 MN   UNL     1      -8.146  14.237  67.804  1.00  0.00    -0.114 Mn 
HETATM    2  C   UNL     2      -9.721   7.282  70.838  1.00  0.00    -0.170 C  
HETATM    3  C   UNL     3      -9.473  15.960  66.403  1.00  0.00    -0.295 C  
HETATM    4  H   UNL     3      -9.400  17.663  65.473  1.00  0.00     0.000 HD 
HETATM    5  H   UNL     2      -8.615   8.017  69.460  1.00  0.00     0.000 HD 
HETATM    6  O   UNL     2      -8.685   7.166  69.877  1.00  0.00    -0.140 OA 
HETATM    7  O   UNL     3      -9.830  16.826  65.338  1.00  0.00    -0.547 OA 
ENDROOT
BRANCH   2   8
HETATM    8  C   UNL     2      -9.833   5.901  71.514  1.00  0.00    -0.166 C  
HETATM    9  H   UNL     2     -10.075   5.138  73.325  1.00  0.00     0.000 HD 
HETATM   10  O   UNL     2     -10.005   5.989  72.909  1.00  0.00    -0.170 OA 
ENDBRANCH   2   8
BRANCH   2  11
HETATM   11  C   UNL     2     -11.031   7.790  70.114  1.00  0.00    -0.241 C  
HETATM   12  H   UNL     2     -12.897   8.223  70.593  1.00  0.00     0.000 HD 
HETATM   13  O   UNL     2     -12.109   7.917  71.028  1.00  0.00    -0.298 OA 
BRANCH  11  14
HETATM   14  C   UNL     2     -10.910   9.153  69.356  1.00  0.00    -0.151 C  
HETATM   15  H   UNL     2      -9.639   9.954  68.157  1.00  0.00     0.000 HD 
HETATM   16  O   UNL     2      -9.713   9.126  68.617  1.00  0.00    -0.151 OA 
BRANCH  14  17
HETATM   17  C   UNL     2     -10.897  10.415  70.251  1.00  0.00    -0.242 C  
HETATM   18  C   UNL     2     -12.285  11.019  70.379  1.00  0.00    -0.373 C  
HETATM   19  H   UNL     2     -10.028  12.148  70.240  1.00  0.00     0.000 HD 
HETATM   20  O   UNL     2     -10.036  11.373  69.691  1.00  0.00     0.177 OA 
HETATM   21  O   UNL     2     -12.475  12.100  71.155  1.00  0.00    -0.343 OA 
HETATM   22  O   UNL     2     -13.264  10.497  69.847  1.00  0.00    -0.025 OA 
ENDBRANCH  14  17
ENDBRANCH  11  14
ENDBRANCH   2  11
BRANCH   3  23
HETATM   23  C   UNL     3      -9.780  16.770  67.725  1.00  0.00    -0.248 C  
HETATM   24  O   UNL     3     -10.949  17.500  67.432  1.00  0.00    -0.228 OA 
HETATM   25  H   UNL     3     -11.133  17.986  68.227  1.00  0.00     0.000 HD 
BRANCH  23  26
HETATM   26  C   UNL     3      -9.959  16.259  69.227  1.00  0.00    -0.259 C  
HETATM   27  O   UNL     3      -8.827  15.457  69.454  1.00  0.00    -0.245 OA 
HETATM   28  H   UNL     3      -8.933  15.152  70.348  1.00  0.00     0.000 HD 
BRANCH  26  29
HETATM   29  C   UNL     3     -11.172  15.378  69.802  1.00  0.00    -0.288 C  
HETATM   30  C   UNL     3     -11.856  15.766  71.084  1.00  0.00    -0.425 C  
HETATM   31  O   UNL     3     -10.785  14.034  69.989  1.00  0.00    -0.429 OA 
HETATM   32  O   UNL     3     -11.186  15.732  72.249  1.00  0.00    -0.264 OA 
HETATM   33  O   UNL     3     -13.061  15.962  71.091  1.00  0.00    -0.500 OA 
HETATM   34  H   UNL     3     -11.503  13.513  70.330  1.00  0.00     0.000 HD 
ENDBRANCH  26  29
ENDBRANCH  23  26
ENDBRANCH   3  23
BRANCH   3  35
HETATM   35  C   UNL     3     -10.182  14.579  66.181  1.00  0.00    -0.305 C  
HETATM   36  O   UNL     3     -11.562  14.650  66.386  1.00  0.00    -0.361 OA 
HETATM   37  H   UNL     3     -11.991  13.812  66.251  1.00  0.00     0.000 HD 
ENDBRANCH   3  35
TORSDOF 8
ENDMDL
MODEL      208
REMARK 921   NORMALIZED FREE ENERGY PREDICTED BY IDOCK:   -4.19 KCAL/MOL
REMARK 922        TOTAL FREE ENERGY PREDICTED BY IDOCK:   -7.82 KCAL/MOL
REMARK 923 INTER-LIGAND FREE ENERGY PREDICTED BY IDOCK:   -6.44 KCAL/MOL
REMARK 924 INTRA-LIGAND FREE ENERGY PREDICTED BY IDOCK:   -1.38 KCAL/MOL
REMARK 927      BINDING AFFINITY PREDICTED BY RF-SCORE:    0.00 PKD
ROOT
HETATM    1 MN   UNL     1      -7.874  16.139  65.939  1.00  0.00    -0.250 Mn 
HETATM    2  C   UNL     2      -8.574   8.423  65.778  1.00  0.00    -0.159 C  
HETATM    3  C   UNL     3      -9.439  18.101  66.569  1.00  0.00    -0.304 C  
HETATM    4  H   UNL     3      -9.624  20.031  66.670  1.00  0.00     0.000 HD 
HETATM    5  H   UNL     2      -8.377   9.861  64.531  1.00  0.00     0.000 HD 
HETATM    6  O   UNL     2      -8.339   8.914  64.468  1.00  0.00    -0.158 OA 
HETATM    7  O   UNL     3     -10.191  19.298  66.460  1.00  0.00    -0.366 OA 
ENDROOT
BRANCH   2   8
HETATM    8  C   UNL     2      -8.512   6.886  65.675  1.00  0.00    -0.136 C  
HETATM    9  H   UNL     2      -7.155   5.452  65.513  1.00  0.00     0.000 HD 
HETATM   10  O   UNL     2      -7.194   6.399  65.576  1.00  0.00    -0.066 OA 
ENDBRANCH   2   8
BRANCH   2  11
HETATM   11  C   UNL     2      -9.944   9.011  66.302  1.00  0.00    -0.281 C  
HETATM   12  H   UNL     2     -11.570   8.354  67.208  1.00  0.00     0.000 HD 
HETATM   13  O   UNL     2     -10.747   8.001  66.892  1.00  0.00    -0.322 OA 
BRANCH  11  14
HETATM   14  C   UNL     2      -9.836  10.175  67.342  1.00  0.00    -0.187 C  
HETATM   15  H   UNL     2      -9.211  11.993  67.314  1.00  0.00     0.000 HD 
HETATM   16  O   UNL     2      -9.277  11.286  66.683  1.00  0.00    -0.171 OA 
BRANCH  14  17
HETATM   17  C   UNL     2      -8.979   9.874  68.594  1.00  0.00    -0.128 C  
HETATM   18  C   UNL     2      -9.848   9.623  69.815  1.00  0.00    -0.229 C  
HETATM   19  H   UNL     2      -7.611  10.783  69.624  1.00  0.00     0.000 HD 
HETATM   20  O   UNL     2      -8.137  10.967  68.855  1.00  0.00    -0.142 OA 
HETATM   21  O   UNL     2      -9.277   9.303  70.988  1.00  0.00    -0.246 OA 
HETATM   22  O   UNL     2     -11.076   9.631  69.740  1.00  0.00    -0.238 OA 
ENDBRANCH  14  17
ENDBRANCH  11  14
ENDBRANCH   2  11
BRANCH   3  23
HETATM   23  C   UNL     3      -8.762  18.157  67.997  1.00  0.00    -0.269 C  
HETATM   24  O   UNL     3      -9.815  18.474  68.877  1.00  0.00    -0.377 OA 
HETATM   25  H   UNL     3      -9.408  18.508  69.735  1.00  0.00     0.000 HD 
BRANCH  23  26
HETATM   26  C   UNL     3      -7.878  17.069  68.760  1.00  0.00    -0.253 C  
HETATM   27  O   UNL     3      -6.669  17.043  68.042  1.00  0.00    -0.144 OA 
HETATM   28  H   UNL     3      -6.143  16.395  68.496  1.00  0.00     0.000 HD 
BRANCH  26  29
HETATM   29  C   UNL     3      -8.234  15.517  68.965  1.00  0.00    -0.227 C  
HETATM   30  C   UNL     3      -9.666  15.063  69.020  1.00  0.00    -0.229 C  
HETATM   31  O   UNL     3      -7.646  15.008  70.144  1.00  0.00    -0.283 OA 
HETATM   32  O   UNL     3     -10.464  15.451  70.030  1.00  0.00    -0.285 OA 
HETATM   33  O   UNL     3     -10.062  14.217  68.234  1.00  0.00    -0.227 OA 
HETATM   34  H   UNL     3      -7.857  14.089  70.265  1.00  0.00     0.000 HD 
ENDBRANCH  26  29
ENDBRANCH  23  26
ENDBRANCH   3  23
BRANCH   3  35
HETATM   35  C   UNL     3     -10.374  16.891  66.223  1.00  0.00    -0.308 C  
HETATM   36  O   UNL     3      -9.924  16.170  65.115  1.00  0.00    -0.459 OA 
HETATM   37  H   UNL     3     -10.490  15.437  64.905  1.00  0.00     0.000 HD 
ENDBRANCH   3  35
TORSDOF 8
ENDMDL
MODEL      209
REMARK 921   NORMALIZED FREE ENERGY PREDICTED BY IDOCK:   -4.16 KCAL/MOL
REMARK 922        TOTAL FREE ENERGY PREDICTED BY IDOCK:   -7.78 KCAL/MOL
REMARK 923 INTER-LIGAND FREE ENERGY PREDICTED BY IDOCK:   -7.03 KCAL/MOL
REMARK 924 INTRA-LIGAND FREE ENERGY PREDICTED BY IDOCK:   -0.76 KCAL/MOL
REMARK 927      BINDING AFFINITY PREDICTED BY RF-SCORE:    0.00 PKD
ROOT
HETATM    1 MN   UNL     1     -12.241  11.721  67.371  1.00  0.00    -0.282 Mn 
HETATM    2  C   UNL     2     -11.057   5.945  72.400  1.00  0.00    -0.280 C  
HETATM    3  C   UNL     3     -11.357  14.141  67.129  1.00  0.00    -0.332 C  
HETATM    4  H   UNL     3     -11.465  15.789  66.110  1.00  0.00     0.000 HD 
HETATM    5  H   UNL     2     -12.475   7.127  71.897  1.00  0.00     0.000 HD 
HETATM    6  O   UNL     2     -12.416   6.350  72.441  1.00  0.00    -0.146 OA 
HETATM    7  O   UNL     3     -11.347  15.554  67.023  1.00  0.00    -0.244 OA 
ENDROOT
BRANCH   2   8
HETATM    8  C   UNL     2     -10.961   4.685  73.282  1.00  0.00    -0.303 C  
HETATM    9  H   UNL     2     -12.096   3.161  73.842  1.00  0.00     0.000 HD 
HETATM   10  O   UNL     2     -12.155   3.938  73.299  1.00  0.00     0.110 OA 
ENDBRANCH   2   8
BRANCH   2  11
HETATM   11  C   UNL     2     -10.152   7.158  72.852  1.00  0.00    -0.210 C  
HETATM   12  H   UNL     2      -9.309   7.821  74.510  1.00  0.00     0.000 HD 
HETATM   13  O   UNL     2      -9.854   7.092  74.238  1.00  0.00    -0.289 OA 
BRANCH  11  14
HETATM   14  C   UNL     2      -8.790   7.315  72.098  1.00  0.00    -0.127 C  
HETATM   15  H   UNL     2      -7.028   6.565  72.268  1.00  0.00     0.000 HD 
HETATM   16  O   UNL     2      -7.855   6.470  72.725  1.00  0.00    -0.101 OA 
BRANCH  14  17
HETATM   17  C   UNL     2      -8.204   8.747  72.070  1.00  0.00    -0.010 C  
HETATM   18  C   UNL     2      -7.836   9.169  70.658  1.00  0.00    -0.146 C  
HETATM   19  H   UNL     2      -6.692   9.672  72.854  1.00  0.00     0.000 HD 
HETATM   20  O   UNL     2      -7.052   8.793  72.872  1.00  0.00    -0.324 OA 
HETATM   21  O   UNL     2      -7.350  10.401  70.433  1.00  0.00    -0.245 OA 
HETATM   22  O   UNL     2      -8.043   8.432  69.694  1.00  0.00    -0.110 OA 
ENDBRANCH  14  17
ENDBRANCH  11  14
ENDBRANCH   2  11
BRANCH   3  23
HETATM   23  C   UNL     3     -10.303  13.630  66.068  1.00  0.00    -0.304 C  
HETATM   24  O   UNL     3      -9.572  12.634  66.745  1.00  0.00    -0.227 OA 
HETATM   25  H   UNL     3      -8.938  12.327  66.107  1.00  0.00     0.000 HD 
BRANCH  23  26
HETATM   26  C   UNL     3     -10.520  13.071  64.589  1.00  0.00    -0.380 C  
HETATM   27  O   UNL     3     -11.676  13.733  64.138  1.00  0.00    -0.471 OA 
HETATM   28  H   UNL     3     -11.806  13.401  63.257  1.00  0.00     0.000 HD 
BRANCH  26  29
HETATM   29  C   UNL     3     -10.767  11.542  64.167  1.00  0.00    -0.368 C  
HETATM   30  C   UNL     3      -9.605  10.612  63.955  1.00  0.00    -0.306 C  
HETATM   31  O   UNL     3     -11.524  11.455  62.979  1.00  0.00    -0.853 OA 
HETATM   32  O   UNL     3      -8.740  10.824  62.947  1.00  0.00    -0.201 OA 
HETATM   33  O   UNL     3      -9.533   9.577  64.598  1.00  0.00    -0.228 OA 
HETATM   34  H   UNL     3     -11.669  10.549  62.729  1.00  0.00     0.000 HD 
ENDBRANCH  26  29
ENDBRANCH  23  26
ENDBRANCH   3  23
BRANCH   3  35
HETATM   35  C   UNL     3     -11.162  13.753  68.636  1.00  0.00    -0.278 C  
HETATM   36  O   UNL     3     -12.335  13.901  69.381  1.00  0.00    -0.370 OA 
HETATM   37  H   UNL     3     -12.216  13.666  70.294  1.00  0.00     0.000 HD 
ENDBRANCH   3  35
TORSDOF 8
ENDMDL
MODEL      210
REMARK 921   NORMALIZED FREE ENERGY PREDICTED BY IDOCK:   -4.16 KCAL/MOL
REMARK 922        TOTAL FREE ENERGY PREDICTED BY IDOCK:   -7.78 KCAL/MOL
REMARK 923 INTER-LIGAND FREE ENERGY PREDICTED BY IDOCK:   -5.16 KCAL/MOL
REMARK 924 INTRA-LIGAND FREE ENERGY PREDICTED BY IDOCK:   -2.62 KCAL/MOL
REMARK 927      BINDING AFFINITY PREDICTED BY RF-SCORE:    0.00 PKD
ROOT
HETATM    1 MN   UNL     1      -8.741   5.129  69.805  1.00  0.00    -0.088 Mn 
HETATM    2  C   UNL     2     -10.553  11.653  66.035  1.00  0.00    -0.258 C  
HETATM    3  C   UNL     3      -6.891   4.442  71.478  1.00  0.00    -0.034 C  
HETATM    4  H   UNL     3      -6.132   2.987  72.516  1.00  0.00     0.000 HD 
HETATM    5  H   UNL     2      -9.894   9.905  65.621  1.00  0.00     0.000 HD 
HETATM    6  O   UNL     2     -10.215  10.636  65.106  1.00  0.00    -0.296 OA 
HETATM    7  O   UNL     3      -5.797   3.742  72.046  1.00  0.00    -0.008 OA 
ENDROOT
BRANCH   2   8
HETATM    8  C   UNL     2     -11.074  12.839  65.199  1.00  0.00    -0.291 C  
HETATM    9  H   UNL     2     -11.283  13.350  63.297  1.00  0.00     0.000 HD 
HETATM   10  O   UNL     2     -10.962  12.619  63.812  1.00  0.00    -0.398 OA 
ENDBRANCH   2   8
BRANCH   2  11
HETATM   11  C   UNL     2      -9.290  11.961  66.933  1.00  0.00    -0.196 C  
HETATM   12  H   UNL     2      -8.242  13.536  67.497  1.00  0.00     0.000 HD 
HETATM   13  O   UNL     2      -9.001  13.350  66.957  1.00  0.00    -0.217 OA 
BRANCH  11  14
HETATM   14  C   UNL     2      -9.374  11.485  68.421  1.00  0.00    -0.194 C  
HETATM   15  H   UNL     2      -8.251  10.474  69.609  1.00  0.00     0.000 HD 
HETATM   16  O   UNL     2      -8.200  10.763  68.705  1.00  0.00    -0.129 OA 
BRANCH  14  17
HETATM   17  C   UNL     2     -10.587  10.589  68.767  1.00  0.00    -0.207 C  
HETATM   18  C   UNL     2     -11.717  11.398  69.381  1.00  0.00    -0.338 C  
HETATM   19  H   UNL     2     -10.933   9.051  69.895  1.00  0.00     0.000 HD 
HETATM   20  O   UNL     2     -10.189   9.601  69.682  1.00  0.00    -0.193 OA 
HETATM   21  O   UNL     2     -12.872  10.793  69.707  1.00  0.00    -0.174 OA 
HETATM   22  O   UNL     2     -11.632  12.617  69.519  1.00  0.00    -0.287 OA 
ENDBRANCH  14  17
ENDBRANCH  11  14
ENDBRANCH   2  11
BRANCH   3  23
HETATM   23  C   UNL     3      -7.907   4.672  72.668  1.00  0.00    -0.088 C  
HETATM   24  O   UNL     3      -7.433   5.827  73.320  1.00  0.00    -0.093 OA 
HETATM   25  H   UNL     3      -8.044   5.966  74.035  1.00  0.00     0.000 HD 
BRANCH  23  26
HETATM   26  C   UNL     3      -9.497   4.812  72.649  1.00  0.00    -0.134 C  
HETATM   27  O   UNL     3      -9.900   4.009  71.568  1.00  0.00    -0.176 OA 
HETATM   28  H   UNL     3     -10.846   4.091  71.556  1.00  0.00     0.000 HD 
BRANCH  26  29
HETATM   29  C   UNL     3     -10.340   6.164  72.456  1.00  0.00    -0.193 C  
HETATM   30  C   UNL     3     -11.353   6.280  71.352  1.00  0.00    -0.296 C  
HETATM   31  O   UNL     3      -9.488   7.278  72.287  1.00  0.00    -0.141 OA 
HETATM   32  O   UNL     3     -10.963   6.257  70.065  1.00  0.00    -0.288 OA 
HETATM   33  O   UNL     3     -12.512   6.553  71.621  1.00  0.00    -0.336 OA 
HETATM   34  H   UNL     3      -9.987   8.078  72.172  1.00  0.00     0.000 HD 
ENDBRANCH  26  29
ENDBRANCH  23  26
ENDBRANCH   3  23
BRANCH   3  35
HETATM   35  C   UNL     3      -6.338   5.688  70.704  1.00  0.00    -0.031 C  
HETATM   36  O   UNL     3      -7.304   6.683  70.538  1.00  0.00    -0.077 OA 
HETATM   37  H   UNL     3      -6.969   7.439  70.069  1.00  0.00     0.000 HD 
ENDBRANCH   3  35
TORSDOF 8
ENDMDL
MODEL      211
REMARK 921   NORMALIZED FREE ENERGY PREDICTED BY IDOCK:   -4.16 KCAL/MOL
REMARK 922        TOTAL FREE ENERGY PREDICTED BY IDOCK:   -7.78 KCAL/MOL
REMARK 923 INTER-LIGAND FREE ENERGY PREDICTED BY IDOCK:   -7.31 KCAL/MOL
REMARK 924 INTRA-LIGAND FREE ENERGY PREDICTED BY IDOCK:   -0.47 KCAL/MOL
REMARK 927      BINDING AFFINITY PREDICTED BY RF-SCORE:    0.00 PKD
ROOT
HETATM    1 MN   UNL     1     -10.627  10.340  69.927  1.00  0.00    -0.186 Mn 
HETATM    2  C   UNL     2      -9.950  17.695  67.580  1.00  0.00    -0.322 C  
HETATM    3  C   UNL     3     -10.393   8.031  68.785  1.00  0.00    -0.206 C  
HETATM    4  H   UNL     3     -10.540   6.109  69.016  1.00  0.00     0.000 HD 
HETATM    5  H   UNL     2     -11.331  16.512  68.176  1.00  0.00     0.000 HD 
HETATM    6  O   UNL     2     -11.278  17.446  68.011  1.00  0.00    -0.157 OA 
HETATM    7  O   UNL     3     -10.718   6.731  68.321  1.00  0.00    -0.214 OA 
ENDROOT
BRANCH   2   8
HETATM    8  C   UNL     2      -9.864  19.211  67.314  1.00  0.00    -0.334 C  
HETATM    9  H   UNL     2     -10.140  20.917  68.282  1.00  0.00     0.000 HD 
HETATM   10  O   UNL     2     -10.193  19.982  68.446  1.00  0.00    -0.439 OA 
ENDBRANCH   2   8
BRANCH   2  11
HETATM   11  C   UNL     2      -9.639  16.771  66.336  1.00  0.00    -0.281 C  
HETATM   12  H   UNL     2      -8.103  16.352  65.169  1.00  0.00     0.000 HD 
HETATM   13  O   UNL     2      -8.290  16.908  65.916  1.00  0.00    -0.498 OA 
BRANCH  11  14
HETATM   14  C   UNL     2      -9.903  15.242  66.536  1.00  0.00    -0.266 C  
HETATM   15  H   UNL     2      -8.903  13.624  66.254  1.00  0.00     0.000 HD 
HETATM   16  O   UNL     2      -8.743  14.553  66.134  1.00  0.00     0.050 OA 
BRANCH  14  17
HETATM   17  C   UNL     2     -11.104  14.664  65.751  1.00  0.00    -0.331 C  
HETATM   18  C   UNL     2     -11.603  15.641  64.701  1.00  0.00    -0.249 C  
HETATM   19  H   UNL     2     -12.889  14.030  66.163  1.00  0.00     0.000 HD 
HETATM   20  O   UNL     2     -12.151  14.385  66.644  1.00  0.00    -0.419 OA 
HETATM   21  O   UNL     2     -12.618  15.293  63.891  1.00  0.00    -0.765 OA 
HETATM   22  O   UNL     2     -11.050  16.725  64.518  1.00  0.00    -0.989 OA 
ENDBRANCH  14  17
ENDBRANCH  11  14
ENDBRANCH   2  11
BRANCH   3  23
HETATM   23  C   UNL     3      -8.921   7.921  69.351  1.00  0.00    -0.145 C  
HETATM   24  O   UNL     3      -8.783   9.038  70.199  1.00  0.00    -0.143 OA 
HETATM   25  H   UNL     3      -7.898   8.971  70.538  1.00  0.00     0.000 HD 
BRANCH  23  26
HETATM   26  C   UNL     3      -8.197   6.716  70.107  1.00  0.00    -0.133 C  
HETATM   27  O   UNL     3      -8.292   5.639  69.207  1.00  0.00    -0.104 OA 
HETATM   28  H   UNL     3      -7.861   4.922  69.657  1.00  0.00     0.000 HD 
BRANCH  26  29
HETATM   29  C   UNL     3      -8.620   6.075  71.516  1.00  0.00    -0.132 C  
HETATM   30  C   UNL     3      -9.889   5.278  71.641  1.00  0.00    -0.170 C  
HETATM   31  O   UNL     3      -8.710   7.062  72.521  1.00  0.00    -0.123 OA 
HETATM   32  O   UNL     3     -11.084   5.871  71.473  1.00  0.00    -0.270 OA 
HETATM   33  O   UNL     3      -9.843   4.128  72.050  1.00  0.00    -0.158 OA 
HETATM   34  H   UNL     3      -8.961   6.682  73.355  1.00  0.00     0.000 HD 
ENDBRANCH  26  29
ENDBRANCH  23  26
ENDBRANCH   3  23
BRANCH   3  35
HETATM   35  C   UNL     3     -10.687   9.057  67.637  1.00  0.00    -0.163 C  
HETATM   36  O   UNL     3      -9.833  10.162  67.679  1.00  0.00    -0.164 OA 
HETATM   37  H   UNL     3     -10.011  10.785  66.983  1.00  0.00     0.000 HD 
ENDBRANCH   3  35
TORSDOF 8
ENDMDL
MODEL      212
REMARK 921   NORMALIZED FREE ENERGY PREDICTED BY IDOCK:   -4.12 KCAL/MOL
REMARK 922        TOTAL FREE ENERGY PREDICTED BY IDOCK:   -7.72 KCAL/MOL
REMARK 923 INTER-LIGAND FREE ENERGY PREDICTED BY IDOCK:   -6.95 KCAL/MOL
REMARK 924 INTRA-LIGAND FREE ENERGY PREDICTED BY IDOCK:   -0.77 KCAL/MOL
REMARK 927      BINDING AFFINITY PREDICTED BY RF-SCORE:    0.00 PKD
ROOT
HETATM    1 MN   UNL     1      -7.768   9.154  67.957  1.00  0.00    -0.083 Mn 
HETATM    2  C   UNL     2      -7.627  16.763  66.497  1.00  0.00    -0.298 C  
HETATM    3  C   UNL     3      -9.008   7.643  69.653  1.00  0.00    -0.140 C  
HETATM    4  H   UNL     3      -9.235   5.833  70.315  1.00  0.00     0.000 HD 
HETATM    5  H   UNL     2      -6.447  15.424  67.185  1.00  0.00     0.000 HD 
HETATM    6  O   UNL     2      -6.342  16.328  66.912  1.00  0.00    -0.277 OA 
HETATM    7  O   UNL     3      -9.231   6.705  70.691  1.00  0.00    -0.158 OA 
ENDROOT
BRANCH   2   8
HETATM    8  C   UNL     2      -7.457  18.230  66.054  1.00  0.00    -0.220 C  
HETATM    9  H   UNL     2      -8.581  19.809  65.645  1.00  0.00     0.000 HD 
HETATM   10  O   UNL     2      -8.686  18.905  65.918  1.00  0.00    -0.464 OA 
ENDBRANCH   2   8
BRANCH   2  11
HETATM   11  C   UNL     2      -8.650  16.527  67.678  1.00  0.00    -0.182 C  
HETATM   12  H   UNL     2      -9.045  17.301  69.451  1.00  0.00     0.000 HD 
HETATM   13  O   UNL     2      -8.430  17.442  68.741  1.00  0.00    -0.276 OA 
BRANCH  11  14
HETATM   14  C   UNL     2     -10.165  16.620  67.301  1.00  0.00    -0.290 C  
HETATM   15  H   UNL     2     -11.712  17.505  68.022  1.00  0.00     0.000 HD 
HETATM   16  O   UNL     2     -10.791  17.449  68.250  1.00  0.00    -0.355 OA 
BRANCH  14  17
HETATM   17  C   UNL     2     -10.925  15.273  67.260  1.00  0.00    -0.327 C  
HETATM   18  C   UNL     2     -11.264  14.783  68.657  1.00  0.00    -0.273 C  
HETATM   19  H   UNL     2     -10.595  13.481  66.597  1.00  0.00     0.000 HD 
HETATM   20  O   UNL     2     -10.129  14.308  66.622  1.00  0.00    -0.261 OA 
HETATM   21  O   UNL     2     -11.963  13.647  68.817  1.00  0.00    -0.345 OA 
HETATM   22  O   UNL     2     -10.977  15.443  69.656  1.00  0.00    -0.246 OA 
ENDBRANCH  14  17
ENDBRANCH  11  14
ENDBRANCH   2  11
BRANCH   3  23
HETATM   23  C   UNL     3     -10.075   7.300  68.538  1.00  0.00    -0.172 C  
HETATM   24  O   UNL     3     -11.320   7.447  69.180  1.00  0.00    -0.436 OA 
HETATM   25  H   UNL     3     -11.960   7.240  68.510  1.00  0.00     0.000 HD 
BRANCH  23  26
HETATM   26  C   UNL     3     -10.270   7.914  67.077  1.00  0.00    -0.312 C  
HETATM   27  O   UNL     3      -8.973   7.934  66.536  1.00  0.00    -0.144 OA 
HETATM   28  H   UNL     3      -9.089   8.300  65.667  1.00  0.00     0.000 HD 
BRANCH  26  29
HETATM   29  C   UNL     3     -10.858   9.364  66.717  1.00  0.00     0.058 C  
HETATM   30  C   UNL     3     -10.013  10.368  65.983  1.00  0.00    -0.241 C  
HETATM   31  O   UNL     3     -11.301  10.039  67.875  1.00  0.00    -0.505 OA 
HETATM   32  O   UNL     3      -8.911  10.881  66.559  1.00  0.00    -0.159 OA 
HETATM   33  O   UNL     3     -10.411  10.837  64.928  1.00  0.00    -0.312 OA 
HETATM   34  H   UNL     3     -11.648  10.897  67.661  1.00  0.00     0.000 HD 
ENDBRANCH  26  29
ENDBRANCH  23  26
ENDBRANCH   3  23
BRANCH   3  35
HETATM   35  C   UNL     3      -9.001   9.083  70.274  1.00  0.00    -0.198 C  
HETATM   36  O   UNL     3      -8.399   9.116  71.535  1.00  0.00    -0.336 OA 
HETATM   37  H   UNL     3      -8.395   9.989  71.911  1.00  0.00     0.000 HD 
ENDBRANCH   3  35
TORSDOF 8
ENDMDL
MODEL      213
REMARK 921   NORMALIZED FREE ENERGY PREDICTED BY IDOCK:   -4.11 KCAL/MOL
REMARK 922        TOTAL FREE ENERGY PREDICTED BY IDOCK:   -7.71 KCAL/MOL
REMARK 923 INTER-LIGAND FREE ENERGY PREDICTED BY IDOCK:   -6.37 KCAL/MOL
REMARK 924 INTRA-LIGAND FREE ENERGY PREDICTED BY IDOCK:   -1.34 KCAL/MOL
REMARK 927      BINDING AFFINITY PREDICTED BY RF-SCORE:    0.00 PKD
ROOT
HETATM    1 MN   UNL     1     -11.575   6.522  66.888  1.00  0.00    -0.358 Mn 
HETATM    2  C   UNL     2     -11.455  14.012  64.903  1.00  0.00    -0.358 C  
HETATM    3  C   UNL     3      -9.836   4.857  67.836  1.00  0.00    -0.143 C  
HETATM    4  H   UNL     3      -9.504   3.019  68.364  1.00  0.00     0.000 HD 
HETATM    5  H   UNL     2     -11.618  12.313  64.039  1.00  0.00     0.000 HD 
HETATM    6  O   UNL     2     -11.729  13.215  63.762  1.00  0.00    -0.437 OA 
HETATM    7  O   UNL     3      -9.006   3.715  67.950  1.00  0.00    -0.108 OA 
ENDROOT
BRANCH   2   8
HETATM    8  C   UNL     2     -11.637  15.476  64.454  1.00  0.00    -0.258 C  
HETATM    9  H   UNL     2     -13.061  16.658  63.749  1.00  0.00     0.000 HD 
HETATM   10  O   UNL     2     -12.949  15.756  64.025  1.00  0.00    -0.442 OA 
ENDBRANCH   2   8
BRANCH   2  11
HETATM   11  C   UNL     2     -10.019  13.644  65.447  1.00  0.00    -0.213 C  
HETATM   12  H   UNL     2      -8.586  14.502  66.500  1.00  0.00     0.000 HD 
HETATM   13  O   UNL     2      -9.450  14.724  66.173  1.00  0.00    -0.296 OA 
BRANCH  11  14
HETATM   14  C   UNL     2      -9.936  12.382  66.366  1.00  0.00    -0.242 C  
HETATM   15  H   UNL     2     -10.931  11.702  67.864  1.00  0.00     0.000 HD 
HETATM   16  O   UNL     2     -10.981  12.468  67.306  1.00  0.00    -0.245 OA 
BRANCH  14  17
HETATM   17  C   UNL     2      -8.607  12.203  67.137  1.00  0.00    -0.185 C  
HETATM   18  C   UNL     2      -8.179  10.746  67.176  1.00  0.00    -0.123 C  
HETATM   19  H   UNL     2      -7.953  12.553  68.928  1.00  0.00     0.000 HD 
HETATM   20  O   UNL     2      -8.768  12.662  68.455  1.00  0.00    -0.175 OA 
HETATM   21  O   UNL     2      -7.022  10.404  67.768  1.00  0.00    -0.080 OA 
HETATM   22  O   UNL     2      -8.831   9.870  66.608  1.00  0.00    -0.133 OA 
ENDBRANCH  14  17
ENDBRANCH  11  14
ENDBRANCH   2  11
BRANCH   3  23
HETATM   23  C   UNL     3     -10.423   5.099  69.284  1.00  0.00    -0.123 C  
HETATM   24  O   UNL     3      -9.948   4.013  70.045  1.00  0.00    -0.190 OA 
HETATM   25  H   UNL     3     -10.301   4.158  70.915  1.00  0.00     0.000 HD 
BRANCH  23  26
HETATM   26  C   UNL     3     -10.314   6.373  70.240  1.00  0.00    -0.205 C  
HETATM   27  O   UNL     3     -11.471   6.306  71.036  1.00  0.00    -0.319 OA 
HETATM   28  H   UNL     3     -11.406   7.064  71.604  1.00  0.00     0.000 HD 
BRANCH  26  29
HETATM   29  C   UNL     3     -10.252   7.911  69.784  1.00  0.00    -0.212 C  
HETATM   30  C   UNL     3      -9.835   8.979  70.757  1.00  0.00    -0.243 C  
HETATM   31  O   UNL     3     -11.496   8.345  69.278  1.00  0.00    -0.262 OA 
HETATM   32  O   UNL     3     -10.597   9.255  71.831  1.00  0.00    -0.324 OA 
HETATM   33  O   UNL     3      -8.889   9.703  70.492  1.00  0.00    -0.225 OA 
HETATM   34  H   UNL     3     -11.459   9.256  69.009  1.00  0.00     0.000 HD 
ENDBRANCH  26  29
ENDBRANCH  23  26
ENDBRANCH   3  23
BRANCH   3  35
HETATM   35  C   UNL     3      -9.014   6.005  67.153  1.00  0.00    -0.114 C  
HETATM   36  O   UNL     3      -9.455   6.275  65.855  1.00  0.00    -0.358 OA 
HETATM   37  H   UNL     3      -8.957   6.971  65.441  1.00  0.00     0.000 HD 
ENDBRANCH   3  35
TORSDOF 8
ENDMDL
MODEL      214
REMARK 921   NORMALIZED FREE ENERGY PREDICTED BY IDOCK:   -4.09 KCAL/MOL
REMARK 922        TOTAL FREE ENERGY PREDICTED BY IDOCK:   -7.68 KCAL/MOL
REMARK 923 INTER-LIGAND FREE ENERGY PREDICTED BY IDOCK:   -6.02 KCAL/MOL
REMARK 924 INTRA-LIGAND FREE ENERGY PREDICTED BY IDOCK:   -1.66 KCAL/MOL
REMARK 927      BINDING AFFINITY PREDICTED BY RF-SCORE:    0.00 PKD
ROOT
HETATM    1 MN   UNL     1      -8.617  14.942  70.418  1.00  0.00    -0.409 Mn 
HETATM    2  C   UNL     2     -10.749   7.848  72.695  1.00  0.00    -0.347 C  
HETATM    3  C   UNL     3      -8.020  16.027  68.146  1.00  0.00    -0.142 C  
HETATM    4  H   UNL     3      -7.421  17.644  67.253  1.00  0.00     0.000 HD 
HETATM    5  H   UNL     2      -9.242   9.012  72.886  1.00  0.00     0.000 HD 
HETATM    6  O   UNL     2      -9.506   8.192  73.287  1.00  0.00    -0.270 OA 
HETATM    7  O   UNL     3      -7.286  16.709  67.144  1.00  0.00    -0.150 OA 
ENDROOT
BRANCH   2   8
HETATM    8  C   UNL     2     -11.177   6.518  73.346  1.00  0.00     0.101 C  
HETATM    9  H   UNL     2     -12.497   5.069  73.058  1.00  0.00     0.000 HD 
HETATM   10  O   UNL     2     -12.233   5.888  72.657  1.00  0.00    -0.147 OA 
ENDBRANCH   2   8
BRANCH   2  11
HETATM   11  C   UNL     2     -10.570   7.807  71.126  1.00  0.00    -0.217 C  
HETATM   12  H   UNL     2     -10.417   9.091  69.634  1.00  0.00     0.000 HD 
HETATM   13  O   UNL     2     -10.525   9.115  70.577  1.00  0.00    -0.205 OA 
BRANCH  11  14
HETATM   14  C   UNL     2      -9.307   7.047  70.600  1.00  0.00    -0.162 C  
HETATM   15  H   UNL     2      -7.922   7.403  69.315  1.00  0.00     0.000 HD 
HETATM   16  O   UNL     2      -8.689   7.864  69.635  1.00  0.00    -0.133 OA 
BRANCH  14  17
HETATM   17  C   UNL     2      -9.578   5.665  69.961  1.00  0.00    -0.166 C  
HETATM   18  C   UNL     2      -9.024   4.539  70.816  1.00  0.00    -0.114 C  
HETATM   19  H   UNL     2      -9.139   4.763  68.302  1.00  0.00     0.000 HD 
HETATM   20  O   UNL     2      -8.973   5.612  68.695  1.00  0.00    -0.111 OA 
HETATM   21  O   UNL     2      -9.203   3.262  70.440  1.00  0.00    -0.118 OA 
HETATM   22  O   UNL     2      -8.475   4.763  71.895  1.00  0.00    -0.115 OA 
ENDBRANCH  14  17
ENDBRANCH  11  14
ENDBRANCH   2  11
BRANCH   3  23
HETATM   23  C   UNL     3      -9.491  16.600  68.055  1.00  0.00    -0.224 C  
HETATM   24  O   UNL     3      -9.887  16.776  69.396  1.00  0.00    -0.205 OA 
HETATM   25  H   UNL     3     -10.770  17.120  69.341  1.00  0.00     0.000 HD 
BRANCH  23  26
HETATM   26  C   UNL     3     -10.053  17.873  67.272  1.00  0.00    -0.343 C  
HETATM   27  O   UNL     3      -9.456  17.785  66.001  1.00  0.00    -0.502 OA 
HETATM   28  H   UNL     3      -9.790  18.542  65.535  1.00  0.00     0.000 HD 
BRANCH  26  29
HETATM   29  C   UNL     3      -9.858  19.413  67.679  1.00  0.00    -0.349 C  
HETATM   30  C   UNL     3      -8.480  19.999  67.813  1.00  0.00    -0.287 C  
HETATM   31  O   UNL     3     -10.497  19.703  68.905  1.00  0.00    -0.558 OA 
HETATM   32  O   UNL     3      -7.648  19.566  68.778  1.00  0.00    -0.344 OA 
HETATM   33  O   UNL     3      -8.170  20.975  67.149  1.00  0.00    -0.184 OA 
HETATM   34  H   UNL     3     -10.381  20.615  69.146  1.00  0.00     0.000 HD 
ENDBRANCH  26  29
ENDBRANCH  23  26
ENDBRANCH   3  23
BRANCH   3  35
HETATM   35  C   UNL     3      -7.797  14.486  67.965  1.00  0.00    -0.137 C  
HETATM   36  O   UNL     3      -7.211  13.897  69.088  1.00  0.00    -0.179 OA 
HETATM   37  H   UNL     3      -7.076  12.962  68.979  1.00  0.00     0.000 HD 
ENDBRANCH   3  35
TORSDOF 8
ENDMDL
MODEL      215
REMARK 921   NORMALIZED FREE ENERGY PREDICTED BY IDOCK:   -4.09 KCAL/MOL
REMARK 922        TOTAL FREE ENERGY PREDICTED BY IDOCK:   -7.68 KCAL/MOL
REMARK 923 INTER-LIGAND FREE ENERGY PREDICTED BY IDOCK:   -6.35 KCAL/MOL
REMARK 924 INTRA-LIGAND FREE ENERGY PREDICTED BY IDOCK:   -1.33 KCAL/MOL
REMARK 927      BINDING AFFINITY PREDICTED BY RF-SCORE:    0.00 PKD
ROOT
HETATM    1 MN   UNL     1      -8.745  14.029  66.806  1.00  0.00    -0.183 Mn 
HETATM    2  C   UNL     2     -10.243   6.908  69.471  1.00  0.00    -0.186 C  
HETATM    3  C   UNL     3      -9.853  16.351  67.081  1.00  0.00    -0.249 C  
HETATM    4  H   UNL     3      -9.803  18.220  66.556  1.00  0.00     0.000 HD 
HETATM    5  H   UNL     2     -10.271   7.837  67.798  1.00  0.00     0.000 HD 
HETATM    6  O   UNL     2     -10.349   6.926  68.056  1.00  0.00    -0.169 OA 
HETATM    7  O   UNL     3     -10.478  17.580  66.752  1.00  0.00    -0.320 OA 
ENDROOT
BRANCH   2   8
HETATM    8  C   UNL     2     -10.370   5.429  69.888  1.00  0.00    -0.307 C  
HETATM    9  H   UNL     2      -9.625   4.188  71.240  1.00  0.00     0.000 HD 
HETATM   10  O   UNL     2      -9.546   5.099  70.982  1.00  0.00    -0.155 OA 
ENDBRANCH   2   8
BRANCH   2  11
HETATM   11  C   UNL     2     -11.335   7.878  70.074  1.00  0.00    -0.027 C  
HETATM   12  H   UNL     2     -12.938   7.749  71.220  1.00  0.00     0.000 HD 
HETATM   13  O   UNL     2     -12.281   7.166  70.857  1.00  0.00    -0.344 OA 
BRANCH  11  14
HETATM   14  C   UNL     2     -10.796   9.049  70.960  1.00  0.00    -0.276 C  
HETATM   15  H   UNL     2     -11.337   9.897  72.599  1.00  0.00     0.000 HD 
HETATM   16  O   UNL     2     -11.663   9.185  72.060  1.00  0.00    -0.357 OA 
BRANCH  14  17
HETATM   17  C   UNL     2     -10.688  10.423  70.257  1.00  0.00    -0.187 C  
HETATM   18  C   UNL     2     -12.044  10.910  69.777  1.00  0.00    -0.338 C  
HETATM   19  H   UNL     2      -9.762  11.156  68.720  1.00  0.00     0.000 HD 
HETATM   20  O   UNL     2      -9.829  10.313  69.151  1.00  0.00    -0.194 OA 
HETATM   21  O   UNL     2     -12.152  12.108  69.179  1.00  0.00    -0.267 OA 
HETATM   22  O   UNL     2     -13.070  10.264  69.990  1.00  0.00    -0.028 OA 
ENDBRANCH  14  17
ENDBRANCH  11  14
ENDBRANCH   2  11
BRANCH   3  23
HETATM   23  C   UNL     3      -8.789  16.705  68.197  1.00  0.00    -0.206 C  
HETATM   24  O   UNL     3      -7.766  15.751  68.027  1.00  0.00    -0.124 OA 
HETATM   25  H   UNL     3      -7.128  15.964  68.697  1.00  0.00     0.000 HD 
BRANCH  23  26
HETATM   26  C   UNL     3      -8.044  18.082  68.508  1.00  0.00    -0.298 C  
HETATM   27  O   UNL     3      -9.090  19.005  68.690  1.00  0.00    -0.345 OA 
HETATM   28  H   UNL     3      -8.647  19.825  68.875  1.00  0.00     0.000 HD 
BRANCH  26  29
HETATM   29  C   UNL     3      -7.015  18.855  67.549  1.00  0.00    -0.202 C  
HETATM   30  C   UNL     3      -6.823  18.415  66.124  1.00  0.00    -0.251 C  
HETATM   31  O   UNL     3      -5.716  18.873  68.102  1.00  0.00    -0.199 OA 
HETATM   32  O   UNL     3      -6.286  17.214  65.849  1.00  0.00    -0.125 OA 
HETATM   33  O   UNL     3      -7.009  19.210  65.216  1.00  0.00    -0.459 OA 
HETATM   34  H   UNL     3      -5.107  19.330  67.533  1.00  0.00     0.000 HD 
ENDBRANCH  26  29
ENDBRANCH  23  26
ENDBRANCH   3  23
BRANCH   3  35
HETATM   35  C   UNL     3     -10.966  15.296  67.406  1.00  0.00    -0.321 C  
HETATM   36  O   UNL     3     -10.549  14.356  68.352  1.00  0.00    -0.235 OA 
HETATM   37  H   UNL     3     -11.224  13.717  68.549  1.00  0.00     0.000 HD 
ENDBRANCH   3  35
TORSDOF 8
ENDMDL
MODEL      216
REMARK 921   NORMALIZED FREE ENERGY PREDICTED BY IDOCK:   -4.07 KCAL/MOL
REMARK 922        TOTAL FREE ENERGY PREDICTED BY IDOCK:   -7.65 KCAL/MOL
REMARK 923 INTER-LIGAND FREE ENERGY PREDICTED BY IDOCK:   -6.47 KCAL/MOL
REMARK 924 INTRA-LIGAND FREE ENERGY PREDICTED BY IDOCK:   -1.17 KCAL/MOL
REMARK 927      BINDING AFFINITY PREDICTED BY RF-SCORE:    0.00 PKD
ROOT
HETATM    1 MN   UNL     1      -7.539  18.095  69.418  1.00  0.00    -0.254 Mn 
HETATM    2  C   UNL     2      -7.390  10.354  69.743  1.00  0.00    -0.154 C  
HETATM    3  C   UNL     3      -7.222  19.850  67.542  1.00  0.00    -0.269 C  
HETATM    4  H   UNL     3      -7.132  21.742  67.121  1.00  0.00     0.000 HD 
HETATM    5  H   UNL     2      -6.344  11.826  70.375  1.00  0.00     0.000 HD 
HETATM    6  O   UNL     2      -6.349  10.891  70.544  1.00  0.00    -0.268 OA 
HETATM    7  O   UNL     3      -6.701  20.951  66.819  1.00  0.00    -0.280 OA 
ENDROOT
BRANCH   2   8
HETATM    8  C   UNL     2      -7.399   8.837  70.016  1.00  0.00    -0.053 C  
HETATM    9  H   UNL     2      -6.242   7.460  70.848  1.00  0.00     0.000 HD 
HETATM   10  O   UNL     2      -6.237   8.395  70.679  1.00  0.00    -0.035 OA 
ENDBRANCH   2   8
BRANCH   2  11
HETATM   11  C   UNL     2      -7.139  10.769  68.239  1.00  0.00    -0.078 C  
HETATM   12  H   UNL     2      -5.600  11.075  67.040  1.00  0.00     0.000 HD 
HETATM   13  O   UNL     2      -5.751  10.826  67.944  1.00  0.00    -0.043 OA 
BRANCH  11  14
HETATM   14  C   UNL     2      -7.799   9.854  67.156  1.00  0.00    -0.099 C  
HETATM   15  H   UNL     2      -7.227   8.376  66.067  1.00  0.00     0.000 HD 
HETATM   16  O   UNL     2      -6.827   8.932  66.725  1.00  0.00    -0.074 OA 
BRANCH  14  17
HETATM   17  C   UNL     2      -8.355  10.586  65.912  1.00  0.00    -0.161 C  
HETATM   18  C   UNL     2      -9.740  10.084  65.544  1.00  0.00    -0.289 C  
HETATM   19  H   UNL     2      -7.834  10.824  64.060  1.00  0.00     0.000 HD 
HETATM   20  O   UNL     2      -7.493  10.375  64.824  1.00  0.00    -0.130 OA 
HETATM   21  O   UNL     2     -10.400  10.636  64.513  1.00  0.00    -0.355 OA 
HETATM   22  O   UNL     2     -10.312   9.228  66.218  1.00  0.00    -0.240 OA 
ENDBRANCH  14  17
ENDBRANCH  11  14
ENDBRANCH   2  11
BRANCH   3  23
HETATM   23  C   UNL     3      -8.793  19.961  67.407  1.00  0.00    -0.336 C  
HETATM   24  O   UNL     3      -9.039  21.338  67.245  1.00  0.00    -0.522 OA 
HETATM   25  H   UNL     3      -9.983  21.404  67.163  1.00  0.00     0.000 HD 
BRANCH  23  26
HETATM   26  C   UNL     3      -9.794  19.225  66.404  1.00  0.00    -0.388 C  
HETATM   27  O   UNL     3     -10.988  19.960  66.509  1.00  0.00    -0.359 OA 
HETATM   28  H   UNL     3     -11.584  19.522  65.912  1.00  0.00     0.000 HD 
BRANCH  26  29
HETATM   29  C   UNL     3     -10.278  17.696  66.480  1.00  0.00    -0.355 C  
HETATM   30  C   UNL     3     -10.345  16.983  67.802  1.00  0.00    -0.335 C  
HETATM   31  O   UNL     3      -9.484  16.866  65.659  1.00  0.00    -0.524 OA 
HETATM   32  O   UNL     3      -9.221  16.735  68.499  1.00  0.00    -0.227 OA 
HETATM   33  O   UNL     3     -11.399  16.488  68.170  1.00  0.00    -0.308 OA 
HETATM   34  H   UNL     3      -9.771  15.962  65.705  1.00  0.00     0.000 HD 
ENDBRANCH  26  29
ENDBRANCH  23  26
ENDBRANCH   3  23
BRANCH   3  35
HETATM   35  C   UNL     3      -6.511  18.544  67.043  1.00  0.00    -0.183 C  
HETATM   36  O   UNL     3      -5.698  17.972  68.025  1.00  0.00    -0.156 OA 
HETATM   37  H   UNL     3      -5.268  17.180  67.723  1.00  0.00     0.000 HD 
ENDBRANCH   3  35
TORSDOF 8
ENDMDL
MODEL      217
REMARK 921   NORMALIZED FREE ENERGY PREDICTED BY IDOCK:   -4.07 KCAL/MOL
REMARK 922        TOTAL FREE ENERGY PREDICTED BY IDOCK:   -7.64 KCAL/MOL
REMARK 923 INTER-LIGAND FREE ENERGY PREDICTED BY IDOCK:   -6.16 KCAL/MOL
REMARK 924 INTRA-LIGAND FREE ENERGY PREDICTED BY IDOCK:   -1.48 KCAL/MOL
REMARK 927      BINDING AFFINITY PREDICTED BY RF-SCORE:    0.00 PKD
ROOT
HETATM    1 MN   UNL     1     -10.000  14.927  70.121  1.00  0.00    -0.295 Mn 
HETATM    2  C   UNL     2     -11.571   7.472  71.541  1.00  0.00    -0.272 C  
HETATM    3  C   UNL     3      -8.518  16.187  68.414  1.00  0.00    -0.184 C  
HETATM    4  H   UNL     3      -7.868  17.921  67.833  1.00  0.00     0.000 HD 
HETATM    5  H   UNL     2     -10.657   8.922  72.392  1.00  0.00     0.000 HD 
HETATM    6  O   UNL     2     -10.927   8.053  72.664  1.00  0.00    -0.334 OA 
HETATM    7  O   UNL     3      -7.515  17.041  67.891  1.00  0.00    -0.162 OA 
ENDROOT
BRANCH   2   8
HETATM    8  C   UNL     2     -12.008   6.061  71.982  1.00  0.00    -0.176 C  
HETATM    9  H   UNL     2     -11.439   4.646  73.246  1.00  0.00     0.000 HD 
HETATM   10  O   UNL     2     -11.170   5.516  72.974  1.00  0.00    -0.285 OA 
ENDBRANCH   2   8
BRANCH   2  11
HETATM   11  C   UNL     2     -10.584   7.521  70.308  1.00  0.00    -0.229 C  
HETATM   12  H   UNL     2     -10.154   8.749  68.823  1.00  0.00     0.000 HD 
HETATM   13  O   UNL     2     -10.747   8.719  69.564  1.00  0.00    -0.228 OA 
BRANCH  11  14
HETATM   14  C   UNL     2      -9.062   7.394  70.644  1.00  0.00    -0.156 C  
HETATM   15  H   UNL     2      -7.428   8.093  69.911  1.00  0.00     0.000 HD 
HETATM   16  O   UNL     2      -8.352   8.170  69.708  1.00  0.00    -0.120 OA 
BRANCH  14  17
HETATM   17  C   UNL     2      -8.489   5.958  70.613  1.00  0.00    -0.129 C  
HETATM   18  C   UNL     2      -7.891   5.569  71.954  1.00  0.00    -0.109 C  
HETATM   19  H   UNL     2      -7.138   4.995  69.611  1.00  0.00     0.000 HD 
HETATM   20  O   UNL     2      -7.489   5.876  69.630  1.00  0.00    -0.073 OA 
HETATM   21  O   UNL     2      -7.382   4.338  72.128  1.00  0.00    -0.059 OA 
HETATM   22  O   UNL     2      -7.926   6.334  72.918  1.00  0.00    -0.104 OA 
ENDBRANCH  14  17
ENDBRANCH  11  14
ENDBRANCH   2  11
BRANCH   3  23
HETATM   23  C   UNL     3      -9.796  16.438  67.519  1.00  0.00    -0.239 C  
HETATM   24  O   UNL     3      -9.372  16.149  66.207  1.00  0.00    -0.266 OA 
HETATM   25  H   UNL     3     -10.141  16.301  65.669  1.00  0.00     0.000 HD 
BRANCH  23  26
HETATM   26  C   UNL     3     -11.269  15.835  67.637  1.00  0.00    -0.246 C  
HETATM   27  O   UNL     3     -11.651  16.117  68.961  1.00  0.00    -0.353 OA 
HETATM   28  H   UNL     3     -12.528  15.758  69.031  1.00  0.00     0.000 HD 
BRANCH  26  29
HETATM   29  C   UNL     3     -11.697  14.301  67.433  1.00  0.00    -0.394 C  
HETATM   30  C   UNL     3     -10.662  13.253  67.135  1.00  0.00    -0.259 C  
HETATM   31  O   UNL     3     -12.655  14.169  66.405  1.00  0.00    -0.521 OA 
HETATM   32  O   UNL     3      -9.973  13.287  65.980  1.00  0.00    -0.289 OA 
HETATM   33  O   UNL     3     -10.555  12.283  67.868  1.00  0.00    -0.202 OA 
HETATM   34  H   UNL     3     -12.908  13.261  66.284  1.00  0.00     0.000 HD 
ENDBRANCH  26  29
ENDBRANCH  23  26
ENDBRANCH   3  23
BRANCH   3  35
HETATM   35  C   UNL     3      -7.935  14.734  68.509  1.00  0.00    -0.136 C  
HETATM   36  O   UNL     3      -7.902  14.258  69.823  1.00  0.00    -0.343 OA 
HETATM   37  H   UNL     3      -7.549  13.378  69.880  1.00  0.00     0.000 HD 
ENDBRANCH   3  35
TORSDOF 8
ENDMDL
MODEL      218
REMARK 921   NORMALIZED FREE ENERGY PREDICTED BY IDOCK:   -4.06 KCAL/MOL
REMARK 922        TOTAL FREE ENERGY PREDICTED BY IDOCK:   -7.64 KCAL/MOL
REMARK 923 INTER-LIGAND FREE ENERGY PREDICTED BY IDOCK:   -6.01 KCAL/MOL
REMARK 924 INTRA-LIGAND FREE ENERGY PREDICTED BY IDOCK:   -1.63 KCAL/MOL
REMARK 927      BINDING AFFINITY PREDICTED BY RF-SCORE:    0.00 PKD
ROOT
HETATM    1 MN   UNL     1      -8.434   7.925  66.630  1.00  0.00    -0.107 Mn 
HETATM    2  C   UNL     2     -10.847  15.200  65.489  1.00  0.00    -0.364 C  
HETATM    3  C   UNL     3      -8.287   6.350  68.679  1.00  0.00    -0.121 C  
HETATM    4  H   UNL     3      -7.723   4.607  69.320  1.00  0.00     0.000 HD 
HETATM    5  H   UNL     2      -9.200  14.226  65.467  1.00  0.00     0.000 HD 
HETATM    6  O   UNL     2      -9.461  15.100  65.201  1.00  0.00    -0.028 OA 
HETATM    7  O   UNL     3      -7.744   5.491  69.667  1.00  0.00    -0.076 OA 
ENDROOT
BRANCH   2   8
HETATM    8  C   UNL     2     -11.271  16.618  65.057  1.00  0.00    -0.027 C  
HETATM    9  H   UNL     2     -11.870  17.568  63.426  1.00  0.00     0.000 HD 
HETATM   10  O   UNL     2     -11.608  16.695  63.692  1.00  0.00    -0.778 OA 
ENDBRANCH   2   8
BRANCH   2  11
HETATM   11  C   UNL     2     -11.074  14.860  67.015  1.00  0.00    -0.338 C  
HETATM   12  H   UNL     2     -11.413  13.264  68.127  1.00  0.00     0.000 HD 
HETATM   13  O   UNL     2     -11.277  13.469  67.209  1.00  0.00    -0.282 OA 
BRANCH  11  14
HETATM   14  C   UNL     2      -9.933  15.297  67.991  1.00  0.00    -0.224 C  
HETATM   15  H   UNL     2      -9.577  15.097  69.870  1.00  0.00     0.000 HD 
HETATM   16  O   UNL     2     -10.269  14.832  69.277  1.00  0.00    -0.228 OA 
BRANCH  14  17
HETATM   17  C   UNL     2      -9.677  16.820  68.080  1.00  0.00    -0.247 C  
HETATM   18  C   UNL     2      -8.240  17.121  68.469  1.00  0.00    -0.261 C  
HETATM   19  H   UNL     2     -10.376  18.315  69.097  1.00  0.00     0.000 HD 
HETATM   20  O   UNL     2     -10.533  17.380  69.043  1.00  0.00    -0.346 OA 
HETATM   21  O   UNL     2      -7.822  18.395  68.553  1.00  0.00    -0.292 OA 
HETATM   22  O   UNL     2      -7.419  16.219  68.637  1.00  0.00    -0.163 OA 
ENDBRANCH  14  17
ENDBRANCH  11  14
ENDBRANCH   2  11
BRANCH   3  23
HETATM   23  C   UNL     3      -9.645   5.673  68.231  1.00  0.00    -0.121 C  
HETATM   24  O   UNL     3     -10.309   6.669  67.487  1.00  0.00    -0.161 OA 
HETATM   25  H   UNL     3     -11.124   6.262  67.219  1.00  0.00     0.000 HD 
BRANCH  23  26
HETATM   26  C   UNL     3      -9.903   4.307  67.447  1.00  0.00    -0.126 C  
HETATM   27  O   UNL     3      -8.840   3.476  67.845  1.00  0.00    -0.101 OA 
HETATM   28  H   UNL     3      -8.994   2.663  67.378  1.00  0.00     0.000 HD 
BRANCH  26  29
HETATM   29  C   UNL     3      -9.966   4.112  65.855  1.00  0.00    -0.186 C  
HETATM   30  C   UNL     3      -8.900   4.698  64.972  1.00  0.00    -0.150 C  
HETATM   31  O   UNL     3     -11.182   4.596  65.327  1.00  0.00    -0.916 OA 
HETATM   32  O   UNL     3      -8.757   6.032  64.872  1.00  0.00    -0.065 OA 
HETATM   33  O   UNL     3      -8.266   3.971  64.224  1.00  0.00    -0.089 OA 
HETATM   34  H   UNL     3     -11.219   4.481  64.385  1.00  0.00     0.000 HD 
ENDBRANCH  26  29
ENDBRANCH  23  26
ENDBRANCH   3  23
BRANCH   3  35
HETATM   35  C   UNL     3      -8.323   7.809  69.251  1.00  0.00    -0.136 C  
HETATM   36  O   UNL     3      -7.397   8.649  68.628  1.00  0.00    -0.078 OA 
HETATM   37  H   UNL     3      -7.419   9.534  68.976  1.00  0.00     0.000 HD 
ENDBRANCH   3  35
TORSDOF 8
ENDMDL
MODEL      219
REMARK 921   NORMALIZED FREE ENERGY PREDICTED BY IDOCK:   -4.06 KCAL/MOL
REMARK 922        TOTAL FREE ENERGY PREDICTED BY IDOCK:   -7.63 KCAL/MOL
REMARK 923 INTER-LIGAND FREE ENERGY PREDICTED BY IDOCK:   -7.08 KCAL/MOL
REMARK 924 INTRA-LIGAND FREE ENERGY PREDICTED BY IDOCK:   -0.55 KCAL/MOL
REMARK 927      BINDING AFFINITY PREDICTED BY RF-SCORE:    0.00 PKD
ROOT
HETATM    1 MN   UNL     1      -8.628  10.797  69.283  1.00  0.00    -0.121 Mn 
HETATM    2  C   UNL     2      -8.089  18.117  66.796  1.00  0.00    -0.246 C  
HETATM    3  C   UNL     3     -10.557   9.091  69.531  1.00  0.00    -0.225 C  
HETATM    4  H   UNL     3     -11.053   7.312  70.131  1.00  0.00     0.000 HD 
HETATM    5  H   UNL     2      -7.924  17.157  68.443  1.00  0.00     0.000 HD 
HETATM    6  O   UNL     2      -7.730  18.045  68.167  1.00  0.00    -0.254 OA 
HETATM    7  O   UNL     3     -11.459   8.172  70.123  1.00  0.00    -0.153 OA 
ENDROOT
BRANCH   2   8
HETATM    8  C   UNL     2      -7.774  19.558  66.348  1.00  0.00    -0.296 C  
HETATM    9  H   UNL     2      -6.856  20.495  64.864  1.00  0.00     0.000 HD 
HETATM   10  O   UNL     2      -7.050  19.608  65.141  1.00  0.00    -0.394 OA 
ENDBRANCH   2   8
BRANCH   2  11
HETATM   11  C   UNL     2      -9.598  17.675  66.643  1.00  0.00    -0.295 C  
HETATM   12  H   UNL     2     -11.115  18.035  65.431  1.00  0.00     0.000 HD 
HETATM   13  O   UNL     2     -10.208  18.301  65.524  1.00  0.00    -0.530 OA 
BRANCH  11  14
HETATM   14  C   UNL     2      -9.852  16.138  66.502  1.00  0.00    -0.267 C  
HETATM   15  H   UNL     2     -11.081  15.029  65.525  1.00  0.00     0.000 HD 
HETATM   16  O   UNL     2     -10.927  15.962  65.611  1.00  0.00    -0.290 OA 
BRANCH  14  17
HETATM   17  C   UNL     2     -10.187  15.394  67.816  1.00  0.00    -0.241 C  
HETATM   18  C   UNL     2     -11.234  16.139  68.625  1.00  0.00    -0.369 C  
HETATM   19  H   UNL     2      -9.227  14.812  69.397  1.00  0.00     0.000 HD 
HETATM   20  O   UNL     2      -9.022  15.269  68.590  1.00  0.00    -0.174 OA 
HETATM   21  O   UNL     2     -11.682  15.620  69.781  1.00  0.00    -0.314 OA 
HETATM   22  O   UNL     2     -11.744  17.180  68.211  1.00  0.00     0.346 OA 
ENDBRANCH  14  17
ENDBRANCH  11  14
ENDBRANCH   2  11
BRANCH   3  23
HETATM   23  C   UNL     3     -10.130   8.437  68.156  1.00  0.00    -0.200 C  
HETATM   24  O   UNL     3     -10.951   7.299  68.035  1.00  0.00    -0.444 OA 
HETATM   25  H   UNL     3     -10.694   6.906  67.209  1.00  0.00     0.000 HD 
BRANCH  23  26
HETATM   26  C   UNL     3     -10.058   9.072  66.694  1.00  0.00    -0.285 C  
HETATM   27  O   UNL     3      -9.700   7.993  65.867  1.00  0.00    -0.445 OA 
HETATM   28  H   UNL     3      -9.656   8.370  64.997  1.00  0.00     0.000 HD 
BRANCH  26  29
HETATM   29  C   UNL     3      -9.092  10.260  66.210  1.00  0.00    -0.154 C  
HETATM   30  C   UNL     3      -9.390  11.685  66.584  1.00  0.00    -0.194 C  
HETATM   31  O   UNL     3      -8.962  10.273  64.804  1.00  0.00    -0.173 OA 
HETATM   32  O   UNL     3     -10.492  12.296  66.115  1.00  0.00    -0.232 OA 
HETATM   33  O   UNL     3      -8.553  12.340  67.187  1.00  0.00    -0.174 OA 
HETATM   34  H   UNL     3      -8.390  10.977  64.518  1.00  0.00     0.000 HD 
ENDBRANCH  26  29
ENDBRANCH  23  26
ENDBRANCH   3  23
BRANCH   3  35
HETATM   35  C   UNL     3     -11.227  10.508  69.518  1.00  0.00    -0.271 C  
HETATM   36  O   UNL     3     -12.588  10.452  69.205  1.00  0.00    -0.686 OA 
HETATM   37  H   UNL     3     -12.994  11.311  69.197  1.00  0.00     0.000 HD 
ENDBRANCH   3  35
TORSDOF 8
ENDMDL
MODEL      220
REMARK 921   NORMALIZED FREE ENERGY PREDICTED BY IDOCK:   -4.05 KCAL/MOL
REMARK 922        TOTAL FREE ENERGY PREDICTED BY IDOCK:   -7.62 KCAL/MOL
REMARK 923 INTER-LIGAND FREE ENERGY PREDICTED BY IDOCK:   -6.54 KCAL/MOL
REMARK 924 INTRA-LIGAND FREE ENERGY PREDICTED BY IDOCK:   -1.08 KCAL/MOL
REMARK 927      BINDING AFFINITY PREDICTED BY RF-SCORE:    0.00 PKD
ROOT
HETATM    1 MN   UNL     1     -11.189   7.784  68.090  1.00  0.00    -0.378 Mn 
HETATM    2  C   UNL     2     -11.047  15.080  65.483  1.00  0.00    -0.357 C  
HETATM    3  C   UNL     3      -9.712   6.389  69.692  1.00  0.00    -0.152 C  
HETATM    4  H   UNL     3      -9.417   4.640  70.482  1.00  0.00     0.000 HD 
HETATM    5  H   UNL     2     -10.792  13.315  64.790  1.00  0.00     0.000 HD 
HETATM    6  O   UNL     2     -10.882  14.178  64.401  1.00  0.00    -0.353 OA 
HETATM    7  O   UNL     3      -8.871   5.354  70.172  1.00  0.00    -0.122 OA 
ENDROOT
BRANCH   2   8
HETATM    8  C   UNL     2     -11.193  16.480  64.853  1.00  0.00    -0.133 C  
HETATM    9  H   UNL     2     -11.946  17.314  63.221  1.00  0.00     0.000 HD 
HETATM   10  O   UNL     2     -11.856  16.451  63.610  1.00  0.00    -0.871 OA 
ENDBRANCH   2   8
BRANCH   2  11
HETATM   11  C   UNL     2      -9.831  14.910  66.477  1.00  0.00    -0.266 C  
HETATM   12  H   UNL     2      -9.015  15.898  67.979  1.00  0.00     0.000 HD 
HETATM   13  O   UNL     2      -9.746  16.001  67.381  1.00  0.00    -0.229 OA 
BRANCH  11  14
HETATM   14  C   UNL     2      -9.826  13.602  67.336  1.00  0.00    -0.234 C  
HETATM   15  H   UNL     2      -9.974  13.183  69.206  1.00  0.00     0.000 HD 
HETATM   16  O   UNL     2      -9.977  13.977  68.684  1.00  0.00    -0.227 OA 
BRANCH  14  17
HETATM   17  C   UNL     2      -8.554  12.730  67.216  1.00  0.00    -0.197 C  
HETATM   18  C   UNL     2      -8.745  11.604  66.215  1.00  0.00    -0.136 C  
HETATM   19  H   UNL     2      -7.471  11.639  68.397  1.00  0.00     0.000 HD 
HETATM   20  O   UNL     2      -8.252  12.175  68.470  1.00  0.00    -0.153 OA 
HETATM   21  O   UNL     2      -7.729  10.767  65.948  1.00  0.00    -0.154 OA 
HETATM   22  O   UNL     2      -9.792  11.481  65.580  1.00  0.00    -0.219 OA 
ENDBRANCH  14  17
ENDBRANCH  11  14
ENDBRANCH   2  11
BRANCH   3  23
HETATM   23  C   UNL     3     -10.743   6.669  70.857  1.00  0.00    -0.235 C  
HETATM   24  O   UNL     3     -11.895   7.151  70.203  1.00  0.00    -0.535 OA 
HETATM   25  H   UNL     3     -12.514   7.319  70.903  1.00  0.00     0.000 HD 
BRANCH  23  26
HETATM   26  C   UNL     3     -11.277   5.706  72.012  1.00  0.00    -0.207 C  
HETATM   27  O   UNL     3     -12.395   6.381  72.535  1.00  0.00    -0.528 OA 
HETATM   28  H   UNL     3     -12.712   5.808  73.222  1.00  0.00     0.000 HD 
BRANCH  26  29
HETATM   29  C   UNL     3     -10.471   5.235  73.318  1.00  0.00    -0.224 C  
HETATM   30  C   UNL     3     -10.464   3.790  73.731  1.00  0.00    -0.191 C  
HETATM   31  O   UNL     3     -10.898   5.939  74.465  1.00  0.00    -0.356 OA 
HETATM   32  O   UNL     3     -11.600   3.192  74.132  1.00  0.00     0.263 OA 
HETATM   33  O   UNL     3      -9.401   3.201  73.853  1.00  0.00    -0.088 OA 
HETATM   34  H   UNL     3     -10.420   5.660  75.238  1.00  0.00     0.000 HD 
ENDBRANCH  26  29
ENDBRANCH  23  26
ENDBRANCH   3  23
BRANCH   3  35
HETATM   35  C   UNL     3      -8.811   7.566  69.181  1.00  0.00    -0.136 C  
HETATM   36  O   UNL     3      -8.849   7.702  67.791  1.00  0.00    -0.126 OA 
HETATM   37  H   UNL     3      -8.303   8.415  67.481  1.00  0.00     0.000 HD 
ENDBRANCH   3  35
TORSDOF 8
ENDMDL
MODEL      221
REMARK 921   NORMALIZED FREE ENERGY PREDICTED BY IDOCK:   -4.05 KCAL/MOL
REMARK 922        TOTAL FREE ENERGY PREDICTED BY IDOCK:   -7.62 KCAL/MOL
REMARK 923 INTER-LIGAND FREE ENERGY PREDICTED BY IDOCK:   -6.60 KCAL/MOL
REMARK 924 INTRA-LIGAND FREE ENERGY PREDICTED BY IDOCK:   -1.02 KCAL/MOL
REMARK 927      BINDING AFFINITY PREDICTED BY RF-SCORE:    0.00 PKD
ROOT
HETATM    1 MN   UNL     1      -8.225  13.373  66.112  1.00  0.00    -0.389 Mn 
HETATM    2  C   UNL     2      -7.478   7.070  70.558  1.00  0.00    -0.088 C  
HETATM    3  C   UNL     3      -9.530  15.599  66.305  1.00  0.00    -0.319 C  
HETATM    4  H   UNL     3      -9.981  17.270  65.427  1.00  0.00     0.000 HD 
HETATM    5  H   UNL     2      -8.251   7.539  68.872  1.00  0.00     0.000 HD 
HETATM    6  O   UNL     2      -8.081   6.720  69.322  1.00  0.00    -0.117 OA 
HETATM    7  O   UNL     3     -10.426  16.652  65.995  1.00  0.00    -0.327 OA 
ENDROOT
BRANCH   2   8
HETATM    8  C   UNL     2      -7.202   5.741  71.289  1.00  0.00    -0.074 C  
HETATM    9  H   UNL     2      -6.965   3.821  70.863  1.00  0.00     0.000 HD 
HETATM   10  O   UNL     2      -7.135   4.640  70.413  1.00  0.00    -0.046 OA 
ENDBRANCH   2   8
BRANCH   2  11
HETATM   11  C   UNL     2      -8.429   8.076  71.320  1.00  0.00    -0.122 C  
HETATM   12  H   UNL     2      -8.332   9.896  72.078  1.00  0.00     0.000 HD 
HETATM   13  O   UNL     2      -7.760   9.291  71.621  1.00  0.00    -0.336 OA 
BRANCH  11  14
HETATM   14  C   UNL     2      -9.756   8.455  70.584  1.00  0.00    -0.178 C  
HETATM   15  H   UNL     2     -10.421   9.999  69.650  1.00  0.00     0.000 HD 
HETATM   16  O   UNL     2      -9.615   9.768  70.097  1.00  0.00    -0.240 OA 
BRANCH  14  17
HETATM   17  C   UNL     2     -11.039   8.395  71.447  1.00  0.00    -0.255 C  
HETATM   18  C   UNL     2     -11.981   7.306  70.968  1.00  0.00    -0.327 C  
HETATM   19  H   UNL     2     -12.490   9.595  71.910  1.00  0.00     0.000 HD 
HETATM   20  O   UNL     2     -11.703   9.631  71.380  1.00  0.00    -0.352 OA 
HETATM   21  O   UNL     2     -13.131   7.078  71.625  1.00  0.00    -0.377 OA 
HETATM   22  O   UNL     2     -11.684   6.568  70.029  1.00  0.00    -0.416 OA 
ENDBRANCH  14  17
ENDBRANCH  11  14
ENDBRANCH   2  11
BRANCH   3  23
HETATM   23  C   UNL     3      -8.215  16.303  66.827  1.00  0.00    -0.259 C  
HETATM   24  O   UNL     3      -7.948  17.307  65.875  1.00  0.00    -0.518 OA 
HETATM   25  H   UNL     3      -7.157  17.730  66.189  1.00  0.00     0.000 HD 
BRANCH  23  26
HETATM   26  C   UNL     3      -7.894  16.961  68.245  1.00  0.00    -0.208 C  
HETATM   27  O   UNL     3      -7.933  18.345  67.999  1.00  0.00    -0.261 OA 
HETATM   28  H   UNL     3      -7.741  18.737  68.843  1.00  0.00     0.000 HD 
BRANCH  26  29
HETATM   29  C   UNL     3      -6.558  16.765  69.114  1.00  0.00    -0.214 C  
HETATM   30  C   UNL     3      -5.778  17.957  69.594  1.00  0.00    -0.233 C  
HETATM   31  O   UNL     3      -5.615  15.966  68.430  1.00  0.00    -0.100 OA 
HETATM   32  O   UNL     3      -5.170  18.772  68.714  1.00  0.00    -0.186 OA 
HETATM   33  O   UNL     3      -5.565  18.099  70.788  1.00  0.00    -0.217 OA 
HETATM   34  H   UNL     3      -4.825  15.850  68.944  1.00  0.00     0.000 HD 
ENDBRANCH  26  29
ENDBRANCH  23  26
ENDBRANCH   3  23
BRANCH   3  35
HETATM   35  C   UNL     3     -10.265  14.579  67.243  1.00  0.00    -0.255 C  
HETATM   36  O   UNL     3      -9.389  13.937  68.121  1.00  0.00    -0.191 OA 
HETATM   37  H   UNL     3      -9.834  13.319  68.690  1.00  0.00     0.000 HD 
ENDBRANCH   3  35
TORSDOF 8
ENDMDL
MODEL      222
REMARK 921   NORMALIZED FREE ENERGY PREDICTED BY IDOCK:   -4.04 KCAL/MOL
REMARK 922        TOTAL FREE ENERGY PREDICTED BY IDOCK:   -7.61 KCAL/MOL
REMARK 923 INTER-LIGAND FREE ENERGY PREDICTED BY IDOCK:   -6.68 KCAL/MOL
REMARK 924 INTRA-LIGAND FREE ENERGY PREDICTED BY IDOCK:   -0.93 KCAL/MOL
REMARK 927      BINDING AFFINITY PREDICTED BY RF-SCORE:    0.00 PKD
ROOT
HETATM    1 MN   UNL     1     -11.737  12.786  67.585  1.00  0.00    -0.241 Mn 
HETATM    2  C   UNL     2     -10.416   5.794  70.655  1.00  0.00    -0.264 C  
HETATM    3  C   UNL     3     -10.482  15.049  67.592  1.00  0.00    -0.247 C  
HETATM    4  H   UNL     3     -10.529  16.906  67.028  1.00  0.00     0.000 HD 
HETATM    5  H   UNL     2     -11.648   7.240  70.884  1.00  0.00     0.000 HD 
HETATM    6  O   UNL     2     -11.600   6.348  71.206  1.00  0.00    -0.305 OA 
HETATM    7  O   UNL     3     -10.215  16.428  67.787  1.00  0.00    -0.259 OA 
ENDROOT
BRANCH   2   8
HETATM    8  C   UNL     2     -10.339   4.346  71.177  1.00  0.00     0.040 C  
HETATM    9  H   UNL     2      -9.539   2.609  70.658  1.00  0.00     0.000 HD 
HETATM   10  O   UNL     2      -9.587   3.502  70.336  1.00  0.00    -0.178 OA 
ENDBRANCH   2   8
BRANCH   2  11
HETATM   11  C   UNL     2      -9.195   6.719  71.043  1.00  0.00    -0.156 C  
HETATM   12  H   UNL     2      -7.457   6.544  71.963  1.00  0.00     0.000 HD 
HETATM   13  O   UNL     2      -8.192   5.988  71.730  1.00  0.00    -0.116 OA 
BRANCH  11  14
HETATM   14  C   UNL     2      -8.492   7.459  69.858  1.00  0.00    -0.139 C  
HETATM   15  H   UNL     2      -7.411   6.936  68.356  1.00  0.00     0.000 HD 
HETATM   16  O   UNL     2      -7.838   6.488  69.076  1.00  0.00    -0.106 OA 
BRANCH  14  17
HETATM   17  C   UNL     2      -7.453   8.531  70.263  1.00  0.00    -0.064 C  
HETATM   18  C   UNL     2      -7.858   9.910  69.772  1.00  0.00    -0.163 C  
HETATM   19  H   UNL     2      -5.567   8.860  69.958  1.00  0.00     0.000 HD 
HETATM   20  O   UNL     2      -6.205   8.202  69.710  1.00  0.00    -0.029 OA 
HETATM   21  O   UNL     2      -7.096  10.977  70.067  1.00  0.00    -0.088 OA 
HETATM   22  O   UNL     2      -8.915  10.091  69.168  1.00  0.00    -0.147 OA 
ENDBRANCH  14  17
ENDBRANCH  11  14
ENDBRANCH   2  11
BRANCH   3  23
HETATM   23  C   UNL     3      -9.884  14.701  66.170  1.00  0.00    -0.312 C  
HETATM   24  O   UNL     3      -9.069  13.574  66.395  1.00  0.00    -0.434 OA 
HETATM   25  H   UNL     3      -8.710  13.365  65.540  1.00  0.00     0.000 HD 
BRANCH  23  26
HETATM   26  C   UNL     3     -10.624  14.426  64.783  1.00  0.00    -0.393 C  
HETATM   27  O   UNL     3     -11.709  15.320  64.789  1.00  0.00    -0.353 OA 
HETATM   28  H   UNL     3     -12.150  15.157  63.963  1.00  0.00     0.000 HD 
BRANCH  26  29
HETATM   29  C   UNL     3     -11.275  13.040  64.300  1.00  0.00    -0.373 C  
HETATM   30  C   UNL     3     -10.426  11.807  64.159  1.00  0.00    -0.346 C  
HETATM   31  O   UNL     3     -11.918  13.183  63.052  1.00  0.00    -0.835 OA 
HETATM   32  O   UNL     3      -9.453  11.754  63.231  1.00  0.00    -0.300 OA 
HETATM   33  O   UNL     3     -10.719  10.796  64.778  1.00  0.00    -0.270 OA 
HETATM   34  H   UNL     3     -12.303  12.362  62.767  1.00  0.00     0.000 HD 
ENDBRANCH  26  29
ENDBRANCH  23  26
ENDBRANCH   3  23
BRANCH   3  35
HETATM   35  C   UNL     3      -9.964  14.260  68.844  1.00  0.00    -0.156 C  
HETATM   36  O   UNL     3     -11.007  13.785  69.643  1.00  0.00    -0.446 OA 
HETATM   37  H   UNL     3     -10.694  13.306  70.402  1.00  0.00     0.000 HD 
ENDBRANCH   3  35
TORSDOF 8
ENDMDL
MODEL      223
REMARK 921   NORMALIZED FREE ENERGY PREDICTED BY IDOCK:   -4.04 KCAL/MOL
REMARK 922        TOTAL FREE ENERGY PREDICTED BY IDOCK:   -7.60 KCAL/MOL
REMARK 923 INTER-LIGAND FREE ENERGY PREDICTED BY IDOCK:   -6.51 KCAL/MOL
REMARK 924 INTRA-LIGAND FREE ENERGY PREDICTED BY IDOCK:   -1.09 KCAL/MOL
REMARK 927      BINDING AFFINITY PREDICTED BY RF-SCORE:    0.00 PKD
ROOT
HETATM    1 MN   UNL     1     -11.634   8.386  68.971  1.00  0.00    -0.436 Mn 
HETATM    2  C   UNL     2     -10.692  16.056  68.395  1.00  0.00    -0.289 C  
HETATM    3  C   UNL     3     -10.657   6.329  67.741  1.00  0.00    -0.262 C  
HETATM    4  H   UNL     3     -10.697   4.395  67.577  1.00  0.00     0.000 HD 
HETATM    5  H   UNL     2     -12.062  14.761  68.066  1.00  0.00     0.000 HD 
HETATM    6  O   UNL     2     -12.034  15.710  68.093  1.00  0.00    -0.207 OA 
HETATM    7  O   UNL     3     -10.591   5.132  66.986  1.00  0.00    -0.223 OA 
ENDROOT
BRANCH   2   8
HETATM    8  C   UNL     2     -10.648  17.597  68.439  1.00  0.00    -0.316 C  
HETATM    9  H   UNL     2     -10.650  19.129  67.184  1.00  0.00     0.000 HD 
HETATM   10  O   UNL     2     -10.677  18.180  67.157  1.00  0.00    -0.375 OA 
ENDBRANCH   2   8
BRANCH   2  11
HETATM   11  C   UNL     2      -9.742  15.382  67.328  1.00  0.00    -0.212 C  
HETATM   12  H   UNL     2      -7.808  15.077  67.072  1.00  0.00     0.000 HD 
HETATM   13  O   UNL     2      -8.379  15.483  67.713  1.00  0.00    -0.140 OA 
BRANCH  11  14
HETATM   14  C   UNL     2     -10.019  13.873  67.020  1.00  0.00    -0.258 C  
HETATM   15  H   UNL     2     -11.259  12.898  65.922  1.00  0.00     0.000 HD 
HETATM   16  O   UNL     2     -11.091  13.814  66.109  1.00  0.00    -0.294 OA 
BRANCH  14  17
HETATM   17  C   UNL     2     -10.376  12.997  68.243  1.00  0.00    -0.252 C  
HETATM   18  C   UNL     2      -9.436  11.810  68.370  1.00  0.00    -0.188 C  
HETATM   19  H   UNL     2     -11.910  11.983  68.858  1.00  0.00     0.000 HD 
HETATM   20  O   UNL     2     -11.690  12.521  68.107  1.00  0.00    -0.317 OA 
HETATM   21  O   UNL     2      -9.568  10.960  69.402  1.00  0.00    -0.114 OA 
HETATM   22  O   UNL     2      -8.501  11.647  67.587  1.00  0.00    -0.132 OA 
ENDBRANCH  14  17
ENDBRANCH  11  14
ENDBRANCH   2  11
BRANCH   3  23
HETATM   23  C   UNL     3      -9.619   6.142  68.919  1.00  0.00    -0.129 C  
HETATM   24  O   UNL     3      -8.358   6.266  68.305  1.00  0.00    -0.114 OA 
HETATM   25  H   UNL     3      -7.734   6.153  69.013  1.00  0.00     0.000 HD 
BRANCH  23  26
HETATM   26  C   UNL     3      -9.495   6.911  70.313  1.00  0.00    -0.162 C  
HETATM   27  O   UNL     3      -8.411   6.287  70.955  1.00  0.00    -0.123 OA 
HETATM   28  H   UNL     3      -8.337   6.744  71.784  1.00  0.00     0.000 HD 
BRANCH  26  29
HETATM   29  C   UNL     3     -10.614   7.007  71.459  1.00  0.00    -0.212 C  
HETATM   30  C   UNL     3     -10.486   6.199  72.720  1.00  0.00    -0.216 C  
HETATM   31  O   UNL     3     -11.893   6.689  70.953  1.00  0.00    -0.359 OA 
HETATM   32  O   UNL     3     -10.545   4.856  72.677  1.00  0.00    -0.202 OA 
HETATM   33  O   UNL     3     -10.484   6.764  73.803  1.00  0.00    -0.325 OA 
HETATM   34  H   UNL     3     -12.556   6.746  71.632  1.00  0.00     0.000 HD 
ENDBRANCH  26  29
ENDBRANCH  23  26
ENDBRANCH   3  23
BRANCH   3  35
HETATM   35  C   UNL     3     -10.482   7.544  66.766  1.00  0.00    -0.249 C  
HETATM   36  O   UNL     3      -9.420   7.365  65.876  1.00  0.00    -0.401 OA 
HETATM   37  H   UNL     3      -9.314   8.101  65.285  1.00  0.00     0.000 HD 
ENDBRANCH   3  35
TORSDOF 8
ENDMDL
MODEL      224
REMARK 921   NORMALIZED FREE ENERGY PREDICTED BY IDOCK:   -4.03 KCAL/MOL
REMARK 922        TOTAL FREE ENERGY PREDICTED BY IDOCK:   -7.59 KCAL/MOL
REMARK 923 INTER-LIGAND FREE ENERGY PREDICTED BY IDOCK:   -6.54 KCAL/MOL
REMARK 924 INTRA-LIGAND FREE ENERGY PREDICTED BY IDOCK:   -1.05 KCAL/MOL
REMARK 927      BINDING AFFINITY PREDICTED BY RF-SCORE:    0.00 PKD
ROOT
HETATM    1 MN   UNL     1     -10.430   9.482  72.223  1.00  0.00    -0.314 Mn 
HETATM    2  C   UNL     2     -10.270  16.328  68.596  1.00  0.00    -0.254 C  
HETATM    3  C   UNL     3     -11.683   7.248  71.852  1.00  0.00    -0.287 C  
HETATM    4  H   UNL     3     -12.005   5.461  72.538  1.00  0.00     0.000 HD 
HETATM    5  H   UNL     2     -10.874  15.615  70.266  1.00  0.00     0.000 HD 
HETATM    6  O   UNL     2     -10.768  16.491  69.914  1.00  0.00    -0.329 OA 
HETATM    7  O   UNL     3     -12.517   6.128  72.096  1.00  0.00    -0.262 OA 
ENDROOT
BRANCH   2   8
HETATM    8  C   UNL     2     -10.099  17.750  68.025  1.00  0.00    -0.355 C  
HETATM    9  H   UNL     2      -8.779  19.226  68.060  1.00  0.00     0.000 HD 
HETATM   10  O   UNL     2      -8.885  18.350  68.412  1.00  0.00    -0.306 OA 
ENDBRANCH   2   8
BRANCH   2  11
HETATM   11  C   UNL     2     -11.256  15.390  67.793  1.00  0.00    -0.321 C  
HETATM   12  H   UNL     2     -11.973  15.245  65.959  1.00  0.00     0.000 HD 
HETATM   13  O   UNL     2     -11.380  15.809  66.442  1.00  0.00    -0.069 OA 
BRANCH  11  14
HETATM   14  C   UNL     2     -10.889  13.870  67.769  1.00  0.00    -0.250 C  
HETATM   15  H   UNL     2      -9.944  12.663  68.929  1.00  0.00     0.000 HD 
HETATM   16  O   UNL     2     -10.168  13.586  68.944  1.00  0.00    -0.177 OA 
BRANCH  14  17
HETATM   17  C   UNL     2     -10.043  13.407  66.559  1.00  0.00    -0.280 C  
HETATM   18  C   UNL     2     -10.800  12.410  65.700  1.00  0.00    -0.277 C  
HETATM   19  H   UNL     2      -8.343  12.518  66.279  1.00  0.00     0.000 HD 
HETATM   20  O   UNL     2      -8.863  12.802  67.021  1.00  0.00    -0.206 OA 
HETATM   21  O   UNL     2     -10.238  11.929  64.579  1.00  0.00    -0.261 OA 
HETATM   22  O   UNL     2     -11.957  12.083  65.965  1.00  0.00    -0.559 OA 
ENDBRANCH  14  17
ENDBRANCH  11  14
ENDBRANCH   2  11
BRANCH   3  23
HETATM   23  C   UNL     3     -10.400   6.670  71.132  1.00  0.00    -0.206 C  
HETATM   24  O   UNL     3      -9.509   6.370  72.181  1.00  0.00    -0.151 OA 
HETATM   25  H   UNL     3      -8.738   6.023  71.747  1.00  0.00     0.000 HD 
BRANCH  23  26
HETATM   26  C   UNL     3     -10.259   5.468  70.091  1.00  0.00    -0.263 C  
HETATM   27  O   UNL     3     -10.076   4.332  70.901  1.00  0.00    -0.185 OA 
HETATM   28  H   UNL     3      -9.992   3.617  70.282  1.00  0.00     0.000 HD 
BRANCH  26  29
HETATM   29  C   UNL     3      -9.137   5.310  68.954  1.00  0.00    -0.111 C  
HETATM   30  C   UNL     3      -8.311   6.492  68.528  1.00  0.00    -0.121 C  
HETATM   31  O   UNL     3      -9.688   4.802  67.758  1.00  0.00    -0.149 OA 
HETATM   32  O   UNL     3      -8.888   7.538  67.911  1.00  0.00    -0.127 OA 
HETATM   33  O   UNL     3      -7.093   6.436  68.599  1.00  0.00    -0.077 OA 
HETATM   34  H   UNL     3      -9.024   4.709  67.084  1.00  0.00     0.000 HD 
ENDBRANCH  26  29
ENDBRANCH  23  26
ENDBRANCH   3  23
BRANCH   3  35
HETATM   35  C   UNL     3     -12.528   8.349  71.123  1.00  0.00    -0.173 C  
HETATM   36  O   UNL     3     -11.790   9.031  70.152  1.00  0.00    -0.468 OA 
HETATM   37  H   UNL     3     -12.303   9.698  69.710  1.00  0.00     0.000 HD 
ENDBRANCH   3  35
TORSDOF 8
ENDMDL
MODEL      225
REMARK 921   NORMALIZED FREE ENERGY PREDICTED BY IDOCK:   -4.03 KCAL/MOL
REMARK 922        TOTAL FREE ENERGY PREDICTED BY IDOCK:   -7.59 KCAL/MOL
REMARK 923 INTER-LIGAND FREE ENERGY PREDICTED BY IDOCK:   -6.33 KCAL/MOL
REMARK 924 INTRA-LIGAND FREE ENERGY PREDICTED BY IDOCK:   -1.26 KCAL/MOL
REMARK 927      BINDING AFFINITY PREDICTED BY RF-SCORE:    0.00 PKD
ROOT
HETATM    1 MN   UNL     1      -7.959  11.037  66.231  1.00  0.00    -0.123 Mn 
HETATM    2  C   UNL     2      -9.515   7.691  73.046  1.00  0.00    -0.226 C  
HETATM    3  C   UNL     3      -8.698  10.627  63.785  1.00  0.00    -0.141 C  
HETATM    4  H   UNL     3      -8.486  11.179  61.936  1.00  0.00     0.000 HD 
HETATM    5  H   UNL     2      -8.027   7.877  71.858  1.00  0.00     0.000 HD 
HETATM    6  O   UNL     2      -8.135   7.556  72.745  1.00  0.00    -0.099 OA 
HETATM    7  O   UNL     3      -8.625  10.359  62.396  1.00  0.00    -0.166 OA 
ENDROOT
BRANCH   2   8
HETATM    8  C   UNL     2      -9.692   7.169  74.486  1.00  0.00     0.054 C  
HETATM    9  H   UNL     2      -9.993   5.454  75.429  1.00  0.00     0.000 HD 
HETATM   10  O   UNL     2      -9.884   5.775  74.541  1.00  0.00    -0.192 OA 
ENDBRANCH   2   8
BRANCH   2  11
HETATM   11  C   UNL     2     -10.352   6.929  71.943  1.00  0.00    -0.189 C  
HETATM   12  H   UNL     2     -11.572   7.379  70.457  1.00  0.00     0.000 HD 
HETATM   13  O   UNL     2     -11.069   7.837  71.120  1.00  0.00    -0.241 OA 
BRANCH  11  14
HETATM   14  C   UNL     2      -9.537   5.994  70.989  1.00  0.00    -0.172 C  
HETATM   15  H   UNL     2      -9.576   5.568  69.115  1.00  0.00     0.000 HD 
HETATM   16  O   UNL     2     -10.070   6.136  69.694  1.00  0.00    -0.163 OA 
BRANCH  14  17
HETATM   17  C   UNL     2      -9.553   4.491  71.355  1.00  0.00    -0.165 C  
HETATM   18  C   UNL     2      -8.166   3.994  71.723  1.00  0.00    -0.090 C  
HETATM   19  H   UNL     2     -10.034   2.827  70.483  1.00  0.00     0.000 HD 
HETATM   20  O   UNL     2     -10.024   3.750  70.259  1.00  0.00    -0.134 OA 
HETATM   21  O   UNL     2      -7.993   2.719  72.111  1.00  0.00    -0.053 OA 
HETATM   22  O   UNL     2      -7.198   4.753  71.747  1.00  0.00    -0.058 OA 
ENDBRANCH  14  17
ENDBRANCH  11  14
ENDBRANCH   2  11
BRANCH   3  23
HETATM   23  C   UNL     3      -9.772  11.777  63.938  1.00  0.00    -0.202 C  
HETATM   24  O   UNL     3     -11.013  11.123  63.806  1.00  0.00    -0.526 OA 
HETATM   25  H   UNL     3     -11.658  11.814  63.898  1.00  0.00     0.000 HD 
BRANCH  23  26
HETATM   26  C   UNL     3      -9.974  12.849  65.103  1.00  0.00    -0.157 C  
HETATM   27  O   UNL     3     -10.237  12.070  66.245  1.00  0.00    -0.214 OA 
HETATM   28  H   UNL     3     -10.357  12.708  66.938  1.00  0.00     0.000 HD 
BRANCH  26  29
HETATM   29  C   UNL     3     -11.087  14.003  65.163  1.00  0.00    -0.341 C  
HETATM   30  C   UNL     3     -12.425  13.807  64.507  1.00  0.00    -0.285 C  
HETATM   31  O   UNL     3     -10.596  15.216  64.632  1.00  0.00    -0.570 OA 
HETATM   32  O   UNL     3     -12.517  13.692  63.170  1.00  0.00    -0.786 OA 
HETATM   33  O   UNL     3     -13.445  13.910  65.170  1.00  0.00    -0.515 OA 
HETATM   34  H   UNL     3     -11.256  15.899  64.668  1.00  0.00     0.000 HD 
ENDBRANCH  26  29
ENDBRANCH  23  26
ENDBRANCH   3  23
BRANCH   3  35
HETATM   35  C   UNL     3      -8.927   9.274  64.543  1.00  0.00    -0.136 C  
HETATM   36  O   UNL     3     -10.026   9.324  65.403  1.00  0.00    -0.438 OA 
HETATM   37  H   UNL     3     -10.165   8.504  65.862  1.00  0.00     0.000 HD 
ENDBRANCH   3  35
TORSDOF 8
ENDMDL
MODEL      226
REMARK 921   NORMALIZED FREE ENERGY PREDICTED BY IDOCK:   -4.02 KCAL/MOL
REMARK 922        TOTAL FREE ENERGY PREDICTED BY IDOCK:   -7.58 KCAL/MOL
REMARK 923 INTER-LIGAND FREE ENERGY PREDICTED BY IDOCK:   -6.08 KCAL/MOL
REMARK 924 INTRA-LIGAND FREE ENERGY PREDICTED BY IDOCK:   -1.50 KCAL/MOL
REMARK 927      BINDING AFFINITY PREDICTED BY RF-SCORE:    0.00 PKD
ROOT
HETATM    1 MN   UNL     1      -8.089   8.237  67.062  1.00  0.00    -0.092 Mn 
HETATM    2  C   UNL     2      -8.970   3.727  73.302  1.00  0.00    -0.102 C  
HETATM    3  C   UNL     3      -9.586   9.939  65.814  1.00  0.00    -0.250 C  
HETATM    4  H   UNL     3      -9.724  11.131  64.288  1.00  0.00     0.000 HD 
HETATM    5  H   UNL     2      -8.784   3.518  71.409  1.00  0.00     0.000 HD 
HETATM    6  O   UNL     2      -8.769   2.924  72.150  1.00  0.00    -0.072 OA 
HETATM    7  O   UNL     3     -10.314  10.564  64.771  1.00  0.00    -0.339 OA 
ENDROOT
BRANCH   2   8
HETATM    8  C   UNL     2      -8.946   2.762  74.504  1.00  0.00    -0.078 C  
HETATM    9  H   UNL     2      -9.804   1.074  75.084  1.00  0.00     0.000 HD 
HETATM   10  O   UNL     2      -9.819   1.668  74.343  1.00  0.00    -0.075 OA 
ENDBRANCH   2   8
BRANCH   2  11
HETATM   11  C   UNL     2     -10.306   4.550  73.121  1.00  0.00    -0.180 C  
HETATM   12  H   UNL     2     -11.709   5.338  74.265  1.00  0.00     0.000 HD 
HETATM   13  O   UNL     2     -10.905   4.843  74.374  1.00  0.00    -0.346 OA 
BRANCH  11  14
HETATM   14  C   UNL     2     -10.178   5.903  72.347  1.00  0.00    -0.188 C  
HETATM   15  H   UNL     2     -10.292   6.454  70.509  1.00  0.00     0.000 HD 
HETATM   16  O   UNL     2     -10.370   5.633  70.979  1.00  0.00    -0.211 OA 
BRANCH  14  17
HETATM   17  C   UNL     2      -8.827   6.639  72.509  1.00  0.00    -0.127 C  
HETATM   18  C   UNL     2      -9.030   8.126  72.745  1.00  0.00    -0.246 C  
HETATM   19  H   UNL     2      -7.231   6.917  71.445  1.00  0.00     0.000 HD 
HETATM   20  O   UNL     2      -8.060   6.466  71.346  1.00  0.00    -0.111 OA 
HETATM   21  O   UNL     2      -7.967   8.922  72.951  1.00  0.00    -0.379 OA 
HETATM   22  O   UNL     2     -10.156   8.615  72.828  1.00  0.00    -0.199 OA 
ENDBRANCH  14  17
ENDBRANCH  11  14
ENDBRANCH   2  11
BRANCH   3  23
HETATM   23  C   UNL     3      -8.859  11.113  66.583  1.00  0.00    -0.166 C  
HETATM   24  O   UNL     3      -7.949  11.642  65.646  1.00  0.00    -0.264 OA 
HETATM   25  H   UNL     3      -7.513  12.348  66.108  1.00  0.00     0.000 HD 
BRANCH  23  26
HETATM   26  C   UNL     3      -9.469  12.375  67.348  1.00  0.00    -0.186 C  
HETATM   27  O   UNL     3      -9.224  12.105  68.706  1.00  0.00    -0.385 OA 
HETATM   28  H   UNL     3      -9.588  12.855  69.162  1.00  0.00     0.000 HD 
BRANCH  26  29
HETATM   29  C   UNL     3     -10.997  12.864  67.324  1.00  0.00    -0.261 C  
HETATM   30  C   UNL     3     -11.586  13.585  68.505  1.00  0.00    -0.333 C  
HETATM   31  O   UNL     3     -11.876  11.786  67.083  1.00  0.00    -0.599 OA 
HETATM   32  O   UNL     3     -11.733  12.955  69.684  1.00  0.00    -0.300 OA 
HETATM   33  O   UNL     3     -12.075  14.694  68.354  1.00  0.00    -0.284 OA 
HETATM   34  H   UNL     3     -12.781  12.075  67.069  1.00  0.00     0.000 HD 
ENDBRANCH  26  29
ENDBRANCH  23  26
ENDBRANCH   3  23
BRANCH   3  35
HETATM   35  C   UNL     3     -10.559   9.003  66.610  1.00  0.00    -0.087 C  
HETATM   36  O   UNL     3     -10.429   9.152  67.993  1.00  0.00    -0.218 OA 
HETATM   37  H   UNL     3     -11.020   8.584  68.476  1.00  0.00     0.000 HD 
ENDBRANCH   3  35
TORSDOF 8
ENDMDL
MODEL      227
REMARK 921   NORMALIZED FREE ENERGY PREDICTED BY IDOCK:   -4.02 KCAL/MOL
REMARK 922        TOTAL FREE ENERGY PREDICTED BY IDOCK:   -7.58 KCAL/MOL
REMARK 923 INTER-LIGAND FREE ENERGY PREDICTED BY IDOCK:   -5.94 KCAL/MOL
REMARK 924 INTRA-LIGAND FREE ENERGY PREDICTED BY IDOCK:   -1.64 KCAL/MOL
REMARK 927      BINDING AFFINITY PREDICTED BY RF-SCORE:    0.00 PKD
ROOT
HETATM    1 MN   UNL     1      -7.218  11.936  70.439  1.00  0.00    -0.358 Mn 
HETATM    2  C   UNL     2      -9.873   4.980  72.591  1.00  0.00    -0.159 C  
HETATM    3  C   UNL     3      -6.280  12.932  68.243  1.00  0.00    -0.082 C  
HETATM    4  H   UNL     3      -5.511  14.502  67.398  1.00  0.00     0.000 HD 
HETATM    5  H   UNL     2      -8.369   6.106  72.956  1.00  0.00     0.000 HD 
HETATM    6  O   UNL     2      -8.713   5.307  73.339  1.00  0.00    -0.115 OA 
HETATM    7  O   UNL     3      -5.393  13.561  67.334  1.00  0.00    -0.343 OA 
ENDROOT
BRANCH   2   8
HETATM    8  C   UNL     2     -10.430   3.684  73.212  1.00  0.00    -0.177 C  
HETATM    9  H   UNL     2     -12.128   2.995  73.963  1.00  0.00     0.000 HD 
HETATM   10  O   UNL     2     -11.785   3.794  73.580  1.00  0.00    -0.105 OA 
ENDBRANCH   2   8
BRANCH   2  11
HETATM   11  C   UNL     2      -9.481   4.885  71.063  1.00  0.00    -0.164 C  
HETATM   12  H   UNL     2      -9.066   3.479  69.741  1.00  0.00     0.000 HD 
HETATM   13  O   UNL     2      -9.301   3.536  70.660  1.00  0.00    -0.130 OA 
BRANCH  11  14
HETATM   14  C   UNL     2     -10.487   5.533  70.056  1.00  0.00    -0.303 C  
HETATM   15  H   UNL     2     -10.927   5.290  68.200  1.00  0.00     0.000 HD 
HETATM   16  O   UNL     2     -10.316   4.897  68.812  1.00  0.00    -0.108 OA 
BRANCH  14  17
HETATM   17  C   UNL     2     -10.331   7.058  69.844  1.00  0.00    -0.210 C  
HETATM   18  C   UNL     2     -11.231   7.844  70.781  1.00  0.00    -0.266 C  
HETATM   19  H   UNL     2     -10.569   8.315  68.388  1.00  0.00     0.000 HD 
HETATM   20  O   UNL     2     -10.665   7.379  68.518  1.00  0.00    -0.182 OA 
HETATM   21  O   UNL     2     -11.198   9.187  70.769  1.00  0.00    -0.248 OA 
HETATM   22  O   UNL     2     -11.942   7.280  71.612  1.00  0.00    -0.279 OA 
ENDBRANCH  14  17
ENDBRANCH  11  14
ENDBRANCH   2  11
BRANCH   3  23
HETATM   23  C   UNL     3      -7.705  13.544  67.934  1.00  0.00    -0.153 C  
HETATM   24  O   UNL     3      -7.446  14.628  67.072  1.00  0.00    -0.290 OA 
HETATM   25  H   UNL     3      -8.303  14.995  66.887  1.00  0.00     0.000 HD 
BRANCH  23  26
HETATM   26  C   UNL     3      -9.022  12.846  67.364  1.00  0.00    -0.199 C  
HETATM   27  O   UNL     3      -9.887  13.920  67.085  1.00  0.00    -0.232 OA 
HETATM   28  H   UNL     3     -10.671  13.505  66.746  1.00  0.00     0.000 HD 
BRANCH  26  29
HETATM   29  C   UNL     3      -9.958  11.792  68.131  1.00  0.00    -0.194 C  
HETATM   30  C   UNL     3     -11.394  12.121  68.428  1.00  0.00    -0.286 C  
HETATM   31  O   UNL     3      -9.404  11.426  69.377  1.00  0.00    -0.370 OA 
HETATM   32  O   UNL     3     -11.702  13.117  69.278  1.00  0.00    -0.286 OA 
HETATM   33  O   UNL     3     -12.281  11.386  68.022  1.00  0.00    -0.607 OA 
HETATM   34  H   UNL     3      -9.958  10.802  69.831  1.00  0.00     0.000 HD 
ENDBRANCH  26  29
ENDBRANCH  23  26
ENDBRANCH   3  23
BRANCH   3  35
HETATM   35  C   UNL     3      -6.085  11.380  68.136  1.00  0.00    -0.045 C  
HETATM   36  O   UNL     3      -5.458  10.843  69.264  1.00  0.00    -0.041 OA 
HETATM   37  H   UNL     3      -5.340   9.902  69.199  1.00  0.00     0.000 HD 
ENDBRANCH   3  35
TORSDOF 8
ENDMDL
MODEL      228
REMARK 921   NORMALIZED FREE ENERGY PREDICTED BY IDOCK:   -4.01 KCAL/MOL
REMARK 922        TOTAL FREE ENERGY PREDICTED BY IDOCK:   -7.56 KCAL/MOL
REMARK 923 INTER-LIGAND FREE ENERGY PREDICTED BY IDOCK:   -6.21 KCAL/MOL
REMARK 924 INTRA-LIGAND FREE ENERGY PREDICTED BY IDOCK:   -1.36 KCAL/MOL
REMARK 927      BINDING AFFINITY PREDICTED BY RF-SCORE:    0.00 PKD
ROOT
HETATM    1 MN   UNL     1     -10.540  14.516  68.766  1.00  0.00    -0.201 Mn 
HETATM    2  C   UNL     2      -8.838   7.727  72.092  1.00  0.00    -0.133 C  
HETATM    3  C   UNL     3      -9.751  15.753  66.634  1.00  0.00    -0.249 C  
HETATM    4  H   UNL     3      -9.894  17.378  65.582  1.00  0.00     0.000 HD 
HETATM    5  H   UNL     2      -8.594   9.590  72.453  1.00  0.00     0.000 HD 
HETATM    6  O   UNL     2      -8.471   8.792  72.954  1.00  0.00    -0.409 OA 
HETATM    7  O   UNL     3      -9.205  16.760  65.799  1.00  0.00    -0.520 OA 
ENDROOT
BRANCH   2   8
HETATM    8  C   UNL     2      -8.639   6.432  72.905  1.00  0.00    -0.124 C  
HETATM    9  H   UNL     2      -9.733   4.999  73.725  1.00  0.00     0.000 HD 
HETATM   10  O   UNL     2      -9.855   5.796  73.224  1.00  0.00    -0.160 OA 
ENDBRANCH   2   8
BRANCH   2  11
HETATM   11  C   UNL     2      -7.986   7.830  70.766  1.00  0.00    -0.101 C  
HETATM   12  H   UNL     2      -7.511   9.207  69.432  1.00  0.00     0.000 HD 
HETATM   13  O   UNL     2      -8.024   9.144  70.229  1.00  0.00    -0.099 OA 
BRANCH  11  14
HETATM   14  C   UNL     2      -6.479   7.429  70.886  1.00  0.00    -0.039 C  
HETATM   15  H   UNL     2      -4.828   8.023  70.100  1.00  0.00     0.000 HD 
HETATM   16  O   UNL     2      -5.743   8.267  70.027  1.00  0.00    -0.023 OA 
BRANCH  14  17
HETATM   17  C   UNL     2      -6.148   5.961  70.529  1.00  0.00    -0.030 C  
HETATM   18  C   UNL     2      -5.676   5.185  71.746  1.00  0.00    -0.016 C  
HETATM   19  H   UNL     2      -4.934   5.034  69.335  1.00  0.00     0.000 HD 
HETATM   20  O   UNL     2      -5.137   5.936  69.555  1.00  0.00    -0.004 OA 
HETATM   21  O   UNL     2      -5.383   3.879  71.635  1.00  0.00     0.000 OA 
HETATM   22  O   UNL     2      -5.624   5.708  72.859  1.00  0.00    -0.022 OA 
ENDBRANCH  14  17
ENDBRANCH  11  14
ENDBRANCH   2  11
BRANCH   3  23
HETATM   23  C   UNL     3     -11.035  15.227  65.877  1.00  0.00    -0.325 C  
HETATM   24  O   UNL     3     -10.582  14.921  64.578  1.00  0.00    -0.588 OA 
HETATM   25  H   UNL     3     -11.354  14.606  64.124  1.00  0.00     0.000 HD 
BRANCH  23  26
HETATM   26  C   UNL     3     -12.051  14.058  66.263  1.00  0.00    -0.456 C  
HETATM   27  O   UNL     3     -12.513  14.412  67.543  1.00  0.00    -0.599 OA 
HETATM   28  H   UNL     3     -13.117  13.716  67.774  1.00  0.00     0.000 HD 
BRANCH  26  29
HETATM   29  C   UNL     3     -11.708  12.496  66.400  1.00  0.00    -0.397 C  
HETATM   30  C   UNL     3     -11.444  11.888  67.750  1.00  0.00    -0.319 C  
HETATM   31  O   UNL     3     -10.584  12.148  65.619  1.00  0.00    -0.246 OA 
HETATM   32  O   UNL     3     -10.366  12.259  68.464  1.00  0.00    -0.226 OA 
HETATM   33  O   UNL     3     -12.119  10.945  68.131  1.00  0.00    -0.563 OA 
HETATM   34  H   UNL     3     -10.381  11.223  65.701  1.00  0.00     0.000 HD 
ENDBRANCH  26  29
ENDBRANCH  23  26
ENDBRANCH   3  23
BRANCH   3  35
HETATM   35  C   UNL     3      -8.615  14.733  66.992  1.00  0.00    -0.234 C  
HETATM   36  O   UNL     3      -7.963  15.060  68.184  1.00  0.00    -0.122 OA 
HETATM   37  H   UNL     3      -7.274  14.442  68.401  1.00  0.00     0.000 HD 
ENDBRANCH   3  35
TORSDOF 8
ENDMDL
MODEL      229
REMARK 921   NORMALIZED FREE ENERGY PREDICTED BY IDOCK:   -3.97 KCAL/MOL
REMARK 922        TOTAL FREE ENERGY PREDICTED BY IDOCK:   -7.51 KCAL/MOL
REMARK 923 INTER-LIGAND FREE ENERGY PREDICTED BY IDOCK:   -6.42 KCAL/MOL
REMARK 924 INTRA-LIGAND FREE ENERGY PREDICTED BY IDOCK:   -1.09 KCAL/MOL
REMARK 927      BINDING AFFINITY PREDICTED BY RF-SCORE:    0.00 PKD
ROOT
HETATM    1 MN   UNL     1     -11.549  11.727  66.080  1.00  0.00    -0.298 Mn 
HETATM    2  C   UNL     2      -7.889   4.970  65.079  1.00  0.00    -0.090 C  
HETATM    3  C   UNL     3     -11.505  13.576  67.890  1.00  0.00    -0.318 C  
HETATM    4  H   UNL     3     -12.271  15.262  68.473  1.00  0.00     0.000 HD 
HETATM    5  H   UNL     2      -9.662   5.588  65.445  1.00  0.00     0.000 HD 
HETATM    6  O   UNL     2      -9.284   4.749  65.212  1.00  0.00    -0.152 OA 
HETATM    7  O   UNL     3     -11.949  14.473  68.894  1.00  0.00    -0.315 OA 
ENDROOT
BRANCH   2   8
HETATM    8  C   UNL     2      -7.275   3.608  64.700  1.00  0.00    -0.066 C  
HETATM    9  H   UNL     2      -5.590   2.883  63.952  1.00  0.00     0.000 HD 
HETATM   10  O   UNL     2      -5.968   3.722  64.186  1.00  0.00    -0.014 OA 
ENDBRANCH   2   8
BRANCH   2  11
HETATM   11  C   UNL     2      -7.346   5.608  66.419  1.00  0.00    -0.078 C  
HETATM   12  H   UNL     2      -5.919   6.853  66.977  1.00  0.00     0.000 HD 
HETATM   13  O   UNL     2      -6.246   6.469  66.171  1.00  0.00    -0.035 OA 
BRANCH  11  14
HETATM   14  C   UNL     2      -8.384   6.422  67.259  1.00  0.00    -0.112 C  
HETATM   15  H   UNL     2      -8.564   8.249  67.830  1.00  0.00     0.000 HD 
HETATM   16  O   UNL     2      -7.934   7.754  67.319  1.00  0.00    -0.114 OA 
BRANCH  14  17
HETATM   17  C   UNL     2      -8.609   5.923  68.706  1.00  0.00    -0.110 C  
HETATM   18  C   UNL     2     -10.061   5.547  68.945  1.00  0.00    -0.198 C  
HETATM   19  H   UNL     2      -8.387   6.631  70.497  1.00  0.00     0.000 HD 
HETATM   20  O   UNL     2      -8.249   6.937  69.609  1.00  0.00    -0.127 OA 
HETATM   21  O   UNL     2     -10.436   5.051  70.136  1.00  0.00    -0.267 OA 
HETATM   22  O   UNL     2     -10.897   5.614  68.045  1.00  0.00    -0.204 OA 
ENDBRANCH  14  17
ENDBRANCH  11  14
ENDBRANCH   2  11
BRANCH   3  23
HETATM   23  C   UNL     3     -10.517  14.414  66.983  1.00  0.00    -0.268 C  
HETATM   24  O   UNL     3      -9.642  13.456  66.433  1.00  0.00    -0.269 OA 
HETATM   25  H   UNL     3      -9.049  13.960  65.889  1.00  0.00     0.000 HD 
BRANCH  23  26
HETATM   26  C   UNL     3     -10.827  15.441  65.800  1.00  0.00    -0.343 C  
HETATM   27  O   UNL     3     -10.650  14.681  64.630  1.00  0.00    -0.566 OA 
HETATM   28  H   UNL     3     -10.834  15.292  63.926  1.00  0.00     0.000 HD 
BRANCH  26  29
HETATM   29  C   UNL     3     -10.047  16.809  65.489  1.00  0.00    -0.095 C  
HETATM   30  C   UNL     3      -9.205  17.465  66.548  1.00  0.00    -0.266 C  
HETATM   31  O   UNL     3     -10.935  17.817  65.055  1.00  0.00    -0.784 OA 
HETATM   32  O   UNL     3      -9.776  17.962  67.660  1.00  0.00    -0.269 OA 
HETATM   33  O   UNL     3      -8.025  17.688  66.329  1.00  0.00    -0.302 OA 
HETATM   34  H   UNL     3     -10.474  18.627  64.871  1.00  0.00     0.000 HD 
ENDBRANCH  26  29
ENDBRANCH  23  26
ENDBRANCH   3  23
BRANCH   3  35
HETATM   35  C   UNL     3     -10.974  12.274  68.583  1.00  0.00    -0.239 C  
HETATM   36  O   UNL     3     -11.919  11.245  68.579  1.00  0.00    -0.519 OA 
HETATM   37  H   UNL     3     -11.597  10.456  68.999  1.00  0.00     0.000 HD 
ENDBRANCH   3  35
TORSDOF 8
ENDMDL
MODEL      230
REMARK 921   NORMALIZED FREE ENERGY PREDICTED BY IDOCK:   -3.97 KCAL/MOL
REMARK 922        TOTAL FREE ENERGY PREDICTED BY IDOCK:   -7.50 KCAL/MOL
REMARK 923 INTER-LIGAND FREE ENERGY PREDICTED BY IDOCK:   -5.97 KCAL/MOL
REMARK 924 INTRA-LIGAND FREE ENERGY PREDICTED BY IDOCK:   -1.53 KCAL/MOL
REMARK 927      BINDING AFFINITY PREDICTED BY RF-SCORE:    0.00 PKD
ROOT
HETATM    1 MN   UNL     1     -11.274  11.619  66.169  1.00  0.00    -0.250 Mn 
HETATM    2  C   UNL     2      -9.925   4.084  64.956  1.00  0.00    -0.201 C  
HETATM    3  C   UNL     3     -11.075  13.204  68.204  1.00  0.00    -0.255 C  
HETATM    4  H   UNL     3     -11.360  15.009  68.860  1.00  0.00     0.000 HD 
HETATM    5  H   UNL     2     -11.427   5.268  65.030  1.00  0.00     0.000 HD 
HETATM    6  O   UNL     2     -11.302   4.367  64.758  1.00  0.00    -0.266 OA 
HETATM    7  O   UNL     3     -11.433  14.131  69.215  1.00  0.00    -0.259 OA 
ENDROOT
BRANCH   2   8
HETATM    8  C   UNL     2      -9.722   2.622  64.515  1.00  0.00    -0.082 C  
HETATM    9  H   UNL     2      -8.418   1.535  63.494  1.00  0.00     0.000 HD 
HETATM   10  O   UNL     2      -8.543   2.436  63.766  1.00  0.00    -0.085 OA 
ENDBRANCH   2   8
BRANCH   2  11
HETATM   11  C   UNL     2      -9.555   4.395  66.461  1.00  0.00    -0.197 C  
HETATM   12  H   UNL     2      -9.028   3.392  68.078  1.00  0.00     0.000 HD 
HETATM   13  O   UNL     2      -9.251   3.206  67.173  1.00  0.00    -0.167 OA 
BRANCH  11  14
HETATM   14  C   UNL     2      -8.360   5.380  66.683  1.00  0.00    -0.108 C  
HETATM   15  H   UNL     2      -6.712   5.343  67.672  1.00  0.00     0.000 HD 
HETATM   16  O   UNL     2      -7.438   4.746  67.536  1.00  0.00    -0.077 OA 
BRANCH  14  17
HETATM   17  C   UNL     2      -8.729   6.748  67.302  1.00  0.00    -0.119 C  
HETATM   18  C   UNL     2      -7.796   7.845  66.823  1.00  0.00    -0.103 C  
HETATM   19  H   UNL     2      -8.873   7.503  69.082  1.00  0.00     0.000 HD 
HETATM   20  O   UNL     2      -8.647   6.663  68.702  1.00  0.00    -0.125 OA 
HETATM   21  O   UNL     2      -7.990   9.113  67.224  1.00  0.00    -0.101 OA 
HETATM   22  O   UNL     2      -6.901   7.616  66.009  1.00  0.00    -0.058 OA 
ENDBRANCH  14  17
ENDBRANCH  11  14
ENDBRANCH   2  11
BRANCH   3  23
HETATM   23  C   UNL     3      -9.672  13.694  67.661  1.00  0.00    -0.228 C  
HETATM   24  O   UNL     3      -9.032  12.518  67.222  1.00  0.00    -0.177 OA 
HETATM   25  H   UNL     3      -8.190  12.813  66.896  1.00  0.00     0.000 HD 
BRANCH  23  26
HETATM   26  C   UNL     3      -9.322  14.806  66.571  1.00  0.00    -0.290 C  
HETATM   27  O   UNL     3      -7.918  14.787  66.499  1.00  0.00    -0.269 OA 
HETATM   28  H   UNL     3      -7.709  15.449  65.851  1.00  0.00     0.000 HD 
BRANCH  26  29
HETATM   29  C   UNL     3      -9.679  16.369  66.647  1.00  0.00    -0.257 C  
HETATM   30  C   UNL     3      -8.589  17.396  66.781  1.00  0.00    -0.260 C  
HETATM   31  O   UNL     3     -10.566  16.641  67.712  1.00  0.00    -0.325 OA 
HETATM   32  O   UNL     3      -7.832  17.443  67.892  1.00  0.00    -0.193 OA 
HETATM   33  O   UNL     3      -8.491  18.286  65.951  1.00  0.00    -0.499 OA 
HETATM   34  H   UNL     3     -10.777  17.566  67.756  1.00  0.00     0.000 HD 
ENDBRANCH  26  29
ENDBRANCH  23  26
ENDBRANCH   3  23
BRANCH   3  35
HETATM   35  C   UNL     3     -11.194  11.755  68.790  1.00  0.00    -0.251 C  
HETATM   36  O   UNL     3     -12.264  11.044  68.239  1.00  0.00    -0.769 OA 
HETATM   37  H   UNL     3     -12.336  10.166  68.594  1.00  0.00     0.000 HD 
ENDBRANCH   3  35
TORSDOF 8
ENDMDL
MODEL      231
REMARK 921   NORMALIZED FREE ENERGY PREDICTED BY IDOCK:   -3.96 KCAL/MOL
REMARK 922        TOTAL FREE ENERGY PREDICTED BY IDOCK:   -7.49 KCAL/MOL
REMARK 923 INTER-LIGAND FREE ENERGY PREDICTED BY IDOCK:   -6.20 KCAL/MOL
REMARK 924 INTRA-LIGAND FREE ENERGY PREDICTED BY IDOCK:   -1.29 KCAL/MOL
REMARK 927      BINDING AFFINITY PREDICTED BY RF-SCORE:    0.00 PKD
ROOT
HETATM    1 MN   UNL     1      -8.177  14.685  70.562  1.00  0.00    -0.400 Mn 
HETATM    2  C   UNL     2      -8.950   7.138  72.147  1.00  0.00    -0.129 C  
HETATM    3  C   UNL     3      -8.066  16.092  68.393  1.00  0.00    -0.171 C  
HETATM    4  H   UNL     3      -7.832  17.870  67.650  1.00  0.00     0.000 HD 
HETATM    5  H   UNL     2      -7.609   8.496  72.300  1.00  0.00     0.000 HD 
HETATM    6  O   UNL     2      -7.696   7.606  72.621  1.00  0.00    -0.087 OA 
HETATM    7  O   UNL     3      -7.584  16.986  67.405  1.00  0.00    -0.159 OA 
ENDROOT
BRANCH   2   8
HETATM    8  C   UNL     2      -9.091   5.695  72.668  1.00  0.00    -0.131 C  
HETATM    9  H   UNL     2      -7.980   4.071  72.895  1.00  0.00     0.000 HD 
HETATM   10  O   UNL     2      -7.892   4.961  72.574  1.00  0.00    -0.090 OA 
ENDBRANCH   2   8
BRANCH   2  11
HETATM   11  C   UNL     2      -8.990   7.298  70.576  1.00  0.00    -0.154 C  
HETATM   12  H   UNL     2      -9.278   6.153  68.993  1.00  0.00     0.000 HD 
HETATM   13  O   UNL     2      -9.253   6.058  69.938  1.00  0.00    -0.145 OA 
BRANCH  11  14
HETATM   14  C   UNL     2     -10.027   8.328  70.018  1.00  0.00    -0.188 C  
HETATM   15  H   UNL     2     -11.944   8.461  69.968  1.00  0.00     0.000 HD 
HETATM   16  O   UNL     2     -11.314   7.836  70.306  1.00  0.00    -0.252 OA 
BRANCH  14  17
HETATM   17  C   UNL     2      -9.944   8.602  68.498  1.00  0.00    -0.183 C  
HETATM   18  C   UNL     2     -10.199  10.065  68.182  1.00  0.00    -0.175 C  
HETATM   19  H   UNL     2     -10.852   7.989  66.898  1.00  0.00     0.000 HD 
HETATM   20  O   UNL     2     -10.903   7.821  67.832  1.00  0.00    -0.138 OA 
HETATM   21  O   UNL     2     -10.125  10.499  66.913  1.00  0.00    -0.200 OA 
HETATM   22  O   UNL     2     -10.399  10.888  69.075  1.00  0.00    -0.198 OA 
ENDBRANCH  14  17
ENDBRANCH  11  14
ENDBRANCH   2  11
BRANCH   3  23
HETATM   23  C   UNL     3      -9.601  16.435  68.560  1.00  0.00    -0.229 C  
HETATM   24  O   UNL     3      -9.639  17.837  68.691  1.00  0.00    -0.309 OA 
HETATM   25  H   UNL     3     -10.561  18.042  68.792  1.00  0.00     0.000 HD 
BRANCH  23  26
HETATM   26  C   UNL     3     -10.846  16.057  67.635  1.00  0.00    -0.311 C  
HETATM   27  O   UNL     3     -11.102  14.708  67.938  1.00  0.00    -0.271 OA 
HETATM   28  H   UNL     3     -11.843  14.482  67.387  1.00  0.00     0.000 HD 
BRANCH  26  29
HETATM   29  C   UNL     3     -10.899  16.104  66.031  1.00  0.00    -0.154 C  
HETATM   30  C   UNL     3     -10.952  14.832  65.231  1.00  0.00    -0.374 C  
HETATM   31  O   UNL     3      -9.802  16.820  65.504  1.00  0.00    -0.564 OA 
HETATM   32  O   UNL     3      -9.912  13.979  65.241  1.00  0.00    -0.320 OA 
HETATM   33  O   UNL     3     -11.871  14.647  64.449  1.00  0.00    -0.423 OA 
HETATM   34  H   UNL     3      -9.833  16.848  64.554  1.00  0.00     0.000 HD 
ENDBRANCH  26  29
ENDBRANCH  23  26
ENDBRANCH   3  23
BRANCH   3  35
HETATM   35  C   UNL     3      -7.658  14.634  67.988  1.00  0.00    -0.128 C  
HETATM   36  O   UNL     3      -6.647  14.612  67.024  1.00  0.00    -0.316 OA 
HETATM   37  H   UNL     3      -6.399  13.728  66.779  1.00  0.00     0.000 HD 
ENDBRANCH   3  35
TORSDOF 8
ENDMDL
MODEL      232
REMARK 921   NORMALIZED FREE ENERGY PREDICTED BY IDOCK:   -3.96 KCAL/MOL
REMARK 922        TOTAL FREE ENERGY PREDICTED BY IDOCK:   -7.49 KCAL/MOL
REMARK 923 INTER-LIGAND FREE ENERGY PREDICTED BY IDOCK:   -6.87 KCAL/MOL
REMARK 924 INTRA-LIGAND FREE ENERGY PREDICTED BY IDOCK:   -0.62 KCAL/MOL
REMARK 927      BINDING AFFINITY PREDICTED BY RF-SCORE:    0.00 PKD
ROOT
HETATM    1 MN   UNL     1     -10.404   6.628  65.818  1.00  0.00    -0.418 Mn 
HETATM    2  C   UNL     2     -12.213  14.102  64.852  1.00  0.00    -0.438 C  
HETATM    3  C   UNL     3      -8.724   5.334  67.301  1.00  0.00    -0.107 C  
HETATM    4  H   UNL     3      -7.993   3.591  67.743  1.00  0.00     0.000 HD 
HETATM    5  H   UNL     2     -11.384  12.697  63.852  1.00  0.00     0.000 HD 
HETATM    6  O   UNL     2     -11.693  13.571  63.644  1.00  0.00    -0.376 OA 
HETATM    7  O   UNL     3      -7.659   4.478  67.678  1.00  0.00    -0.076 OA 
ENDROOT
BRANCH   2   8
HETATM    8  C   UNL     2     -12.714  15.520  64.514  1.00  0.00     0.516 C  
HETATM    9  H   UNL     2     -12.172  17.074  63.412  1.00  0.00     0.000 HD 
HETATM   10  O   UNL     2     -11.863  16.200  63.621  1.00  0.00    -0.783 OA 
ENDBRANCH   2   8
BRANCH   2  11
HETATM   11  C   UNL     2     -11.094  14.026  65.964  1.00  0.00    -0.303 C  
HETATM   12  H   UNL     2      -9.363  13.117  66.243  1.00  0.00     0.000 HD 
HETATM   13  O   UNL     2     -10.037  13.163  65.574  1.00  0.00    -0.289 OA 
BRANCH  11  14
HETATM   14  C   UNL     2     -10.443  15.388  66.375  1.00  0.00    -0.303 C  
HETATM   15  H   UNL     2      -8.831  16.335  65.927  1.00  0.00     0.000 HD 
HETATM   16  O   UNL     2      -9.227  15.508  65.678  1.00  0.00    -0.268 OA 
BRANCH  14  17
HETATM   17  C   UNL     2     -10.153  15.560  67.885  1.00  0.00    -0.224 C  
HETATM   18  C   UNL     2     -10.015  17.025  68.261  1.00  0.00    -0.285 C  
HETATM   19  H   UNL     2      -8.781  15.001  69.135  1.00  0.00     0.000 HD 
HETATM   20  O   UNL     2      -8.959  14.895  68.208  1.00  0.00    -0.167 OA 
HETATM   21  O   UNL     2      -9.804  17.370  69.542  1.00  0.00    -0.027 OA 
HETATM   22  O   UNL     2     -10.168  17.918  67.428  1.00  0.00    -0.329 OA 
ENDBRANCH  14  17
ENDBRANCH  11  14
ENDBRANCH   2  11
BRANCH   3  23
HETATM   23  C   UNL     3      -9.891   5.032  68.325  1.00  0.00    -0.150 C  
HETATM   24  O   UNL     3      -9.236   4.555  69.478  1.00  0.00    -0.105 OA 
HETATM   25  H   UNL     3      -9.937   4.373  70.093  1.00  0.00     0.000 HD 
BRANCH  23  26
HETATM   26  C   UNL     3     -11.063   5.976  68.857  1.00  0.00    -0.279 C  
HETATM   27  O   UNL     3     -11.544   6.612  67.699  1.00  0.00    -0.664 OA 
HETATM   28  H   UNL     3     -12.241   7.174  68.015  1.00  0.00     0.000 HD 
BRANCH  26  29
HETATM   29  C   UNL     3     -10.924   7.171  69.920  1.00  0.00    -0.253 C  
HETATM   30  C   UNL     3     -11.698   7.139  71.209  1.00  0.00    -0.306 C  
HETATM   31  O   UNL     3     -11.244   8.416  69.335  1.00  0.00    -0.444 OA 
HETATM   32  O   UNL     3     -13.041   7.211  71.198  1.00  0.00    -0.361 OA 
HETATM   33  O   UNL     3     -11.103   7.206  72.273  1.00  0.00    -0.236 OA 
HETATM   34  H   UNL     3     -11.162   9.123  69.965  1.00  0.00     0.000 HD 
ENDBRANCH  26  29
ENDBRANCH  23  26
ENDBRANCH   3  23
BRANCH   3  35
HETATM   35  C   UNL     3      -8.173   6.798  67.194  1.00  0.00    -0.121 C  
HETATM   36  O   UNL     3      -7.061   7.010  68.012  1.00  0.00    -0.080 OA 
HETATM   37  H   UNL     3      -6.727   7.897  67.947  1.00  0.00     0.000 HD 
ENDBRANCH   3  35
TORSDOF 8
ENDMDL
MODEL      233
REMARK 921   NORMALIZED FREE ENERGY PREDICTED BY IDOCK:   -3.94 KCAL/MOL
REMARK 922        TOTAL FREE ENERGY PREDICTED BY IDOCK:   -7.46 KCAL/MOL
REMARK 923 INTER-LIGAND FREE ENERGY PREDICTED BY IDOCK:   -6.58 KCAL/MOL
REMARK 924 INTRA-LIGAND FREE ENERGY PREDICTED BY IDOCK:   -0.88 KCAL/MOL
REMARK 927      BINDING AFFINITY PREDICTED BY RF-SCORE:    0.00 PKD
ROOT
HETATM    1 MN   UNL     1     -10.015  12.999  69.224  1.00  0.00    -0.355 Mn 
HETATM    2  C   UNL     2      -8.289   5.482  69.982  1.00  0.00    -0.116 C  
HETATM    3  C   UNL     3      -9.085  14.951  67.803  1.00  0.00    -0.185 C  
HETATM    4  H   UNL     3      -9.210  16.849  67.415  1.00  0.00     0.000 HD 
HETATM    5  H   UNL     2      -8.184   7.080  71.030  1.00  0.00     0.000 HD 
HETATM    6  O   UNL     2      -8.069   6.154  71.212  1.00  0.00    -0.114 OA 
HETATM    7  O   UNL     3      -8.514  16.204  67.466  1.00  0.00    -0.158 OA 
ENDROOT
BRANCH   2   8
HETATM    8  C   UNL     2      -8.103   3.980  70.278  1.00  0.00    -0.054 C  
HETATM    9  H   UNL     2      -9.053   2.268  69.979  1.00  0.00     0.000 HD 
HETATM   10  O   UNL     2      -9.168   3.194  69.797  1.00  0.00    -0.122 OA 
ENDBRANCH   2   8
BRANCH   2  11
HETATM   11  C   UNL     2      -7.315   6.083  68.893  1.00  0.00    -0.085 C  
HETATM   12  H   UNL     2      -5.433   5.873  68.334  1.00  0.00     0.000 HD 
HETATM   13  O   UNL     2      -6.019   5.512  68.989  1.00  0.00    -0.021 OA 
BRANCH  11  14
HETATM   14  C   UNL     2      -7.773   5.932  67.405  1.00  0.00    -0.097 C  
HETATM   15  H   UNL     2      -7.583   6.964  65.794  1.00  0.00     0.000 HD 
HETATM   16  O   UNL     2      -7.305   7.055  66.698  1.00  0.00    -0.077 OA 
BRANCH  14  17
HETATM   17  C   UNL     2      -9.300   5.824  67.185  1.00  0.00    -0.115 C  
HETATM   18  C   UNL     2      -9.628   4.958  65.981  1.00  0.00    -0.176 C  
HETATM   19  H   UNL     2     -10.769   7.042  66.842  1.00  0.00     0.000 HD 
HETATM   20  O   UNL     2      -9.832   7.107  66.978  1.00  0.00    -0.171 OA 
HETATM   21  O   UNL     2     -10.910   4.716  65.660  1.00  0.00    -0.292 OA 
HETATM   22  O   UNL     2      -8.743   4.405  65.329  1.00  0.00    -0.120 OA 
ENDBRANCH  14  17
ENDBRANCH  11  14
ENDBRANCH   2  11
BRANCH   3  23
HETATM   23  C   UNL     3     -10.256  14.728  66.765  1.00  0.00    -0.266 C  
HETATM   24  O   UNL     3     -11.182  15.751  67.049  1.00  0.00    -0.229 OA 
HETATM   25  H   UNL     3     -11.886  15.617  66.425  1.00  0.00     0.000 HD 
BRANCH  23  26
HETATM   26  C   UNL     3     -10.213  14.620  65.173  1.00  0.00    -0.382 C  
HETATM   27  O   UNL     3     -10.734  15.848  64.730  1.00  0.00    -0.642 OA 
HETATM   28  H   UNL     3     -10.709  15.784  63.782  1.00  0.00     0.000 HD 
BRANCH  26  29
HETATM   29  C   UNL     3     -10.970  13.534  64.264  1.00  0.00    -0.336 C  
HETATM   30  C   UNL     3     -11.756  12.421  64.900  1.00  0.00    -0.365 C  
HETATM   31  O   UNL     3     -10.074  12.889  63.384  1.00  0.00    -0.601 OA 
HETATM   32  O   UNL     3     -11.132  11.479  65.629  1.00  0.00    -0.277 OA 
HETATM   33  O   UNL     3     -12.937  12.282  64.627  1.00  0.00    -0.741 OA 
HETATM   34  H   UNL     3     -10.522  12.246  62.846  1.00  0.00     0.000 HD 
ENDBRANCH  26  29
ENDBRANCH  23  26
ENDBRANCH   3  23
BRANCH   3  35
HETATM   35  C   UNL     3      -7.937  13.886  67.887  1.00  0.00    -0.160 C  
HETATM   36  O   UNL     3      -7.718  13.440  69.192  1.00  0.00    -0.321 OA 
HETATM   37  H   UNL     3      -7.022  12.795  69.243  1.00  0.00     0.000 HD 
ENDBRANCH   3  35
TORSDOF 8
ENDMDL
MODEL      234
REMARK 921   NORMALIZED FREE ENERGY PREDICTED BY IDOCK:   -3.93 KCAL/MOL
REMARK 922        TOTAL FREE ENERGY PREDICTED BY IDOCK:   -7.44 KCAL/MOL
REMARK 923 INTER-LIGAND FREE ENERGY PREDICTED BY IDOCK:   -5.69 KCAL/MOL
REMARK 924 INTRA-LIGAND FREE ENERGY PREDICTED BY IDOCK:   -1.75 KCAL/MOL
REMARK 927      BINDING AFFINITY PREDICTED BY RF-SCORE:    0.00 PKD
ROOT
HETATM    1 MN   UNL     1      -9.685  14.722  68.306  1.00  0.00    -0.185 Mn 
HETATM    2  C   UNL     2     -10.465   7.153  66.836  1.00  0.00    -0.294 C  
HETATM    3  C   UNL     3      -7.680  16.344  68.508  1.00  0.00    -0.195 C  
HETATM    4  H   UNL     3      -7.127  18.164  68.898  1.00  0.00     0.000 HD 
HETATM    5  H   UNL     2     -10.722   8.352  68.305  1.00  0.00     0.000 HD 
HETATM    6  O   UNL     2     -10.947   7.444  68.138  1.00  0.00    -0.087 OA 
HETATM    7  O   UNL     3      -6.779  17.293  69.053  1.00  0.00    -0.216 OA 
ENDROOT
BRANCH   2   8
HETATM    8  C   UNL     2     -10.831   5.680  66.566  1.00  0.00    -0.165 C  
HETATM    9  H   UNL     2     -10.128   3.869  66.953  1.00  0.00     0.000 HD 
HETATM   10  O   UNL     2      -9.902   4.777  67.120  1.00  0.00    -0.170 OA 
ENDBRANCH   2   8
BRANCH   2  11
HETATM   11  C   UNL     2      -8.923   7.489  66.778  1.00  0.00    -0.144 C  
HETATM   12  H   UNL     2      -7.524   7.721  65.404  1.00  0.00     0.000 HD 
HETATM   13  O   UNL     2      -8.451   7.519  65.440  1.00  0.00    -0.140 OA 
BRANCH  11  14
HETATM   14  C   UNL     2      -8.490   8.836  67.445  1.00  0.00    -0.116 C  
HETATM   15  H   UNL     2      -7.552  10.415  66.878  1.00  0.00     0.000 HD 
HETATM   16  O   UNL     2      -7.815   9.597  66.473  1.00  0.00    -0.106 OA 
BRANCH  14  17
HETATM   17  C   UNL     2      -7.566   8.702  68.679  1.00  0.00    -0.097 C  
HETATM   18  C   UNL     2      -8.176   9.362  69.904  1.00  0.00    -0.149 C  
HETATM   19  H   UNL     2      -5.764   9.230  69.162  1.00  0.00     0.000 HD 
HETATM   20  O   UNL     2      -6.331   9.311  68.404  1.00  0.00    -0.052 OA 
HETATM   21  O   UNL     2      -7.533   9.309  71.083  1.00  0.00    -0.243 OA 
HETATM   22  O   UNL     2      -9.289   9.885  69.863  1.00  0.00    -0.220 OA 
ENDBRANCH  14  17
ENDBRANCH  11  14
ENDBRANCH   2  11
BRANCH   3  23
HETATM   23  C   UNL     3      -7.931  16.810  67.018  1.00  0.00    -0.197 C  
HETATM   24  O   UNL     3      -9.132  16.174  66.645  1.00  0.00    -0.211 OA 
HETATM   25  H   UNL     3      -9.282  16.454  65.749  1.00  0.00     0.000 HD 
BRANCH  23  26
HETATM   26  C   UNL     3      -8.014  18.279  66.399  1.00  0.00    -0.261 C  
HETATM   27  O   UNL     3      -6.707  18.782  66.531  1.00  0.00    -0.189 OA 
HETATM   28  H   UNL     3      -6.756  19.656  66.163  1.00  0.00     0.000 HD 
BRANCH  26  29
HETATM   29  C   UNL     3      -8.940  19.485  66.912  1.00  0.00    -0.325 C  
HETATM   30  C   UNL     3     -10.077  19.224  67.860  1.00  0.00    -0.395 C  
HETATM   31  O   UNL     3      -9.522  20.181  65.830  1.00  0.00    -0.526 OA 
HETATM   32  O   UNL     3     -11.133  18.487  67.470  1.00  0.00    -0.284 OA 
HETATM   33  O   UNL     3     -10.119  19.809  68.931  1.00  0.00    -0.455 OA 
HETATM   34  H   UNL     3     -10.070  20.894  66.134  1.00  0.00     0.000 HD 
ENDBRANCH  26  29
ENDBRANCH  23  26
ENDBRANCH   3  23
BRANCH   3  35
HETATM   35  C   UNL     3      -7.106  14.908  68.764  1.00  0.00    -0.115 C  
HETATM   36  O   UNL     3      -7.177  14.096  67.630  1.00  0.00    -0.155 OA 
HETATM   37  H   UNL     3      -6.829  13.225  67.785  1.00  0.00     0.000 HD 
ENDBRANCH   3  35
TORSDOF 8
ENDMDL
MODEL      235
REMARK 921   NORMALIZED FREE ENERGY PREDICTED BY IDOCK:   -3.93 KCAL/MOL
REMARK 922        TOTAL FREE ENERGY PREDICTED BY IDOCK:   -7.44 KCAL/MOL
REMARK 923 INTER-LIGAND FREE ENERGY PREDICTED BY IDOCK:   -6.46 KCAL/MOL
REMARK 924 INTRA-LIGAND FREE ENERGY PREDICTED BY IDOCK:   -0.97 KCAL/MOL
REMARK 927      BINDING AFFINITY PREDICTED BY RF-SCORE:    0.00 PKD
ROOT
HETATM    1 MN   UNL     1     -12.611  12.160  67.972  1.00  0.00    -0.292 Mn 
HETATM    2  C   UNL     2      -9.289   5.237  69.016  1.00  0.00    -0.130 C  
HETATM    3  C   UNL     3     -12.309  14.506  69.021  1.00  0.00    -0.086 C  
HETATM    4  H   UNL     3     -12.954  16.337  69.058  1.00  0.00     0.000 HD 
HETATM    5  H   UNL     2     -10.991   6.059  69.314  1.00  0.00     0.000 HD 
HETATM    6  O   UNL     2     -10.666   5.167  69.349  1.00  0.00    -0.166 OA 
HETATM    7  O   UNL     3     -12.610  15.717  69.692  1.00  0.00    -0.154 OA 
ENDROOT
BRANCH   2   8
HETATM    8  C   UNL     2      -8.762   3.789  69.073  1.00  0.00    -0.091 C  
HETATM    9  H   UNL     2      -7.397   2.731  70.043  1.00  0.00     0.000 HD 
HETATM   10  O   UNL     2      -7.721   3.623  70.007  1.00  0.00    -0.047 OA 
ENDBRANCH   2   8
BRANCH   2  11
HETATM   11  C   UNL     2      -8.581   6.254  69.996  1.00  0.00    -0.134 C  
HETATM   12  H   UNL     2      -7.612   7.970  69.878  1.00  0.00     0.000 HD 
HETATM   13  O   UNL     2      -8.038   7.358  69.289  1.00  0.00    -0.119 OA 
BRANCH  11  14
HETATM   14  C   UNL     2      -9.473   6.837  71.140  1.00  0.00    -0.163 C  
HETATM   15  H   UNL     2      -9.887   8.593  71.804  1.00  0.00     0.000 HD 
HETATM   16  O   UNL     2      -9.346   8.238  71.109  1.00  0.00    -0.150 OA 
BRANCH  14  17
HETATM   17  C   UNL     2      -9.127   6.352  72.568  1.00  0.00    -0.136 C  
HETATM   18  C   UNL     2     -10.037   5.218  73.006  1.00  0.00    -0.176 C  
HETATM   19  H   UNL     2      -9.058   7.124  74.346  1.00  0.00     0.000 HD 
HETATM   20  O   UNL     2      -9.270   7.421  73.469  1.00  0.00    -0.182 OA 
HETATM   21  O   UNL     2      -9.856   4.640  74.205  1.00  0.00    -0.138 OA 
HETATM   22  O   UNL     2     -10.896   4.758  72.254  1.00  0.00    -0.165 OA 
ENDBRANCH  14  17
ENDBRANCH  11  14
ENDBRANCH   2  11
BRANCH   3  23
HETATM   23  C   UNL     3     -11.405  14.918  67.791  1.00  0.00    -0.329 C  
HETATM   24  O   UNL     3     -10.175  15.295  68.365  1.00  0.00    -0.218 OA 
HETATM   25  H   UNL     3      -9.632  15.543  67.626  1.00  0.00     0.000 HD 
BRANCH  23  26
HETATM   26  C   UNL     3     -11.030  14.103  66.470  1.00  0.00    -0.309 C  
HETATM   27  O   UNL     3      -9.631  13.979  66.528  1.00  0.00    -0.277 OA 
HETATM   28  H   UNL     3      -9.408  13.495  65.742  1.00  0.00     0.000 HD 
BRANCH  26  29
HETATM   29  C   UNL     3     -11.312  14.551  64.954  1.00  0.00    -0.394 C  
HETATM   30  C   UNL     3     -11.663  13.528  63.910  1.00  0.00    -0.368 C  
HETATM   31  O   UNL     3     -10.214  15.257  64.417  1.00  0.00    -0.386 OA 
HETATM   32  O   UNL     3     -10.766  12.596  63.542  1.00  0.00    -0.417 OA 
HETATM   33  O   UNL     3     -12.705  13.638  63.282  1.00  0.00    -0.765 OA 
HETATM   34  H   UNL     3     -10.381  15.522  63.520  1.00  0.00     0.000 HD 
ENDBRANCH  26  29
ENDBRANCH  23  26
ENDBRANCH   3  23
BRANCH   3  35
HETATM   35  C   UNL     3     -11.742  13.484  70.066  1.00  0.00    -0.241 C  
HETATM   36  O   UNL     3     -10.681  12.733  69.556  1.00  0.00    -0.431 OA 
HETATM   37  H   UNL     3     -10.337  12.114  70.189  1.00  0.00     0.000 HD 
ENDBRANCH   3  35
TORSDOF 8
ENDMDL
MODEL      236
REMARK 921   NORMALIZED FREE ENERGY PREDICTED BY IDOCK:   -3.92 KCAL/MOL
REMARK 922        TOTAL FREE ENERGY PREDICTED BY IDOCK:   -7.43 KCAL/MOL
REMARK 923 INTER-LIGAND FREE ENERGY PREDICTED BY IDOCK:   -5.95 KCAL/MOL
REMARK 924 INTRA-LIGAND FREE ENERGY PREDICTED BY IDOCK:   -1.48 KCAL/MOL
REMARK 927      BINDING AFFINITY PREDICTED BY RF-SCORE:    0.00 PKD
ROOT
HETATM    1 MN   UNL     1      -8.208  14.509  70.539  1.00  0.00    -0.381 Mn 
HETATM    2  C   UNL     2      -7.734   6.823  71.412  1.00  0.00    -0.093 C  
HETATM    3  C   UNL     3      -8.574  16.098  68.530  1.00  0.00    -0.202 C  
HETATM    4  H   UNL     3      -8.683  17.949  67.954  1.00  0.00     0.000 HD 
HETATM    5  H   UNL     2      -6.582   8.345  71.547  1.00  0.00     0.000 HD 
HETATM    6  O   UNL     2      -6.505   7.428  71.781  1.00  0.00    -0.043 OA 
HETATM    7  O   UNL     3      -8.351  17.135  67.590  1.00  0.00    -0.189 OA 
ENDROOT
BRANCH   2   8
HETATM    8  C   UNL     2      -7.608   5.335  71.793  1.00  0.00    -0.107 C  
HETATM    9  H   UNL     2      -6.208   3.942  71.944  1.00  0.00     0.000 HD 
HETATM   10  O   UNL     2      -6.285   4.859  71.708  1.00  0.00    -0.026 OA 
ENDBRANCH   2   8
BRANCH   2  11
HETATM   11  C   UNL     2      -8.001   7.109  69.882  1.00  0.00    -0.122 C  
HETATM   12  H   UNL     2      -8.423   6.081  68.249  1.00  0.00     0.000 HD 
HETATM   13  O   UNL     2      -8.262   5.909  69.170  1.00  0.00    -0.104 OA 
BRANCH  11  14
HETATM   14  C   UNL     2      -9.174   8.094  69.563  1.00  0.00    -0.158 C  
HETATM   15  H   UNL     2      -9.433   9.592  68.386  1.00  0.00     0.000 HD 
HETATM   16  O   UNL     2      -8.721   8.994  68.580  1.00  0.00    -0.132 OA 
BRANCH  14  17
HETATM   17  C   UNL     2      -9.701   8.915  70.763  1.00  0.00    -0.227 C  
HETATM   18  C   UNL     2     -10.794   8.170  71.510  1.00  0.00    -0.238 C  
HETATM   19  H   UNL     2     -10.542  10.640  71.037  1.00  0.00     0.000 HD 
HETATM   20  O   UNL     2     -10.219  10.136  70.300  1.00  0.00    -0.247 OA 
HETATM   21  O   UNL     2     -11.342   8.713  72.610  1.00  0.00    -0.286 OA 
HETATM   22  O   UNL     2     -11.142   7.039  71.174  1.00  0.00    -0.245 OA 
ENDBRANCH  14  17
ENDBRANCH  11  14
ENDBRANCH   2  11
BRANCH   3  23
HETATM   23  C   UNL     3     -10.106  16.195  68.910  1.00  0.00    -0.238 C  
HETATM   24  O   UNL     3     -10.758  16.460  67.690  1.00  0.00    -0.322 OA 
HETATM   25  H   UNL     3     -11.678  16.518  67.919  1.00  0.00     0.000 HD 
BRANCH  23  26
HETATM   26  C   UNL     3     -11.042  15.156  69.680  1.00  0.00    -0.270 C  
HETATM   27  O   UNL     3     -10.589  15.206  71.011  1.00  0.00    -0.515 OA 
HETATM   28  H   UNL     3     -11.146  14.587  71.469  1.00  0.00     0.000 HD 
BRANCH  26  29
HETATM   29  C   UNL     3     -11.180  13.585  69.382  1.00  0.00    -0.187 C  
HETATM   30  C   UNL     3     -11.304  13.084  67.970  1.00  0.00    -0.290 C  
HETATM   31  O   UNL     3     -12.285  13.030  70.063  1.00  0.00    -0.299 OA 
HETATM   32  O   UNL     3     -12.386  13.390  67.232  1.00  0.00    -0.276 OA 
HETATM   33  O   UNL     3     -10.499  12.271  67.543  1.00  0.00    -0.210 OA 
HETATM   34  H   UNL     3     -12.367  12.100  69.886  1.00  0.00     0.000 HD 
ENDBRANCH  26  29
ENDBRANCH  23  26
ENDBRANCH   3  23
BRANCH   3  35
HETATM   35  C   UNL     3      -8.027  14.757  67.931  1.00  0.00    -0.140 C  
HETATM   36  O   UNL     3      -8.402  14.577  66.597  1.00  0.00    -0.407 OA 
HETATM   37  H   UNL     3      -8.071  13.764  66.234  1.00  0.00     0.000 HD 
ENDBRANCH   3  35
TORSDOF 8
ENDMDL
MODEL      237
REMARK 921   NORMALIZED FREE ENERGY PREDICTED BY IDOCK:   -3.90 KCAL/MOL
REMARK 922        TOTAL FREE ENERGY PREDICTED BY IDOCK:   -7.39 KCAL/MOL
REMARK 923 INTER-LIGAND FREE ENERGY PREDICTED BY IDOCK:   -6.31 KCAL/MOL
REMARK 924 INTRA-LIGAND FREE ENERGY PREDICTED BY IDOCK:   -1.08 KCAL/MOL
REMARK 927      BINDING AFFINITY PREDICTED BY RF-SCORE:    0.00 PKD
ROOT
HETATM    1 MN   UNL     1      -9.597  11.552  66.691  1.00  0.00    -0.176 Mn 
HETATM    2  C   UNL     2      -6.663   6.418  71.701  1.00  0.00    -0.063 C  
HETATM    3  C   UNL     3     -11.362  13.439  66.835  1.00  0.00    -0.323 C  
HETATM    4  H   UNL     3     -12.336  14.797  65.848  1.00  0.00     0.000 HD 
HETATM    5  H   UNL     2      -7.775   6.413  70.144  1.00  0.00     0.000 HD 
HETATM    6  O   UNL     2      -7.343   5.740  70.657  1.00  0.00    -0.079 OA 
HETATM    7  O   UNL     3     -12.525  14.203  66.565  1.00  0.00    -0.447 OA 
ENDROOT
BRANCH   2   8
HETATM    8  C   UNL     2      -5.962   5.326  72.533  1.00  0.00    -0.026 C  
HETATM    9  H   UNL     2      -6.168   4.414  74.279  1.00  0.00     0.000 HD 
HETATM   10  O   UNL     2      -6.599   5.087  73.766  1.00  0.00    -0.064 OA 
ENDBRANCH   2   8
BRANCH   2  11
HETATM   11  C   UNL     2      -7.703   7.308  72.490  1.00  0.00    -0.088 C  
HETATM   12  H   UNL     2      -7.981   9.218  72.906  1.00  0.00     0.000 HD 
HETATM   13  O   UNL     2      -7.355   8.683  72.432  1.00  0.00    -0.263 OA 
BRANCH  11  14
HETATM   14  C   UNL     2      -9.193   7.193  72.028  1.00  0.00    -0.134 C  
HETATM   15  H   UNL     2     -10.513   8.400  71.322  1.00  0.00     0.000 HD 
HETATM   16  O   UNL     2      -9.608   8.469  71.603  1.00  0.00    -0.198 OA 
BRANCH  14  17
HETATM   17  C   UNL     2     -10.189   6.694  73.101  1.00  0.00    -0.219 C  
HETATM   18  C   UNL     2     -10.802   5.360  72.714  1.00  0.00    -0.263 C  
HETATM   19  H   UNL     2     -11.828   7.332  73.915  1.00  0.00     0.000 HD 
HETATM   20  O   UNL     2     -11.217   7.638  73.256  1.00  0.00    -0.358 OA 
HETATM   21  O   UNL     2     -11.661   4.751  73.548  1.00  0.00    -0.281 OA 
HETATM   22  O   UNL     2     -10.474   4.780  71.679  1.00  0.00    -0.178 OA 
ENDBRANCH  14  17
ENDBRANCH  11  14
ENDBRANCH   2  11
BRANCH   3  23
HETATM   23  C   UNL     3     -10.194  14.492  67.003  1.00  0.00    -0.262 C  
HETATM   24  O   UNL     3      -9.157  13.774  67.631  1.00  0.00    -0.179 OA 
HETATM   25  H   UNL     3      -8.456  14.407  67.732  1.00  0.00     0.000 HD 
BRANCH  23  26
HETATM   26  C   UNL     3      -9.479  15.417  65.917  1.00  0.00    -0.334 C  
HETATM   27  O   UNL     3      -8.135  15.455  66.328  1.00  0.00    -0.305 OA 
HETATM   28  H   UNL     3      -7.709  16.005  65.682  1.00  0.00     0.000 HD 
BRANCH  26  29
HETATM   29  C   UNL     3      -9.821  16.951  65.588  1.00  0.00    -0.036 C  
HETATM   30  C   UNL     3      -9.615  18.018  66.627  1.00  0.00    -0.315 C  
HETATM   31  O   UNL     3     -11.163  17.099  65.176  1.00  0.00    -0.318 OA 
HETATM   32  O   UNL     3     -10.351  18.022  67.753  1.00  0.00    -0.358 OA 
HETATM   33  O   UNL     3      -8.891  18.970  66.381  1.00  0.00    -0.318 OA 
HETATM   34  H   UNL     3     -11.365  18.007  64.982  1.00  0.00     0.000 HD 
ENDBRANCH  26  29
ENDBRANCH  23  26
ENDBRANCH   3  23
BRANCH   3  35
HETATM   35  C   UNL     3     -11.673  12.460  68.019  1.00  0.00    -0.356 C  
HETATM   36  O   UNL     3     -11.095  12.877  69.221  1.00  0.00    -0.376 OA 
HETATM   37  H   UNL     3     -11.283  12.283  69.939  1.00  0.00     0.000 HD 
ENDBRANCH   3  35
TORSDOF 8
ENDMDL
MODEL      238
REMARK 921   NORMALIZED FREE ENERGY PREDICTED BY IDOCK:   -3.89 KCAL/MOL
REMARK 922        TOTAL FREE ENERGY PREDICTED BY IDOCK:   -7.39 KCAL/MOL
REMARK 923 INTER-LIGAND FREE ENERGY PREDICTED BY IDOCK:   -7.35 KCAL/MOL
REMARK 924 INTRA-LIGAND FREE ENERGY PREDICTED BY IDOCK:   -0.04 KCAL/MOL
REMARK 927      BINDING AFFINITY PREDICTED BY RF-SCORE:    0.00 PKD
ROOT
HETATM    1 MN   UNL     1      -8.578  14.007  68.284  1.00  0.00    -0.132 Mn 
HETATM    2  C   UNL     2      -9.824   7.921  72.917  1.00  0.00    -0.282 C  
HETATM    3  C   UNL     3      -9.768  14.997  66.211  1.00  0.00    -0.291 C  
HETATM    4  H   UNL     3      -9.719  16.374  64.844  1.00  0.00     0.000 HD 
HETATM    5  H   UNL     2      -8.540   8.478  71.612  1.00  0.00     0.000 HD 
HETATM    6  O   UNL     2      -8.584   7.770  72.244  1.00  0.00    -0.116 OA 
HETATM    7  O   UNL     3      -9.982  15.462  64.889  1.00  0.00    -0.274 OA 
ENDROOT
BRANCH   2   8
HETATM    8  C   UNL     2      -9.896   6.772  73.943  1.00  0.00    -0.289 C  
HETATM    9  H   UNL     2     -10.874   5.072  74.218  1.00  0.00     0.000 HD 
HETATM   10  O   UNL     2     -10.830   5.780  73.586  1.00  0.00    -0.270 OA 
ENDBRANCH   2   8
BRANCH   2  11
HETATM   11  C   UNL     2     -10.984   7.945  71.845  1.00  0.00    -0.256 C  
HETATM   12  H   UNL     2     -12.003   9.288  70.817  1.00  0.00     0.000 HD 
HETATM   13  O   UNL     2     -11.306   9.273  71.462  1.00  0.00    -0.334 OA 
BRANCH  11  14
HETATM   14  C   UNL     2     -10.718   7.141  70.530  1.00  0.00    -0.238 C  
HETATM   15  H   UNL     2      -9.514   5.744  69.989  1.00  0.00     0.000 HD 
HETATM   16  O   UNL     2      -9.676   6.232  70.788  1.00  0.00    -0.177 OA 
BRANCH  14  17
HETATM   17  C   UNL     2     -10.325   7.990  69.297  1.00  0.00    -0.220 C  
HETATM   18  C   UNL     2     -10.743   7.316  68.002  1.00  0.00    -0.146 C  
HETATM   19  H   UNL     2      -8.690   8.693  68.528  1.00  0.00     0.000 HD 
HETATM   20  O   UNL     2      -8.932   8.173  69.284  1.00  0.00    -0.146 OA 
HETATM   21  O   UNL     2     -10.520   7.928  66.827  1.00  0.00    -0.327 OA 
HETATM   22  O   UNL     2     -11.353   6.247  68.003  1.00  0.00    -0.260 OA 
ENDBRANCH  14  17
ENDBRANCH  11  14
ENDBRANCH   2  11
BRANCH   3  23
HETATM   23  C   UNL     3     -10.489  16.046  67.149  1.00  0.00    -0.308 C  
HETATM   24  O   UNL     3     -10.942  15.287  68.247  1.00  0.00    -0.255 OA 
HETATM   25  H   UNL     3     -11.375  15.918  68.810  1.00  0.00     0.000 HD 
BRANCH  23  26
HETATM   26  C   UNL     3      -9.948  17.415  67.767  1.00  0.00    -0.301 C  
HETATM   27  O   UNL     3     -10.887  18.375  67.348  1.00  0.00    -0.403 OA 
HETATM   28  H   UNL     3     -10.565  19.190  67.716  1.00  0.00     0.000 HD 
BRANCH  26  29
HETATM   29  C   UNL     3      -8.532  18.109  67.469  1.00  0.00    -0.248 C  
HETATM   30  C   UNL     3      -8.293  19.545  67.843  1.00  0.00    -0.315 C  
HETATM   31  O   UNL     3      -8.202  18.030  66.099  1.00  0.00    -0.432 OA 
HETATM   32  O   UNL     3      -8.981  20.530  67.238  1.00  0.00    -0.356 OA 
HETATM   33  O   UNL     3      -7.364  19.831  68.582  1.00  0.00    -0.321 OA 
HETATM   34  H   UNL     3      -7.364  18.442  65.923  1.00  0.00     0.000 HD 
ENDBRANCH  26  29
ENDBRANCH  23  26
ENDBRANCH   3  23
BRANCH   3  35
HETATM   35  C   UNL     3     -10.202  13.492  66.286  1.00  0.00    -0.299 C  
HETATM   36  O   UNL     3      -9.112  12.630  66.433  1.00  0.00    -0.352 OA 
HETATM   37  H   UNL     3      -9.375  11.718  66.479  1.00  0.00     0.000 HD 
ENDBRANCH   3  35
TORSDOF 8
ENDMDL
MODEL      239
REMARK 921   NORMALIZED FREE ENERGY PREDICTED BY IDOCK:   -3.88 KCAL/MOL
REMARK 922        TOTAL FREE ENERGY PREDICTED BY IDOCK:   -7.37 KCAL/MOL
REMARK 923 INTER-LIGAND FREE ENERGY PREDICTED BY IDOCK:   -6.29 KCAL/MOL
REMARK 924 INTRA-LIGAND FREE ENERGY PREDICTED BY IDOCK:   -1.08 KCAL/MOL
REMARK 927      BINDING AFFINITY PREDICTED BY RF-SCORE:    0.00 PKD
ROOT
HETATM    1 MN   UNL     1      -8.812  13.278  67.719  1.00  0.00    -0.145 Mn 
HETATM    2  C   UNL     2      -6.774   6.513  70.902  1.00  0.00    -0.054 C  
HETATM    3  C   UNL     3     -10.751  14.070  66.199  1.00  0.00    -0.289 C  
HETATM    4  H   UNL     3     -11.506  15.564  65.217  1.00  0.00     0.000 HD 
HETATM    5  H   UNL     2      -6.123   7.707  69.557  1.00  0.00     0.000 HD 
HETATM    6  O   UNL     2      -5.770   6.943  69.997  1.00  0.00    -0.022 OA 
HETATM    7  O   UNL     3     -11.437  14.625  65.090  1.00  0.00    -0.349 OA 
ENDROOT
BRANCH   2   8
HETATM    8  C   UNL     2      -6.201   5.273  71.617  1.00  0.00    -0.030 C  
HETATM    9  H   UNL     2      -5.924   4.605  73.461  1.00  0.00     0.000 HD 
HETATM   10  O   UNL     2      -6.277   5.369  73.021  1.00  0.00    -0.044 OA 
ENDBRANCH   2   8
BRANCH   2  11
HETATM   11  C   UNL     2      -8.113   6.273  70.099  1.00  0.00    -0.116 C  
HETATM   12  H   UNL     2      -8.708   5.267  68.508  1.00  0.00     0.000 HD 
HETATM   13  O   UNL     2      -7.902   5.412  68.991  1.00  0.00    -0.087 OA 
BRANCH  11  14
HETATM   14  C   UNL     2      -9.307   5.681  70.918  1.00  0.00    -0.160 C  
HETATM   15  H   UNL     2     -11.173   5.354  70.591  1.00  0.00     0.000 HD 
HETATM   16  O   UNL     2     -10.448   5.714  70.094  1.00  0.00    -0.246 OA 
BRANCH  14  17
HETATM   17  C   UNL     2      -9.642   6.418  72.236  1.00  0.00    -0.150 C  
HETATM   18  C   UNL     2     -10.301   5.488  73.240  1.00  0.00    -0.209 C  
HETATM   19  H   UNL     2     -10.722   7.936  72.773  1.00  0.00     0.000 HD 
HETATM   20  O   UNL     2     -10.516   7.483  71.964  1.00  0.00    -0.201 OA 
HETATM   21  O   UNL     2     -10.626   5.944  74.462  1.00  0.00    -0.189 OA 
HETATM   22  O   UNL     2     -10.480   4.297  72.990  1.00  0.00    -0.164 OA 
ENDBRANCH  14  17
ENDBRANCH  11  14
ENDBRANCH   2  11
BRANCH   3  23
HETATM   23  C   UNL     3     -11.507  14.612  67.477  1.00  0.00    -0.361 C  
HETATM   24  O   UNL     3     -12.513  13.657  67.725  1.00  0.00    -0.323 OA 
HETATM   25  H   UNL     3     -12.967  13.983  68.493  1.00  0.00     0.000 HD 
BRANCH  23  26
HETATM   26  C   UNL     3     -10.939  15.019  68.912  1.00  0.00    -0.252 C  
HETATM   27  O   UNL     3     -10.550  13.797  69.488  1.00  0.00    -0.447 OA 
HETATM   28  H   UNL     3     -10.212  14.039  70.342  1.00  0.00     0.000 HD 
BRANCH  26  29
HETATM   29  C   UNL     3     -11.744  15.757  70.089  1.00  0.00    -0.356 C  
HETATM   30  C   UNL     3     -11.800  15.159  71.467  1.00  0.00    -0.377 C  
HETATM   31  O   UNL     3     -13.093  15.970  69.730  1.00  0.00    -0.488 OA 
HETATM   32  O   UNL     3     -12.428  13.988  71.675  1.00  0.00    -0.331 OA 
HETATM   33  O   UNL     3     -11.411  15.809  72.424  1.00  0.00    -0.410 OA 
HETATM   34  H   UNL     3     -13.570  16.406  70.427  1.00  0.00     0.000 HD 
ENDBRANCH  26  29
ENDBRANCH  23  26
ENDBRANCH   3  23
BRANCH   3  35
HETATM   35  C   UNL     3     -10.636  12.520  65.989  1.00  0.00    -0.263 C  
HETATM   36  O   UNL     3      -9.360  12.035  66.284  1.00  0.00    -0.224 OA 
HETATM   37  H   UNL     3      -9.290  11.096  66.157  1.00  0.00     0.000 HD 
ENDBRANCH   3  35
TORSDOF 8
ENDMDL
MODEL      240
REMARK 921   NORMALIZED FREE ENERGY PREDICTED BY IDOCK:   -3.88 KCAL/MOL
REMARK 922        TOTAL FREE ENERGY PREDICTED BY IDOCK:   -7.37 KCAL/MOL
REMARK 923 INTER-LIGAND FREE ENERGY PREDICTED BY IDOCK:   -6.46 KCAL/MOL
REMARK 924 INTRA-LIGAND FREE ENERGY PREDICTED BY IDOCK:   -0.91 KCAL/MOL
REMARK 927      BINDING AFFINITY PREDICTED BY RF-SCORE:    0.00 PKD
ROOT
HETATM    1 MN   UNL     1      -8.919  13.896  69.391  1.00  0.00    -0.337 Mn 
HETATM    2  C   UNL     2      -6.546   6.780  71.338  1.00  0.00    -0.053 C  
HETATM    3  C   UNL     3     -10.484  14.864  67.571  1.00  0.00    -0.254 C  
HETATM    4  H   UNL     3     -11.219  16.481  66.789  1.00  0.00     0.000 HD 
HETATM    5  H   UNL     2      -5.798   8.377  70.595  1.00  0.00     0.000 HD 
HETATM    6  O   UNL     2      -5.437   7.564  70.928  1.00  0.00    -0.027 OA 
HETATM    7  O   UNL     3     -10.935  15.633  66.469  1.00  0.00    -0.298 OA 
ENDROOT
BRANCH   2   8
HETATM    8  C   UNL     2      -5.960   5.461  71.879  1.00  0.00    -0.026 C  
HETATM    9  H   UNL     2      -4.793   4.836  73.353  1.00  0.00     0.000 HD 
HETATM   10  O   UNL     2      -5.155   5.649  73.019  1.00  0.00    -0.017 OA 
ENDBRANCH   2   8
BRANCH   2  11
HETATM   11  C   UNL     2      -7.540   6.630  70.120  1.00  0.00    -0.096 C  
HETATM   12  H   UNL     2      -7.478   6.015  68.244  1.00  0.00     0.000 HD 
HETATM   13  O   UNL     2      -6.881   6.106  68.977  1.00  0.00    -0.061 OA 
BRANCH  11  14
HETATM   14  C   UNL     2      -8.801   5.738  70.369  1.00  0.00    -0.142 C  
HETATM   15  H   UNL     2      -9.940   5.353  71.869  1.00  0.00     0.000 HD 
HETATM   16  O   UNL     2      -9.175   5.895  71.717  1.00  0.00    -0.148 OA 
BRANCH  14  17
HETATM   17  C   UNL     2      -8.615   4.228  70.092  1.00  0.00    -0.069 C  
HETATM   18  C   UNL     2      -9.423   3.780  68.887  1.00  0.00    -0.153 C  
HETATM   19  H   UNL     2      -8.917   2.567  71.045  1.00  0.00     0.000 HD 
HETATM   20  O   UNL     2      -9.031   3.494  71.215  1.00  0.00    -0.087 OA 
HETATM   21  O   UNL     2      -9.352   2.505  68.469  1.00  0.00    -0.178 OA 
HETATM   22  O   UNL     2     -10.090   4.578  68.230  1.00  0.00    -0.078 OA 
ENDBRANCH  14  17
ENDBRANCH  11  14
ENDBRANCH   2  11
BRANCH   3  23
HETATM   23  C   UNL     3     -11.652  14.925  68.635  1.00  0.00    -0.318 C  
HETATM   24  O   UNL     3     -12.677  14.133  68.083  1.00  0.00    -0.277 OA 
HETATM   25  H   UNL     3     -13.378  14.170  68.722  1.00  0.00     0.000 HD 
BRANCH  23  26
HETATM   26  C   UNL     3     -11.641  14.587  70.195  1.00  0.00    -0.276 C  
HETATM   27  O   UNL     3     -11.484  13.190  70.243  1.00  0.00    -0.514 OA 
HETATM   28  H   UNL     3     -11.478  12.989  71.171  1.00  0.00     0.000 HD 
BRANCH  26  29
HETATM   29  C   UNL     3     -12.818  14.876  71.247  1.00  0.00    -0.348 C  
HETATM   30  C   UNL     3     -13.130  13.885  72.334  1.00  0.00    -0.436 C  
HETATM   31  O   UNL     3     -14.049  15.095  70.591  1.00  0.00    -0.656 OA 
HETATM   32  O   UNL     3     -13.609  12.666  72.026  1.00  0.00    -0.456 OA 
HETATM   33  O   UNL     3     -13.098  14.238  73.502  1.00  0.00    -0.486 OA 
HETATM   34  H   UNL     3     -14.745  15.266  71.215  1.00  0.00     0.000 HD 
ENDBRANCH  26  29
ENDBRANCH  23  26
ENDBRANCH   3  23
BRANCH   3  35
HETATM   35  C   UNL     3     -10.015  13.464  67.043  1.00  0.00    -0.246 C  
HETATM   36  O   UNL     3      -8.683  13.472  66.621  1.00  0.00    -0.424 OA 
HETATM   37  H   UNL     3      -8.399  12.623  66.301  1.00  0.00     0.000 HD 
ENDBRANCH   3  35
TORSDOF 8
ENDMDL
MODEL      241
REMARK 921   NORMALIZED FREE ENERGY PREDICTED BY IDOCK:   -3.86 KCAL/MOL
REMARK 922        TOTAL FREE ENERGY PREDICTED BY IDOCK:   -7.34 KCAL/MOL
REMARK 923 INTER-LIGAND FREE ENERGY PREDICTED BY IDOCK:   -6.15 KCAL/MOL
REMARK 924 INTRA-LIGAND FREE ENERGY PREDICTED BY IDOCK:   -1.19 KCAL/MOL
REMARK 927      BINDING AFFINITY PREDICTED BY RF-SCORE:    0.00 PKD
ROOT
HETATM    1 MN   UNL     1     -10.424  10.667  67.539  1.00  0.00    -0.168 Mn 
HETATM    2  C   UNL     2      -9.442   4.710  72.398  1.00  0.00    -0.135 C  
HETATM    3  C   UNL     3     -11.486  13.019  67.726  1.00  0.00    -0.316 C  
HETATM    4  H   UNL     3     -11.942  14.648  66.775  1.00  0.00     0.000 HD 
HETATM    5  H   UNL     2     -10.455   5.112  70.825  1.00  0.00     0.000 HD 
HETATM    6  O   UNL     2     -10.277   4.321  71.319  1.00  0.00    -0.146 OA 
HETATM    7  O   UNL     3     -12.332  14.126  67.467  1.00  0.00    -0.296 OA 
ENDROOT
BRANCH   2   8
HETATM    8  C   UNL     2      -9.155   3.425  73.200  1.00  0.00    -0.097 C  
HETATM    9  H   UNL     2     -10.036   1.706  73.637  1.00  0.00     0.000 HD 
HETATM   10  O   UNL     2     -10.214   2.498  73.144  1.00  0.00    -0.112 OA 
ENDBRANCH   2   8
BRANCH   2  11
HETATM   11  C   UNL     2     -10.160   5.864  73.204  1.00  0.00    -0.185 C  
HETATM   12  H   UNL     2      -9.647   7.453  74.259  1.00  0.00     0.000 HD 
HETATM   13  O   UNL     2      -9.216   6.758  73.775  1.00  0.00    -0.142 OA 
BRANCH  11  14
HETATM   14  C   UNL     2     -11.181   6.731  72.397  1.00  0.00    -0.264 C  
HETATM   15  H   UNL     2     -13.008   6.536  71.830  1.00  0.00     0.000 HD 
HETATM   16  O   UNL     2     -12.387   6.009  72.320  1.00  0.00    -0.252 OA 
BRANCH  14  17
HETATM   17  C   UNL     2     -10.750   7.105  70.959  1.00  0.00    -0.232 C  
HETATM   18  C   UNL     2     -10.888   8.596  70.707  1.00  0.00    -0.230 C  
HETATM   19  H   UNL     2     -11.289   6.642  69.155  1.00  0.00     0.000 HD 
HETATM   20  O   UNL     2     -11.553   6.413  70.038  1.00  0.00    -0.425 OA 
HETATM   21  O   UNL     2     -10.518   9.112  69.523  1.00  0.00    -0.209 OA 
HETATM   22  O   UNL     2     -11.263   9.364  71.592  1.00  0.00    -0.370 OA 
ENDBRANCH  14  17
ENDBRANCH  11  14
ENDBRANCH   2  11
BRANCH   3  23
HETATM   23  C   UNL     3     -10.046  13.631  67.952  1.00  0.00    -0.244 C  
HETATM   24  O   UNL     3      -9.574  13.005  69.122  1.00  0.00    -0.303 OA 
HETATM   25  H   UNL     3      -8.709  13.373  69.257  1.00  0.00     0.000 HD 
BRANCH  23  26
HETATM   26  C   UNL     3      -8.792  13.700  66.966  1.00  0.00    -0.223 C  
HETATM   27  O   UNL     3      -9.343  13.473  65.692  1.00  0.00    -0.478 OA 
HETATM   28  H   UNL     3      -8.597  13.514  65.106  1.00  0.00     0.000 HD 
BRANCH  26  29
HETATM   29  C   UNL     3      -7.496  12.754  66.995  1.00  0.00     0.072 C  
HETATM   30  C   UNL     3      -7.642  11.258  66.962  1.00  0.00    -0.143 C  
HETATM   31  O   UNL     3      -6.696  13.015  68.129  1.00  0.00    -0.080 OA 
HETATM   32  O   UNL     3      -8.225  10.608  67.985  1.00  0.00    -0.110 OA 
HETATM   33  O   UNL     3      -7.092  10.616  66.080  1.00  0.00    -0.128 OA 
HETATM   34  H   UNL     3      -5.929  12.455  68.146  1.00  0.00     0.000 HD 
ENDBRANCH  26  29
ENDBRANCH  23  26
ENDBRANCH   3  23
BRANCH   3  35
HETATM   35  C   UNL     3     -12.129  12.158  68.868  1.00  0.00    -0.133 C  
HETATM   36  O   UNL     3     -12.411  10.852  68.457  1.00  0.00    -0.807 OA 
HETATM   37  H   UNL     3     -12.800  10.330  69.149  1.00  0.00     0.000 HD 
ENDBRANCH   3  35
TORSDOF 8
ENDMDL
MODEL      242
REMARK 921   NORMALIZED FREE ENERGY PREDICTED BY IDOCK:   -3.86 KCAL/MOL
REMARK 922        TOTAL FREE ENERGY PREDICTED BY IDOCK:   -7.33 KCAL/MOL
REMARK 923 INTER-LIGAND FREE ENERGY PREDICTED BY IDOCK:   -6.33 KCAL/MOL
REMARK 924 INTRA-LIGAND FREE ENERGY PREDICTED BY IDOCK:   -1.00 KCAL/MOL
REMARK 927      BINDING AFFINITY PREDICTED BY RF-SCORE:    0.00 PKD
ROOT
HETATM    1 MN   UNL     1      -7.750   6.331  69.682  1.00  0.00    -0.078 Mn 
HETATM    2  C   UNL     2     -10.791  11.324  64.595  1.00  0.00    -0.265 C  
HETATM    3  C   UNL     3      -7.242   6.392  72.219  1.00  0.00    -0.087 C  
HETATM    4  H   UNL     3      -6.481   5.427  73.722  1.00  0.00     0.000 HD 
HETATM    5  H   UNL     2      -9.095  10.514  64.956  1.00  0.00     0.000 HD 
HETATM    6  O   UNL     2      -9.448  11.033  64.242  1.00  0.00    -0.221 OA 
HETATM    7  O   UNL     3      -6.521   6.333  73.438  1.00  0.00    -0.064 OA 
ENDROOT
BRANCH   2   8
HETATM    8  C   UNL     2     -11.364  12.164  63.437  1.00  0.00    -0.411 C  
HETATM    9  H   UNL     2     -13.085  12.437  62.495  1.00  0.00     0.000 HD 
HETATM   10  O   UNL     2     -12.732  11.919  63.209  1.00  0.00    -0.654 OA 
ENDBRANCH   2   8
BRANCH   2  11
HETATM   11  C   UNL     2     -10.803  12.025  66.011  1.00  0.00    -0.289 C  
HETATM   12  H   UNL     2     -11.337  13.763  66.782  1.00  0.00     0.000 HD 
HETATM   13  O   UNL     2     -11.329  13.341  65.930  1.00  0.00    -0.302 OA 
BRANCH  11  14
HETATM   14  C   UNL     2     -11.597  11.283  67.136  1.00  0.00    -0.028 C  
HETATM   15  H   UNL     2     -12.552  11.806  68.721  1.00  0.00     0.000 HD 
HETATM   16  O   UNL     2     -12.070  12.256  68.037  1.00  0.00    -0.439 OA 
BRANCH  14  17
HETATM   17  C   UNL     2     -10.794  10.232  67.938  1.00  0.00    -0.284 C  
HETATM   18  C   UNL     2      -9.573  10.849  68.597  1.00  0.00    -0.190 C  
HETATM   19  H   UNL     2      -9.880   8.563  67.564  1.00  0.00     0.000 HD 
HETATM   20  O   UNL     2     -10.373   9.209  67.072  1.00  0.00    -0.250 OA 
HETATM   21  O   UNL     2      -8.777  10.093  69.372  1.00  0.00    -0.159 OA 
HETATM   22  O   UNL     2      -9.332  12.052  68.501  1.00  0.00    -0.191 OA 
ENDBRANCH  14  17
ENDBRANCH  11  14
ENDBRANCH   2  11
BRANCH   3  23
HETATM   23  C   UNL     3      -8.593   5.616  72.489  1.00  0.00    -0.124 C  
HETATM   24  O   UNL     3      -9.089   6.173  73.684  1.00  0.00    -0.127 OA 
HETATM   25  H   UNL     3      -9.900   5.707  73.846  1.00  0.00     0.000 HD 
BRANCH  23  26
HETATM   26  C   UNL     3      -9.867   5.412  71.549  1.00  0.00    -0.168 C  
HETATM   27  O   UNL     3      -9.436   4.489  70.580  1.00  0.00    -0.141 OA 
HETATM   28  H   UNL     3     -10.194   4.367  70.021  1.00  0.00     0.000 HD 
BRANCH  26  29
HETATM   29  C   UNL     3     -10.618   6.543  70.692  1.00  0.00    -0.233 C  
HETATM   30  C   UNL     3     -11.446   7.595  71.376  1.00  0.00    -0.264 C  
HETATM   31  O   UNL     3     -11.479   5.969  69.732  1.00  0.00    -0.395 OA 
HETATM   32  O   UNL     3     -12.566   7.255  72.038  1.00  0.00    -0.288 OA 
HETATM   33  O   UNL     3     -11.189   8.776  71.199  1.00  0.00    -0.248 OA 
HETATM   34  H   UNL     3     -11.924   6.639  69.225  1.00  0.00     0.000 HD 
ENDBRANCH  26  29
ENDBRANCH  23  26
ENDBRANCH   3  23
BRANCH   3  35
HETATM   35  C   UNL     3      -7.309   7.887  71.751  1.00  0.00    -0.073 C  
HETATM   36  O   UNL     3      -8.248   8.629  72.472  1.00  0.00    -0.358 OA 
HETATM   37  H   UNL     3      -8.288   9.535  72.189  1.00  0.00     0.000 HD 
ENDBRANCH   3  35
TORSDOF 8
ENDMDL
MODEL      243
REMARK 921   NORMALIZED FREE ENERGY PREDICTED BY IDOCK:   -3.84 KCAL/MOL
REMARK 922        TOTAL FREE ENERGY PREDICTED BY IDOCK:   -7.32 KCAL/MOL
REMARK 923 INTER-LIGAND FREE ENERGY PREDICTED BY IDOCK:   -6.26 KCAL/MOL
REMARK 924 INTRA-LIGAND FREE ENERGY PREDICTED BY IDOCK:   -1.06 KCAL/MOL
REMARK 927      BINDING AFFINITY PREDICTED BY RF-SCORE:    0.00 PKD
ROOT
HETATM    1 MN   UNL     1     -11.329   5.102  66.150  1.00  0.00    -0.413 Mn 
HETATM    2  C   UNL     2     -12.468  12.702  65.156  1.00  0.00    -0.463 C  
HETATM    3  C   UNL     3      -9.255   3.602  66.535  1.00  0.00    -0.171 C  
HETATM    4  H   UNL     3      -8.615   1.782  66.751  1.00  0.00     0.000 HD 
HETATM    5  H   UNL     2     -12.606  11.095  64.127  1.00  0.00     0.000 HD 
HETATM    6  O   UNL     2     -12.873  11.997  63.994  1.00  0.00    -0.575 OA 
HETATM    7  O   UNL     3      -8.294   2.578  66.344  1.00  0.00    -0.085 OA 
ENDROOT
BRANCH   2   8
HETATM    8  C   UNL     2     -12.902  14.166  64.941  1.00  0.00    -0.145 C  
HETATM    9  H   UNL     2     -12.833  15.554  63.529  1.00  0.00     0.000 HD 
HETATM   10  O   UNL     2     -12.565  14.652  63.662  1.00  0.00    -0.773 OA 
ENDBRANCH   2   8
BRANCH   2  11
HETATM   11  C   UNL     2     -10.918  12.480  65.370  1.00  0.00    -0.294 C  
HETATM   12  H   UNL     2      -9.547  12.918  66.722  1.00  0.00     0.000 HD 
HETATM   13  O   UNL     2     -10.479  13.052  66.593  1.00  0.00    -0.260 OA 
BRANCH  11  14
HETATM   14  C   UNL     2     -10.431  10.994  65.359  1.00  0.00    -0.241 C  
HETATM   15  H   UNL     2     -10.295   9.580  66.654  1.00  0.00     0.000 HD 
HETATM   16  O   UNL     2     -10.591  10.483  66.660  1.00  0.00    -0.241 OA 
BRANCH  14  17
HETATM   17  C   UNL     2      -8.960  10.778  64.932  1.00  0.00    -0.184 C  
HETATM   18  C   UNL     2      -8.847  10.508  63.442  1.00  0.00    -0.206 C  
HETATM   19  H   UNL     2      -7.526   9.548  65.371  1.00  0.00     0.000 HD 
HETATM   20  O   UNL     2      -8.429   9.682  65.632  1.00  0.00    -0.124 OA 
HETATM   21  O   UNL     2      -7.638  10.337  62.882  1.00  0.00    -0.141 OA 
HETATM   22  O   UNL     2      -9.838  10.516  62.712  1.00  0.00    -0.294 OA 
ENDBRANCH  14  17
ENDBRANCH  11  14
ENDBRANCH   2  11
BRANCH   3  23
HETATM   23  C   UNL     3      -9.562   3.609  68.086  1.00  0.00    -0.103 C  
HETATM   24  O   UNL     3      -9.133   2.345  68.538  1.00  0.00    -0.117 OA 
HETATM   25  H   UNL     3      -9.318   2.350  69.470  1.00  0.00     0.000 HD 
BRANCH  23  26
HETATM   26  C   UNL     3      -9.117   4.643  69.217  1.00  0.00    -0.109 C  
HETATM   27  O   UNL     3      -8.955   3.848  70.366  1.00  0.00    -0.082 OA 
HETATM   28  H   UNL     3      -8.690   4.463  71.039  1.00  0.00     0.000 HD 
BRANCH  26  29
HETATM   29  C   UNL     3      -9.954   5.908  69.744  1.00  0.00    -0.181 C  
HETATM   30  C   UNL     3      -9.840   7.239  69.054  1.00  0.00    -0.165 C  
HETATM   31  O   UNL     3      -9.674   6.178  71.101  1.00  0.00    -0.174 OA 
HETATM   32  O   UNL     3      -8.678   7.915  69.066  1.00  0.00    -0.137 OA 
HETATM   33  O   UNL     3     -10.843   7.780  68.616  1.00  0.00    -0.097 OA 
HETATM   34  H   UNL     3     -10.169   6.926  71.412  1.00  0.00     0.000 HD 
ENDBRANCH  26  29
ENDBRANCH  23  26
ENDBRANCH   3  23
BRANCH   3  35
HETATM   35  C   UNL     3      -8.725   4.915  65.863  1.00  0.00    -0.127 C  
HETATM   36  O   UNL     3      -9.402   5.219  64.679  1.00  0.00    -0.360 OA 
HETATM   37  H   UNL     3      -9.080   6.016  64.272  1.00  0.00     0.000 HD 
ENDBRANCH   3  35
TORSDOF 8
ENDMDL
MODEL      244
REMARK 921   NORMALIZED FREE ENERGY PREDICTED BY IDOCK:   -3.84 KCAL/MOL
REMARK 922        TOTAL FREE ENERGY PREDICTED BY IDOCK:   -7.31 KCAL/MOL
REMARK 923 INTER-LIGAND FREE ENERGY PREDICTED BY IDOCK:   -6.08 KCAL/MOL
REMARK 924 INTRA-LIGAND FREE ENERGY PREDICTED BY IDOCK:   -1.23 KCAL/MOL
REMARK 927      BINDING AFFINITY PREDICTED BY RF-SCORE:    0.00 PKD
ROOT
HETATM    1 MN   UNL     1      -8.159  14.562  69.761  1.00  0.00    -0.259 Mn 
HETATM    2  C   UNL     2      -9.179   7.710  73.234  1.00  0.00    -0.229 C  
HETATM    3  C   UNL     3      -6.867  15.375  67.672  1.00  0.00    -0.182 C  
HETATM    4  H   UNL     3      -6.363  16.914  66.601  1.00  0.00     0.000 HD 
HETATM    5  H   UNL     2      -8.304   9.374  73.595  1.00  0.00     0.000 HD 
HETATM    6  O   UNL     2      -8.502   8.599  74.109  1.00  0.00    -0.236 OA 
HETATM    7  O   UNL     3      -5.953  16.098  66.864  1.00  0.00    -0.330 OA 
ENDROOT
BRANCH   2   8
HETATM    8  C   UNL     2      -9.500   6.454  74.068  1.00  0.00    -0.182 C  
HETATM    9  H   UNL     2     -10.947   5.115  74.258  1.00  0.00     0.000 HD 
HETATM   10  O   UNL     2     -10.749   5.890  73.745  1.00  0.00    -0.264 OA 
ENDBRANCH   2   8
BRANCH   2  11
HETATM   11  C   UNL     2      -8.275   7.465  71.961  1.00  0.00    -0.102 C  
HETATM   12  H   UNL     2      -7.158   6.020  71.213  1.00  0.00     0.000 HD 
HETATM   13  O   UNL     2      -7.701   6.168  71.979  1.00  0.00    -0.095 OA 
BRANCH  11  14
HETATM   14  C   UNL     2      -8.983   7.634  70.576  1.00  0.00    -0.151 C  
HETATM   15  H   UNL     2      -9.570   6.453  69.177  1.00  0.00     0.000 HD 
HETATM   16  O   UNL     2      -9.141   6.351  70.019  1.00  0.00    -0.148 OA 
BRANCH  14  17
HETATM   17  C   UNL     2      -8.237   8.519  69.550  1.00  0.00    -0.116 C  
HETATM   18  C   UNL     2      -9.173   9.014  68.460  1.00  0.00    -0.136 C  
HETATM   19  H   UNL     2      -6.748   8.317  68.326  1.00  0.00     0.000 HD 
HETATM   20  O   UNL     2      -7.205   7.774  68.956  1.00  0.00    -0.075 OA 
HETATM   21  O   UNL     2      -8.709   9.834  67.502  1.00  0.00    -0.125 OA 
HETATM   22  O   UNL     2     -10.373   8.744  68.474  1.00  0.00    -0.199 OA 
ENDBRANCH  14  17
ENDBRANCH  11  14
ENDBRANCH   2  11
BRANCH   3  23
HETATM   23  C   UNL     3      -8.212  15.321  66.842  1.00  0.00    -0.228 C  
HETATM   24  O   UNL     3      -8.386  13.956  66.538  1.00  0.00    -0.386 OA 
HETATM   25  H   UNL     3      -9.194  13.924  66.039  1.00  0.00     0.000 HD 
BRANCH  23  26
HETATM   26  C   UNL     3      -9.667  15.869  67.204  1.00  0.00    -0.224 C  
HETATM   27  O   UNL     3     -10.051  15.110  68.324  1.00  0.00    -0.218 OA 
HETATM   28  H   UNL     3     -10.917  15.435  68.540  1.00  0.00     0.000 HD 
BRANCH  26  29
HETATM   29  C   UNL     3     -10.965  15.841  66.260  1.00  0.00    -0.163 C  
HETATM   30  C   UNL     3     -11.418  14.556  65.625  1.00  0.00    -0.341 C  
HETATM   31  O   UNL     3     -10.838  16.751  65.189  1.00  0.00    -0.584 OA 
HETATM   32  O   UNL     3     -10.651  13.944  64.705  1.00  0.00    -0.391 OA 
HETATM   33  O   UNL     3     -12.552  14.149  65.825  1.00  0.00    -0.488 OA 
HETATM   34  H   UNL     3     -11.607  16.734  64.630  1.00  0.00     0.000 HD 
ENDBRANCH  26  29
ENDBRANCH  23  26
ENDBRANCH   3  23
BRANCH   3  35
HETATM   35  C   UNL     3      -6.192  14.029  68.106  1.00  0.00    -0.132 C  
HETATM   36  O   UNL     3      -7.072  13.188  68.792  1.00  0.00    -0.100 OA 
HETATM   37  H   UNL     3      -6.662  12.372  69.055  1.00  0.00     0.000 HD 
ENDBRANCH   3  35
TORSDOF 8
ENDMDL
MODEL      245
REMARK 921   NORMALIZED FREE ENERGY PREDICTED BY IDOCK:   -3.84 KCAL/MOL
REMARK 922        TOTAL FREE ENERGY PREDICTED BY IDOCK:   -7.31 KCAL/MOL
REMARK 923 INTER-LIGAND FREE ENERGY PREDICTED BY IDOCK:   -6.50 KCAL/MOL
REMARK 924 INTRA-LIGAND FREE ENERGY PREDICTED BY IDOCK:   -0.81 KCAL/MOL
REMARK 927      BINDING AFFINITY PREDICTED BY RF-SCORE:    0.00 PKD
ROOT
HETATM    1 MN   UNL     1      -8.785  18.660  69.270  1.00  0.00    -0.287 Mn 
HETATM    2  C   UNL     2     -11.954  12.793  65.322  1.00  0.00    -0.429 C  
HETATM    3  C   UNL     3      -6.370  19.502  69.664  1.00  0.00    -0.316 C  
HETATM    4  H   UNL     3      -5.259  20.805  70.578  1.00  0.00     0.000 HD 
HETATM    5  H   UNL     2     -11.719  13.319  67.146  1.00  0.00     0.000 HD 
HETATM    6  O   UNL     2     -12.223  12.644  66.707  1.00  0.00    -0.506 OA 
HETATM    7  O   UNL     3      -5.183  19.889  70.336  1.00  0.00    -0.198 OA 
ENDROOT
BRANCH   2   8
HETATM    8  C   UNL     2     -12.772  11.699  64.608  1.00  0.00     0.827 C  
HETATM    9  H   UNL     2     -13.755  11.435  62.909  1.00  0.00     0.000 HD 
HETATM   10  O   UNL     2     -13.251  12.110  63.349  1.00  0.00    -0.689 OA 
ENDBRANCH   2   8
BRANCH   2  11
HETATM   11  C   UNL     2     -10.391  12.724  65.098  1.00  0.00    -0.295 C  
HETATM   12  H   UNL     2      -9.111  12.966  63.615  1.00  0.00     0.000 HD 
HETATM   13  O   UNL     2     -10.050  13.007  63.749  1.00  0.00    -0.334 OA 
BRANCH  11  14
HETATM   14  C   UNL     2      -9.528  13.670  65.996  1.00  0.00    -0.090 C  
HETATM   15  H   UNL     2      -8.185  13.435  67.351  1.00  0.00     0.000 HD 
HETATM   16  O   UNL     2      -8.709  12.861  66.806  1.00  0.00    -0.190 OA 
BRANCH  14  17
HETATM   17  C   UNL     2     -10.324  14.626  66.916  1.00  0.00    -0.264 C  
HETATM   18  C   UNL     2     -10.215  16.067  66.448  1.00  0.00    -0.305 C  
HETATM   19  H   UNL     2     -10.310  15.123  68.790  1.00  0.00     0.000 HD 
HETATM   20  O   UNL     2      -9.822  14.536  68.225  1.00  0.00    -0.216 OA 
HETATM   21  O   UNL     2     -10.878  17.035  67.102  1.00  0.00    -0.224 OA 
HETATM   22  O   UNL     2      -9.590  16.365  65.430  1.00  0.00    -0.455 OA 
ENDBRANCH  14  17
ENDBRANCH  11  14
ENDBRANCH   2  11
BRANCH   3  23
HETATM   23  C   UNL     3      -6.578  20.576  68.523  1.00  0.00    -0.234 C  
HETATM   24  O   UNL     3      -5.276  20.884  68.083  1.00  0.00    -0.245 OA 
HETATM   25  H   UNL     3      -5.402  21.529  67.398  1.00  0.00     0.000 HD 
BRANCH  23  26
HETATM   26  C   UNL     3      -7.474  20.514  67.203  1.00  0.00    -0.328 C  
HETATM   27  O   UNL     3      -8.780  20.312  67.683  1.00  0.00    -0.320 OA 
HETATM   28  H   UNL     3      -9.313  20.275  66.898  1.00  0.00     0.000 HD 
BRANCH  26  29
HETATM   29  C   UNL     3      -7.341  19.457  66.002  1.00  0.00    -0.290 C  
HETATM   30  C   UNL     3      -6.484  19.765  64.806  1.00  0.00    -0.202 C  
HETATM   31  O   UNL     3      -8.606  19.128  65.468  1.00  0.00    -0.196 OA 
HETATM   32  O   UNL     3      -6.810  20.772  63.976  1.00  0.00    -0.127 OA 
HETATM   33  O   UNL     3      -5.579  19.004  64.498  1.00  0.00    -0.225 OA 
HETATM   34  H   UNL     3      -8.526  18.502  64.757  1.00  0.00     0.000 HD 
ENDBRANCH  26  29
ENDBRANCH  23  26
ENDBRANCH   3  23
BRANCH   3  35
HETATM   35  C   UNL     3      -6.246  17.990  69.265  1.00  0.00    -0.244 C  
HETATM   36  O   UNL     3      -7.456  17.304  69.395  1.00  0.00    -0.118 OA 
HETATM   37  H   UNL     3      -7.380  16.388  69.153  1.00  0.00     0.000 HD 
ENDBRANCH   3  35
TORSDOF 8
ENDMDL
MODEL      246
REMARK 921   NORMALIZED FREE ENERGY PREDICTED BY IDOCK:   -3.83 KCAL/MOL
REMARK 922        TOTAL FREE ENERGY PREDICTED BY IDOCK:   -7.30 KCAL/MOL
REMARK 923 INTER-LIGAND FREE ENERGY PREDICTED BY IDOCK:   -6.41 KCAL/MOL
REMARK 924 INTRA-LIGAND FREE ENERGY PREDICTED BY IDOCK:   -0.89 KCAL/MOL
REMARK 927      BINDING AFFINITY PREDICTED BY RF-SCORE:    0.00 PKD
ROOT
HETATM    1 MN   UNL     1      -7.857   9.571  67.799  1.00  0.00    -0.087 Mn 
HETATM    2  C   UNL     2      -6.587  17.098  66.464  1.00  0.00    -0.242 C  
HETATM    3  C   UNL     3      -9.262   8.232  69.511  1.00  0.00    -0.158 C  
HETATM    4  H   UNL     3      -9.746   6.464  70.150  1.00  0.00     0.000 HD 
HETATM    5  H   UNL     2      -5.608  15.578  67.089  1.00  0.00     0.000 HD 
HETATM    6  O   UNL     2      -5.373  16.461  66.828  1.00  0.00    -0.348 OA 
HETATM    7  O   UNL     3      -9.595   7.317  70.541  1.00  0.00    -0.169 OA 
ENDROOT
BRANCH   2   8
HETATM    8  C   UNL     2      -6.207  18.530  66.040  1.00  0.00    -0.206 C  
HETATM    9  H   UNL     2      -6.594  19.810  64.579  1.00  0.00     0.000 HD 
HETATM   10  O   UNL     2      -6.828  18.928  64.840  1.00  0.00    -0.460 OA 
ENDBRANCH   2   8
BRANCH   2  11
HETATM   11  C   UNL     2      -7.597  16.996  67.675  1.00  0.00    -0.165 C  
HETATM   12  H   UNL     2      -7.808  17.775  69.477  1.00  0.00     0.000 HD 
HETATM   13  O   UNL     2      -7.201  17.836  68.749  1.00  0.00    -0.256 OA 
BRANCH  11  14
HETATM   14  C   UNL     2      -9.089  17.339  67.354  1.00  0.00    -0.226 C  
HETATM   15  H   UNL     2     -10.496  18.318  68.225  1.00  0.00     0.000 HD 
HETATM   16  O   UNL     2      -9.589  18.110  68.419  1.00  0.00    -0.307 OA 
BRANCH  14  17
HETATM   17  C   UNL     2     -10.025  16.123  67.156  1.00  0.00    -0.251 C  
HETATM   18  C   UNL     2     -10.071  15.250  68.398  1.00  0.00    -0.220 C  
HETATM   19  H   UNL     2     -10.138  14.605  65.956  1.00  0.00     0.000 HD 
HETATM   20  O   UNL     2      -9.564  15.351  66.077  1.00  0.00    -0.298 OA 
HETATM   21  O   UNL     2     -10.868  14.168  68.426  1.00  0.00    -0.241 OA 
HETATM   22  O   UNL     2      -9.450  15.551  69.417  1.00  0.00    -0.250 OA 
ENDBRANCH  14  17
ENDBRANCH  11  14
ENDBRANCH   2  11
BRANCH   3  23
HETATM   23  C   UNL     3     -10.403   8.081  68.427  1.00  0.00    -0.199 C  
HETATM   24  O   UNL     3     -10.054   8.996  67.414  1.00  0.00    -0.196 OA 
HETATM   25  H   UNL     3     -10.740   8.905  66.763  1.00  0.00     0.000 HD 
BRANCH  23  26
HETATM   26  C   UNL     3     -10.935   6.782  67.667  1.00  0.00    -0.270 C  
HETATM   27  O   UNL     3     -11.164   5.851  68.696  1.00  0.00    -0.238 OA 
HETATM   28  H   UNL     3     -11.480   5.078  68.244  1.00  0.00     0.000 HD 
BRANCH  26  29
HETATM   29  C   UNL     3     -10.149   5.934  66.553  1.00  0.00    -0.156 C  
HETATM   30  C   UNL     3      -9.296   4.761  66.947  1.00  0.00    -0.134 C  
HETATM   31  O   UNL     3      -9.300   6.760  65.785  1.00  0.00    -0.383 OA 
HETATM   32  O   UNL     3      -8.188   4.945  67.688  1.00  0.00    -0.104 OA 
HETATM   33  O   UNL     3      -9.519   3.661  66.466  1.00  0.00    -0.184 OA 
HETATM   34  H   UNL     3      -8.835   6.258  65.126  1.00  0.00     0.000 HD 
ENDBRANCH  26  29
ENDBRANCH  23  26
ENDBRANCH   3  23
BRANCH   3  35
HETATM   35  C   UNL     3      -9.014   9.639  70.156  1.00  0.00    -0.236 C  
HETATM   36  O   UNL     3     -10.130  10.474  70.060  1.00  0.00    -0.427 OA 
HETATM   37  H   UNL     3      -9.979  11.327  70.451  1.00  0.00     0.000 HD 
ENDBRANCH   3  35
TORSDOF 8
ENDMDL
MODEL      247
REMARK 921   NORMALIZED FREE ENERGY PREDICTED BY IDOCK:   -3.83 KCAL/MOL
REMARK 922        TOTAL FREE ENERGY PREDICTED BY IDOCK:   -7.29 KCAL/MOL
REMARK 923 INTER-LIGAND FREE ENERGY PREDICTED BY IDOCK:   -6.38 KCAL/MOL
REMARK 924 INTRA-LIGAND FREE ENERGY PREDICTED BY IDOCK:   -0.91 KCAL/MOL
REMARK 927      BINDING AFFINITY PREDICTED BY RF-SCORE:    0.00 PKD
ROOT
HETATM    1 MN   UNL     1     -10.262  13.140  69.002  1.00  0.00    -0.211 Mn 
HETATM    2  C   UNL     2      -7.211   6.082  68.038  1.00  0.00    -0.080 C  
HETATM    3  C   UNL     3      -9.515  15.547  68.415  1.00  0.00    -0.196 C  
HETATM    4  H   UNL     3      -9.952  17.435  68.545  1.00  0.00     0.000 HD 
HETATM    5  H   UNL     2      -7.612   7.276  69.479  1.00  0.00     0.000 HD 
HETATM    6  O   UNL     2      -7.345   6.366  69.422  1.00  0.00    -0.086 OA 
HETATM    7  O   UNL     3      -9.160  16.911  68.571  1.00  0.00    -0.241 OA 
ENDROOT
BRANCH   2   8
HETATM    8  C   UNL     2      -6.779   4.605  67.945  1.00  0.00    -0.054 C  
HETATM    9  H   UNL     2      -7.207   2.986  66.888  1.00  0.00     0.000 HD 
HETATM   10  O   UNL     2      -7.473   3.896  66.946  1.00  0.00    -0.071 OA 
ENDBRANCH   2   8
BRANCH   2  11
HETATM   11  C   UNL     2      -6.206   7.123  67.403  1.00  0.00    -0.045 C  
HETATM   12  H   UNL     2      -5.055   7.261  65.804  1.00  0.00     0.000 HD 
HETATM   13  O   UNL     2      -5.659   6.635  66.187  1.00  0.00    -0.017 OA 
BRANCH  11  14
HETATM   14  C   UNL     2      -6.788   8.544  67.105  1.00  0.00    -0.067 C  
HETATM   15  H   UNL     2      -6.895  10.214  68.052  1.00  0.00     0.000 HD 
HETATM   16  O   UNL     2      -6.542   9.351  68.232  1.00  0.00    -0.057 OA 
BRANCH  14  17
HETATM   17  C   UNL     2      -8.303   8.593  66.798  1.00  0.00    -0.108 C  
HETATM   18  C   UNL     2      -8.614   9.591  65.696  1.00  0.00    -0.138 C  
HETATM   19  H   UNL     2      -9.932   8.997  67.769  1.00  0.00     0.000 HD 
HETATM   20  O   UNL     2      -9.001   8.967  67.958  1.00  0.00    -0.139 OA 
HETATM   21  O   UNL     2      -9.878   9.740  65.264  1.00  0.00    -0.313 OA 
HETATM   22  O   UNL     2      -7.721  10.221  65.130  1.00  0.00    -0.139 OA 
ENDBRANCH  14  17
ENDBRANCH  11  14
ENDBRANCH   2  11
BRANCH   3  23
HETATM   23  C   UNL     3     -10.422  15.493  67.121  1.00  0.00    -0.286 C  
HETATM   24  O   UNL     3     -11.091  16.733  67.104  1.00  0.00    -0.077 OA 
HETATM   25  H   UNL     3     -11.636  16.700  66.327  1.00  0.00     0.000 HD 
BRANCH  23  26
HETATM   26  C   UNL     3     -10.030  15.197  65.602  1.00  0.00    -0.354 C  
HETATM   27  O   UNL     3     -10.362  16.383  64.924  1.00  0.00    -0.590 OA 
HETATM   28  H   UNL     3     -10.129  16.206  64.020  1.00  0.00     0.000 HD 
BRANCH  26  29
HETATM   29  C   UNL     3     -10.630  14.039  64.665  1.00  0.00    -0.395 C  
HETATM   30  C   UNL     3     -12.105  13.974  64.383  1.00  0.00    -0.458 C  
HETATM   31  O   UNL     3     -10.297  12.759  65.157  1.00  0.00    -0.287 OA 
HETATM   32  O   UNL     3     -12.977  13.719  65.374  1.00  0.00    -0.706 OA 
HETATM   33  O   UNL     3     -12.501  13.997  63.228  1.00  0.00    -0.795 OA 
HETATM   34  H   UNL     3     -10.652  12.074  64.602  1.00  0.00     0.000 HD 
ENDBRANCH  26  29
ENDBRANCH  23  26
ENDBRANCH   3  23
BRANCH   3  35
HETATM   35  C   UNL     3      -8.208  14.683  68.459  1.00  0.00    -0.152 C  
HETATM   36  O   UNL     3      -8.406  13.449  69.082  1.00  0.00    -0.320 OA 
HETATM   37  H   UNL     3      -7.613  12.925  69.109  1.00  0.00     0.000 HD 
ENDBRANCH   3  35
TORSDOF 8
ENDMDL
MODEL      248
REMARK 921   NORMALIZED FREE ENERGY PREDICTED BY IDOCK:   -3.83 KCAL/MOL
REMARK 922        TOTAL FREE ENERGY PREDICTED BY IDOCK:   -7.29 KCAL/MOL
REMARK 923 INTER-LIGAND FREE ENERGY PREDICTED BY IDOCK:   -7.40 KCAL/MOL
REMARK 924 INTRA-LIGAND FREE ENERGY PREDICTED BY IDOCK:    0.11 KCAL/MOL
REMARK 927      BINDING AFFINITY PREDICTED BY RF-SCORE:    0.00 PKD
ROOT
HETATM    1 MN   UNL     1      -8.750  11.081  70.178  1.00  0.00    -0.357 Mn 
HETATM    2  C   UNL     2      -8.157  18.055  66.852  1.00  0.00    -0.236 C  
HETATM    3  C   UNL     3     -10.591   9.266  70.298  1.00  0.00    -0.235 C  
HETATM    4  H   UNL     3     -11.092   7.541  71.034  1.00  0.00     0.000 HD 
HETATM    5  H   UNL     2      -8.260  17.323  68.617  1.00  0.00     0.000 HD 
HETATM    6  O   UNL     2      -8.067  18.183  68.262  1.00  0.00    -0.278 OA 
HETATM    7  O   UNL     3     -11.537   8.357  70.833  1.00  0.00    -0.277 OA 
ENDROOT
BRANCH   2   8
HETATM    8  C   UNL     2      -7.843  19.450  66.275  1.00  0.00    -0.308 C  
HETATM    9  H   UNL     2      -6.814  20.256  64.787  1.00  0.00     0.000 HD 
HETATM   10  O   UNL     2      -7.007  19.397  65.143  1.00  0.00    -0.426 OA 
ENDBRANCH   2   8
BRANCH   2  11
HETATM   11  C   UNL     2      -9.580  17.475  66.484  1.00  0.00    -0.285 C  
HETATM   12  H   UNL     2     -11.118  17.974  65.351  1.00  0.00     0.000 HD 
HETATM   13  O   UNL     2     -10.262  18.323  65.573  1.00  0.00    -0.530 OA 
BRANCH  11  14
HETATM   14  C   UNL     2      -9.596  16.036  65.871  1.00  0.00    -0.335 C  
HETATM   15  H   UNL     2     -10.681  15.097  64.591  1.00  0.00     0.000 HD 
HETATM   16  O   UNL     2     -10.670  15.971  64.964  1.00  0.00    -0.513 OA 
BRANCH  14  17
HETATM   17  C   UNL     2      -9.751  14.880  66.887  1.00  0.00    -0.240 C  
HETATM   18  C   UNL     2     -10.540  15.315  68.109  1.00  0.00    -0.254 C  
HETATM   19  H   UNL     2      -8.574  13.739  67.922  1.00  0.00     0.000 HD 
HETATM   20  O   UNL     2      -8.479  14.449  67.299  1.00  0.00    -0.190 OA 
HETATM   21  O   UNL     2     -10.812  14.429  69.081  1.00  0.00    -0.252 OA 
HETATM   22  O   UNL     2     -11.007  16.450  68.200  1.00  0.00    -0.337 OA 
ENDBRANCH  14  17
ENDBRANCH  11  14
ENDBRANCH   2  11
BRANCH   3  23
HETATM   23  C   UNL     3      -9.869   8.484  69.129  1.00  0.00    -0.186 C  
HETATM   24  O   UNL     3      -9.605   9.467  68.154  1.00  0.00    -0.140 OA 
HETATM   25  H   UNL     3      -9.171   8.996  67.452  1.00  0.00     0.000 HD 
BRANCH  23  26
HETATM   26  C   UNL     3      -8.573   7.553  69.161  1.00  0.00    -0.136 C  
HETATM   27  O   UNL     3      -8.969   6.388  68.479  1.00  0.00    -0.126 OA 
HETATM   28  H   UNL     3      -8.198   5.834  68.499  1.00  0.00     0.000 HD 
BRANCH  26  29
HETATM   29  C   UNL     3      -7.825   6.994  70.467  1.00  0.00    -0.101 C  
HETATM   30  C   UNL     3      -8.268   7.419  71.840  1.00  0.00    -0.106 C  
HETATM   31  O   UNL     3      -6.443   7.280  70.427  1.00  0.00    -0.041 OA 
HETATM   32  O   UNL     3      -8.142   8.700  72.230  1.00  0.00    -0.308 OA 
HETATM   33  O   UNL     3      -8.597   6.573  72.658  1.00  0.00    -0.125 OA 
HETATM   34  H   UNL     3      -6.001   6.949  71.201  1.00  0.00     0.000 HD 
ENDBRANCH  26  29
ENDBRANCH  23  26
ENDBRANCH   3  23
BRANCH   3  35
HETATM   35  C   UNL     3     -11.325  10.611  69.966  1.00  0.00    -0.324 C  
HETATM   36  O   UNL     3     -12.194  10.490  68.879  1.00  0.00    -0.753 OA 
HETATM   37  H   UNL     3     -12.639  11.305  68.678  1.00  0.00     0.000 HD 
ENDBRANCH   3  35
TORSDOF 8
ENDMDL
MODEL      249
REMARK 921   NORMALIZED FREE ENERGY PREDICTED BY IDOCK:   -3.82 KCAL/MOL
REMARK 922        TOTAL FREE ENERGY PREDICTED BY IDOCK:   -7.29 KCAL/MOL
REMARK 923 INTER-LIGAND FREE ENERGY PREDICTED BY IDOCK:   -5.95 KCAL/MOL
REMARK 924 INTRA-LIGAND FREE ENERGY PREDICTED BY IDOCK:   -1.34 KCAL/MOL
REMARK 927      BINDING AFFINITY PREDICTED BY RF-SCORE:    0.00 PKD
ROOT
HETATM    1 MN   UNL     1     -10.844  10.335  65.448  1.00  0.00    -0.245 Mn 
HETATM    2  C   UNL     2     -10.310  18.029  66.205  1.00  0.00    -0.382 C  
HETATM    3  C   UNL     3      -9.211   8.352  65.761  1.00  0.00    -0.111 C  
HETATM    4  H   UNL     3      -8.982   6.430  65.616  1.00  0.00     0.000 HD 
HETATM    5  H   UNL     2     -10.536  16.749  64.801  1.00  0.00     0.000 HD 
HETATM    6  O   UNL     2     -10.596  17.695  64.856  1.00  0.00    -0.429 OA 
HETATM    7  O   UNL     3      -8.441   7.198  65.472  1.00  0.00    -0.138 OA 
ENDROOT
BRANCH   2   8
HETATM    8  C   UNL     2     -10.408  19.565  66.295  1.00  0.00    -0.506 C  
HETATM    9  H   UNL     2     -10.341  20.990  67.668  1.00  0.00     0.000 HD 
HETATM   10  O   UNL     2     -10.280  20.043  67.613  1.00  0.00    -0.405 OA 
ENDBRANCH   2   8
BRANCH   2  11
HETATM   11  C   UNL     2      -8.905  17.417  66.592  1.00  0.00    -0.254 C  
HETATM   12  H   UNL     2      -7.231  18.016  67.450  1.00  0.00     0.000 HD 
HETATM   13  O   UNL     2      -8.076  18.384  67.217  1.00  0.00    -0.235 OA 
BRANCH  11  14
HETATM   14  C   UNL     2      -8.938  16.167  67.531  1.00  0.00    -0.191 C  
HETATM   15  H   UNL     2      -9.227  15.860  69.407  1.00  0.00     0.000 HD 
HETATM   16  O   UNL     2      -9.208  16.619  68.836  1.00  0.00    -0.247 OA 
BRANCH  14  17
HETATM   17  C   UNL     2      -7.638  15.328  67.570  1.00  0.00    -0.187 C  
HETATM   18  C   UNL     2      -7.938  13.844  67.698  1.00  0.00    -0.175 C  
HETATM   19  H   UNL     2      -6.061  15.214  68.692  1.00  0.00     0.000 HD 
HETATM   20  O   UNL     2      -6.859  15.729  68.667  1.00  0.00    -0.115 OA 
HETATM   21  O   UNL     2      -6.930  12.956  67.705  1.00  0.00    -0.106 OA 
HETATM   22  O   UNL     2      -9.094  13.423  67.721  1.00  0.00    -0.183 OA 
ENDBRANCH  14  17
ENDBRANCH  11  14
ENDBRANCH   2  11
BRANCH   3  23
HETATM   23  C   UNL     3      -9.818   8.105  67.200  1.00  0.00    -0.217 C  
HETATM   24  O   UNL     3      -8.836   7.354  67.875  1.00  0.00    -0.132 OA 
HETATM   25  H   UNL     3      -9.201   7.205  68.740  1.00  0.00     0.000 HD 
BRANCH  23  26
HETATM   26  C   UNL     3     -10.376   9.146  68.274  1.00  0.00    -0.214 C  
HETATM   27  O   UNL     3      -9.226   9.813  68.736  1.00  0.00    -0.136 OA 
HETATM   28  H   UNL     3      -9.558  10.432  69.375  1.00  0.00     0.000 HD 
BRANCH  26  29
HETATM   29  C   UNL     3     -11.181   8.799  69.619  1.00  0.00     0.071 C  
HETATM   30  C   UNL     3     -10.571   9.070  70.965  1.00  0.00    -0.271 C  
HETATM   31  O   UNL     3     -11.553   7.437  69.655  1.00  0.00    -0.481 OA 
HETATM   32  O   UNL     3      -9.477   8.397  71.365  1.00  0.00    -0.161 OA 
HETATM   33  O   UNL     3     -11.157   9.787  71.762  1.00  0.00    -0.200 OA 
HETATM   34  H   UNL     3     -12.030   7.232  70.451  1.00  0.00     0.000 HD 
ENDBRANCH  26  29
ENDBRANCH  23  26
ENDBRANCH   3  23
BRANCH   3  35
HETATM   35  C   UNL     3      -8.318   9.619  65.525  1.00  0.00    -0.139 C  
HETATM   36  O   UNL     3      -8.767  10.729  66.246  1.00  0.00    -0.157 OA 
HETATM   37  H   UNL     3      -8.226  11.497  66.103  1.00  0.00     0.000 HD 
ENDBRANCH   3  35
TORSDOF 8
ENDMDL
MODEL      250
REMARK 921   NORMALIZED FREE ENERGY PREDICTED BY IDOCK:   -3.81 KCAL/MOL
REMARK 922        TOTAL FREE ENERGY PREDICTED BY IDOCK:   -7.27 KCAL/MOL
REMARK 923 INTER-LIGAND FREE ENERGY PREDICTED BY IDOCK:   -6.94 KCAL/MOL
REMARK 924 INTRA-LIGAND FREE ENERGY PREDICTED BY IDOCK:   -0.33 KCAL/MOL
REMARK 927      BINDING AFFINITY PREDICTED BY RF-SCORE:    0.00 PKD
ROOT
HETATM    1 MN   UNL     1      -8.725  11.077  70.188  1.00  0.00    -0.357 Mn 
HETATM    2  C   UNL     2      -8.053  17.984  66.740  1.00  0.00    -0.242 C  
HETATM    3  C   UNL     3     -10.574   9.271  70.313  1.00  0.00    -0.235 C  
HETATM    4  H   UNL     3     -11.093   7.562  71.074  1.00  0.00     0.000 HD 
HETATM    5  H   UNL     2      -8.187  17.287  68.516  1.00  0.00     0.000 HD 
HETATM    6  O   UNL     2      -7.985  18.139  68.148  1.00  0.00    -0.265 OA 
HETATM    7  O   UNL     3     -11.532   8.375  70.851  1.00  0.00    -0.268 OA 
ENDROOT
BRANCH   2   8
HETATM    8  C   UNL     2      -7.725  19.367  66.142  1.00  0.00    -0.303 C  
HETATM    9  H   UNL     2      -6.674  20.141  64.652  1.00  0.00     0.000 HD 
HETATM   10  O   UNL     2      -6.876  19.289  65.021  1.00  0.00    -0.446 OA 
ENDBRANCH   2   8
BRANCH   2  11
HETATM   11  C   UNL     2      -9.472  17.403  66.361  1.00  0.00    -0.261 C  
HETATM   12  H   UNL     2     -11.062  17.968  65.335  1.00  0.00     0.000 HD 
HETATM   13  O   UNL     2     -10.208  18.317  65.563  1.00  0.00    -0.530 OA 
BRANCH  11  14
HETATM   14  C   UNL     2      -9.472  16.033  65.605  1.00  0.00    -0.140 C  
HETATM   15  H   UNL     2     -10.594  15.184  64.294  1.00  0.00     0.000 HD 
HETATM   16  O   UNL     2     -10.593  16.015  64.754  1.00  0.00    -0.600 OA 
BRANCH  14  17
HETATM   17  C   UNL     2      -9.528  14.775  66.503  1.00  0.00    -0.293 C  
HETATM   18  C   UNL     2     -10.636  14.878  67.536  1.00  0.00    -0.266 C  
HETATM   19  H   UNL     2      -8.334  13.852  67.720  1.00  0.00     0.000 HD 
HETATM   20  O   UNL     2      -8.300  14.624  67.169  1.00  0.00    -0.200 OA 
HETATM   21  O   UNL     2     -10.862  13.857  68.379  1.00  0.00    -0.240 OA 
HETATM   22  O   UNL     2     -11.389  15.851  67.574  1.00  0.00    -0.235 OA 
ENDBRANCH  14  17
ENDBRANCH  11  14
ENDBRANCH   2  11
BRANCH   3  23
HETATM   23  C   UNL     3      -9.837   8.464  69.171  1.00  0.00    -0.183 C  
HETATM   24  O   UNL     3      -9.562   9.426  68.178  1.00  0.00    -0.140 OA 
HETATM   25  H   UNL     3      -9.119   8.941  67.492  1.00  0.00     0.000 HD 
BRANCH  23  26
HETATM   26  C   UNL     3      -8.540   7.536  69.240  1.00  0.00    -0.136 C  
HETATM   27  O   UNL     3      -7.466   8.444  69.230  1.00  0.00    -0.080 OA 
HETATM   28  H   UNL     3      -6.694   7.892  69.271  1.00  0.00     0.000 HD 
BRANCH  26  29
HETATM   29  C   UNL     3      -8.104   6.417  68.175  1.00  0.00    -0.113 C  
HETATM   30  C   UNL     3      -8.935   5.179  67.986  1.00  0.00    -0.110 C  
HETATM   31  O   UNL     3      -6.800   5.942  68.437  1.00  0.00    -0.061 OA 
HETATM   32  O   UNL     3      -9.058   4.283  68.982  1.00  0.00    -0.110 OA 
HETATM   33  O   UNL     3      -9.371   4.906  66.878  1.00  0.00    -0.121 OA 
HETATM   34  H   UNL     3      -6.542   5.279  67.806  1.00  0.00     0.000 HD 
ENDBRANCH  26  29
ENDBRANCH  23  26
ENDBRANCH   3  23
BRANCH   3  35
HETATM   35  C   UNL     3     -11.298  10.612  69.944  1.00  0.00    -0.313 C  
HETATM   36  O   UNL     3     -12.149  10.474  68.845  1.00  0.00    -0.697 OA 
HETATM   37  H   UNL     3     -12.588  11.287  68.622  1.00  0.00     0.000 HD 
ENDBRANCH   3  35
TORSDOF 8
ENDMDL
MODEL      251
REMARK 921   NORMALIZED FREE ENERGY PREDICTED BY IDOCK:   -3.80 KCAL/MOL
REMARK 922        TOTAL FREE ENERGY PREDICTED BY IDOCK:   -7.26 KCAL/MOL
REMARK 923 INTER-LIGAND FREE ENERGY PREDICTED BY IDOCK:   -5.83 KCAL/MOL
REMARK 924 INTRA-LIGAND FREE ENERGY PREDICTED BY IDOCK:   -1.43 KCAL/MOL
REMARK 927      BINDING AFFINITY PREDICTED BY RF-SCORE:    0.00 PKD
ROOT
HETATM    1 MN   UNL     1      -8.096   6.830  69.968  1.00  0.00    -0.101 Mn 
HETATM    2  C   UNL     2     -11.034  11.553  64.572  1.00  0.00    -0.302 C  
HETATM    3  C   UNL     3      -7.708   6.994  72.521  1.00  0.00    -0.093 C  
HETATM    4  H   UNL     3      -6.992   6.104  74.091  1.00  0.00     0.000 HD 
HETATM    5  H   UNL     2      -9.335  10.806  65.039  1.00  0.00     0.000 HD 
HETATM    6  O   UNL     2      -9.668  11.289  64.291  1.00  0.00    -0.237 OA 
HETATM    7  O   UNL     3      -7.044   6.998  73.774  1.00  0.00    -0.073 OA 
ENDROOT
BRANCH   2   8
HETATM    8  C   UNL     2     -11.575  12.336  63.359  1.00  0.00    -0.447 C  
HETATM    9  H   UNL     2     -13.291  12.633  62.416  1.00  0.00     0.000 HD 
HETATM   10  O   UNL     2     -12.958  12.150  63.163  1.00  0.00    -0.659 OA 
ENDBRANCH   2   8
BRANCH   2  11
HETATM   11  C   UNL     2     -11.131  12.302  65.960  1.00  0.00    -0.309 C  
HETATM   12  H   UNL     2     -12.461  13.363  66.962  1.00  0.00     0.000 HD 
HETATM   13  O   UNL     2     -12.401  12.913  66.128  1.00  0.00    -0.495 OA 
BRANCH  11  14
HETATM   14  C   UNL     2     -10.873  11.427  67.230  1.00  0.00    -0.263 C  
HETATM   15  H   UNL     2     -10.822   9.545  67.619  1.00  0.00     0.000 HD 
HETATM   16  O   UNL     2     -10.978  10.076  66.848  1.00  0.00    -0.144 OA 
BRANCH  14  17
HETATM   17  C   UNL     2     -11.838  11.670  68.415  1.00  0.00    -0.278 C  
HETATM   18  C   UNL     2     -11.421  12.880  69.232  1.00  0.00    -0.282 C  
HETATM   19  H   UNL     2     -12.435  10.689  69.977  1.00  0.00     0.000 HD 
HETATM   20  O   UNL     2     -11.843  10.540  69.250  1.00  0.00    -0.247 OA 
HETATM   21  O   UNL     2     -12.167  13.270  70.279  1.00  0.00    -0.340 OA 
HETATM   22  O   UNL     2     -10.450  13.565  68.913  1.00  0.00    -0.212 OA 
ENDBRANCH  14  17
ENDBRANCH  11  14
ENDBRANCH   2  11
BRANCH   3  23
HETATM   23  C   UNL     3      -9.048   6.189  72.757  1.00  0.00    -0.128 C  
HETATM   24  O   UNL     3      -9.823   6.445  71.609  1.00  0.00    -0.168 OA 
HETATM   25  H   UNL     3     -10.628   5.961  71.751  1.00  0.00     0.000 HD 
BRANCH  23  26
HETATM   26  C   UNL     3      -9.275   4.644  73.093  1.00  0.00    -0.118 C  
HETATM   27  O   UNL     3      -8.700   4.481  74.365  1.00  0.00    -0.105 OA 
HETATM   28  H   UNL     3      -8.834   3.562  74.565  1.00  0.00     0.000 HD 
BRANCH  26  29
HETATM   29  C   UNL     3      -8.721   3.390  72.258  1.00  0.00    -0.087 C  
HETATM   30  C   UNL     3      -7.743   3.593  71.135  1.00  0.00    -0.051 C  
HETATM   31  O   UNL     3      -9.778   2.646  71.690  1.00  0.00    -0.143 OA 
HETATM   32  O   UNL     3      -8.110   4.258  70.025  1.00  0.00    -0.058 OA 
HETATM   33  O   UNL     3      -6.664   3.021  71.161  1.00  0.00    -0.030 OA 
HETATM   34  H   UNL     3      -9.449   1.904  71.196  1.00  0.00     0.000 HD 
ENDBRANCH  26  29
ENDBRANCH  23  26
ENDBRANCH   3  23
BRANCH   3  35
HETATM   35  C   UNL     3      -7.795   8.469  71.998  1.00  0.00    -0.099 C  
HETATM   36  O   UNL     3      -9.021   9.069  72.296  1.00  0.00    -0.360 OA 
HETATM   37  H   UNL     3      -9.074   9.963  71.978  1.00  0.00     0.000 HD 
ENDBRANCH   3  35
TORSDOF 8
ENDMDL
MODEL      252
REMARK 921   NORMALIZED FREE ENERGY PREDICTED BY IDOCK:   -3.80 KCAL/MOL
REMARK 922        TOTAL FREE ENERGY PREDICTED BY IDOCK:   -7.25 KCAL/MOL
REMARK 923 INTER-LIGAND FREE ENERGY PREDICTED BY IDOCK:   -7.15 KCAL/MOL
REMARK 924 INTRA-LIGAND FREE ENERGY PREDICTED BY IDOCK:   -0.10 KCAL/MOL
REMARK 927      BINDING AFFINITY PREDICTED BY RF-SCORE:    0.00 PKD
ROOT
HETATM    1 MN   UNL     1      -8.609  13.301  67.014  1.00  0.00    -0.161 Mn 
HETATM    2  C   UNL     2      -8.458   6.634  70.961  1.00  0.00    -0.129 C  
HETATM    3  C   UNL     3     -10.442  14.655  65.789  1.00  0.00    -0.325 C  
HETATM    4  H   UNL     3     -10.820  16.225  64.710  1.00  0.00     0.000 HD 
HETATM    5  H   UNL     2      -7.785   7.326  69.309  1.00  0.00     0.000 HD 
HETATM    6  O   UNL     2      -7.638   6.531  69.808  1.00  0.00    -0.092 OA 
HETATM    7  O   UNL     3     -11.137  15.330  64.754  1.00  0.00    -0.407 OA 
ENDROOT
BRANCH   2   8
HETATM    8  C   UNL     2      -8.218   5.344  71.771  1.00  0.00    -0.119 C  
HETATM    9  H   UNL     2      -7.568   3.495  71.482  1.00  0.00     0.000 HD 
HETATM   10  O   UNL     2      -7.716   4.290  70.983  1.00  0.00    -0.063 OA 
ENDBRANCH   2   8
BRANCH   2  11
HETATM   11  C   UNL     2      -9.950   6.878  70.503  1.00  0.00    -0.183 C  
HETATM   12  H   UNL     2     -11.339   5.931  69.469  1.00  0.00     0.000 HD 
HETATM   13  O   UNL     2     -10.442   5.784  69.744  1.00  0.00    -0.236 OA 
BRANCH  11  14
HETATM   14  C   UNL     2     -10.983   7.143  71.647  1.00  0.00    -0.228 C  
HETATM   15  H   UNL     2     -12.557   6.263  72.312  1.00  0.00     0.000 HD 
HETATM   16  O   UNL     2     -11.929   6.102  71.617  1.00  0.00    -0.268 OA 
BRANCH  14  17
HETATM   17  C   UNL     2     -11.743   8.488  71.561  1.00  0.00    -0.297 C  
HETATM   18  C   UNL     2     -13.247   8.278  71.552  1.00  0.00    -0.287 C  
HETATM   19  H   UNL     2     -11.837   9.984  70.331  1.00  0.00     0.000 HD 
HETATM   20  O   UNL     2     -11.371   9.158  70.384  1.00  0.00    -0.255 OA 
HETATM   21  O   UNL     2     -14.071   9.339  71.524  1.00  0.00    -0.277 OA 
HETATM   22  O   UNL     2     -13.737   7.153  71.645  1.00  0.00    -0.376 OA 
ENDBRANCH  14  17
ENDBRANCH  11  14
ENDBRANCH   2  11
BRANCH   3  23
HETATM   23  C   UNL     3     -10.585  15.578  67.064  1.00  0.00    -0.311 C  
HETATM   24  O   UNL     3      -9.555  15.155  67.927  1.00  0.00    -0.201 OA 
HETATM   25  H   UNL     3      -9.642  15.709  68.693  1.00  0.00     0.000 HD 
BRANCH  23  26
HETATM   26  C   UNL     3     -10.618  17.170  67.184  1.00  0.00    -0.244 C  
HETATM   27  O   UNL     3     -10.021  17.617  65.992  1.00  0.00    -0.469 OA 
HETATM   28  H   UNL     3     -10.040  18.564  66.063  1.00  0.00     0.000 HD 
BRANCH  26  29
HETATM   29  C   UNL     3      -9.917  18.061  68.320  1.00  0.00    -0.371 C  
HETATM   30  C   UNL     3      -9.866  19.558  68.193  1.00  0.00    -0.407 C  
HETATM   31  O   UNL     3      -8.576  17.668  68.524  1.00  0.00    -0.279 OA 
HETATM   32  O   UNL     3      -9.156  20.133  67.206  1.00  0.00    -0.338 OA 
HETATM   33  O   UNL     3     -10.339  20.257  69.076  1.00  0.00    -0.294 OA 
HETATM   34  H   UNL     3      -8.161  18.196  69.197  1.00  0.00     0.000 HD 
ENDBRANCH  26  29
ENDBRANCH  23  26
ENDBRANCH   3  23
BRANCH   3  35
HETATM   35  C   UNL     3     -10.965  13.179  65.861  1.00  0.00    -0.271 C  
HETATM   36  O   UNL     3     -10.045  12.262  65.347  1.00  0.00    -0.265 OA 
HETATM   37  H   UNL     3     -10.362  11.367  65.391  1.00  0.00     0.000 HD 
ENDBRANCH   3  35
TORSDOF 8
ENDMDL
MODEL      253
REMARK 921   NORMALIZED FREE ENERGY PREDICTED BY IDOCK:   -3.76 KCAL/MOL
REMARK 922        TOTAL FREE ENERGY PREDICTED BY IDOCK:   -7.20 KCAL/MOL
REMARK 923 INTER-LIGAND FREE ENERGY PREDICTED BY IDOCK:   -6.57 KCAL/MOL
REMARK 924 INTRA-LIGAND FREE ENERGY PREDICTED BY IDOCK:   -0.62 KCAL/MOL
REMARK 927      BINDING AFFINITY PREDICTED BY RF-SCORE:    0.00 PKD
ROOT
HETATM    1 MN   UNL     1      -9.379  17.266  69.069  1.00  0.00    -0.233 Mn 
HETATM    2  C   UNL     2      -8.929   9.747  67.250  1.00  0.00    -0.135 C  
HETATM    3  C   UNL     3      -8.258  19.427  68.192  1.00  0.00    -0.324 C  
HETATM    4  H   UNL     3      -8.085  21.346  68.422  1.00  0.00     0.000 HD 
HETATM    5  H   UNL     2      -8.450  10.890  68.707  1.00  0.00     0.000 HD 
HETATM    6  O   UNL     2      -8.482   9.949  68.581  1.00  0.00    -0.108 OA 
HETATM    7  O   UNL     3      -7.511  20.631  68.174  1.00  0.00    -0.144 OA 
ENDROOT
BRANCH   2   8
HETATM    8  C   UNL     2      -8.981   8.219  67.045  1.00  0.00    -0.140 C  
HETATM    9  H   UNL     2      -9.504   6.593  68.047  1.00  0.00     0.000 HD 
HETATM   10  O   UNL     2      -9.472   7.534  68.173  1.00  0.00    -0.143 OA 
ENDBRANCH   2   8
BRANCH   2  11
HETATM   11  C   UNL     2      -7.969  10.529  66.268  1.00  0.00    -0.144 C  
HETATM   12  H   UNL     2      -6.028  10.744  65.976  1.00  0.00     0.000 HD 
HETATM   13  O   UNL     2      -6.605  10.274  66.567  1.00  0.00    -0.075 OA 
BRANCH  11  14
HETATM   14  C   UNL     2      -8.165  10.239  64.743  1.00  0.00    -0.163 C  
HETATM   15  H   UNL     2      -9.657   9.846  63.596  1.00  0.00     0.000 HD 
HETATM   16  O   UNL     2      -9.538  10.022  64.522  1.00  0.00    -0.293 OA 
BRANCH  14  17
HETATM   17  C   UNL     2      -7.388   9.021  64.190  1.00  0.00    -0.103 C  
HETATM   18  C   UNL     2      -6.214   9.455  63.330  1.00  0.00    -0.093 C  
HETATM   19  H   UNL     2      -7.775   7.485  63.073  1.00  0.00     0.000 HD 
HETATM   20  O   UNL     2      -8.252   8.233  63.413  1.00  0.00    -0.155 OA 
HETATM   21  O   UNL     2      -5.397   8.530  62.798  1.00  0.00    -0.068 OA 
HETATM   22  O   UNL     2      -5.943  10.644  63.167  1.00  0.00    -0.137 OA 
ENDBRANCH  14  17
ENDBRANCH  11  14
ENDBRANCH   2  11
BRANCH   3  23
HETATM   23  C   UNL     3      -9.541  19.713  67.314  1.00  0.00    -0.346 C  
HETATM   24  O   UNL     3      -9.436  21.074  66.966  1.00  0.00    -0.688 OA 
HETATM   25  H   UNL     3     -10.208  21.246  66.438  1.00  0.00     0.000 HD 
BRANCH  23  26
HETATM   26  C   UNL     3     -10.077  18.975  66.004  1.00  0.00    -0.347 C  
HETATM   27  O   UNL     3     -11.097  19.818  65.527  1.00  0.00    -0.340 OA 
HETATM   28  H   UNL     3     -11.416  19.379  64.748  1.00  0.00     0.000 HD 
BRANCH  26  29
HETATM   29  C   UNL     3     -10.726  17.509  65.926  1.00  0.00    -0.119 C  
HETATM   30  C   UNL     3      -9.950  16.306  66.383  1.00  0.00    -0.300 C  
HETATM   31  O   UNL     3     -11.135  17.199  64.611  1.00  0.00    -1.036 OA 
HETATM   32  O   UNL     3      -8.838  15.924  65.729  1.00  0.00    -0.252 OA 
HETATM   33  O   UNL     3     -10.412  15.582  67.251  1.00  0.00    -0.268 OA 
HETATM   34  H   UNL     3     -11.519  16.331  64.565  1.00  0.00     0.000 HD 
ENDBRANCH  26  29
ENDBRANCH  23  26
ENDBRANCH   3  23
BRANCH   3  35
HETATM   35  C   UNL     3      -7.311  18.246  67.782  1.00  0.00    -0.216 C  
HETATM   36  O   UNL     3      -6.980  18.274  66.425  1.00  0.00    -0.203 OA 
HETATM   37  H   UNL     3      -6.406  17.559  66.177  1.00  0.00     0.000 HD 
ENDBRANCH   3  35
TORSDOF 8
ENDMDL
MODEL      254
REMARK 921   NORMALIZED FREE ENERGY PREDICTED BY IDOCK:   -3.76 KCAL/MOL
REMARK 922        TOTAL FREE ENERGY PREDICTED BY IDOCK:   -7.19 KCAL/MOL
REMARK 923 INTER-LIGAND FREE ENERGY PREDICTED BY IDOCK:   -5.56 KCAL/MOL
REMARK 924 INTRA-LIGAND FREE ENERGY PREDICTED BY IDOCK:   -1.63 KCAL/MOL
REMARK 927      BINDING AFFINITY PREDICTED BY RF-SCORE:    0.00 PKD
ROOT
HETATM    1 MN   UNL     1      -8.936  10.820  66.852  1.00  0.00    -0.132 Mn 
HETATM    2  C   UNL     2      -6.730  18.246  67.051  1.00  0.00    -0.185 C  
HETATM    3  C   UNL     3      -8.770   8.822  68.488  1.00  0.00    -0.135 C  
HETATM    4  H   UNL     3      -9.127   6.931  68.745  1.00  0.00     0.000 HD 
HETATM    5  H   UNL     2      -6.265  16.647  66.108  1.00  0.00     0.000 HD 
HETATM    6  O   UNL     2      -6.045  17.566  66.011  1.00  0.00    -0.207 OA 
HETATM    7  O   UNL     3      -8.447   7.542  69.004  1.00  0.00    -0.131 OA 
ENDROOT
BRANCH   2   8
HETATM    8  C   UNL     2      -6.373  19.737  66.894  1.00  0.00    -0.186 C  
HETATM    9  H   UNL     2      -7.203  21.413  66.242  1.00  0.00     0.000 HD 
HETATM   10  O   UNL     2      -7.423  20.494  66.339  1.00  0.00    -0.233 OA 
ENDBRANCH   2   8
BRANCH   2  11
HETATM   11  C   UNL     2      -6.327  17.596  68.434  1.00  0.00    -0.187 C  
HETATM   12  H   UNL     2      -6.132  18.158  70.316  1.00  0.00     0.000 HD 
HETATM   13  O   UNL     2      -6.374  18.548  69.485  1.00  0.00    -0.268 OA 
BRANCH  11  14
HETATM   14  C   UNL     2      -7.184  16.369  68.890  1.00  0.00    -0.203 C  
HETATM   15  H   UNL     2      -6.828  14.541  69.366  1.00  0.00     0.000 HD 
HETATM   16  O   UNL     2      -6.308  15.286  69.089  1.00  0.00    -0.109 OA 
BRANCH  14  17
HETATM   17  C   UNL     2      -8.288  15.922  67.902  1.00  0.00    -0.153 C  
HETATM   18  C   UNL     2      -9.532  15.451  68.635  1.00  0.00    -0.205 C  
HETATM   19  H   UNL     2      -8.480  14.594  66.502  1.00  0.00     0.000 HD 
HETATM   20  O   UNL     2      -7.803  14.869  67.109  1.00  0.00    -0.200 OA 
HETATM   21  O   UNL     2     -10.613  15.063  67.937  1.00  0.00    -0.251 OA 
HETATM   22  O   UNL     2      -9.604  15.485  69.863  1.00  0.00    -0.275 OA 
ENDBRANCH  14  17
ENDBRANCH  11  14
ENDBRANCH   2  11
BRANCH   3  23
HETATM   23  C   UNL     3     -10.258   9.098  68.946  1.00  0.00    -0.207 C  
HETATM   24  O   UNL     3     -11.047   8.706  67.847  1.00  0.00    -0.481 OA 
HETATM   25  H   UNL     3     -11.940   8.873  68.123  1.00  0.00     0.000 HD 
BRANCH  23  26
HETATM   26  C   UNL     3     -11.046   8.596  70.241  1.00  0.00    -0.217 C  
HETATM   27  O   UNL     3     -10.035   8.374  71.194  1.00  0.00    -0.178 OA 
HETATM   28  H   UNL     3     -10.504   8.075  71.964  1.00  0.00     0.000 HD 
BRANCH  26  29
HETATM   29  C   UNL     3     -11.970   7.288  70.353  1.00  0.00    -0.083 C  
HETATM   30  C   UNL     3     -12.470   6.821  71.692  1.00  0.00    -0.351 C  
HETATM   31  O   UNL     3     -11.335   6.161  69.789  1.00  0.00    -0.411 OA 
HETATM   32  O   UNL     3     -11.607   6.376  72.623  1.00  0.00    -0.243 OA 
HETATM   33  O   UNL     3     -13.670   6.696  71.879  1.00  0.00    -0.172 OA 
HETATM   34  H   UNL     3     -11.882   5.388  69.856  1.00  0.00     0.000 HD 
ENDBRANCH  26  29
ENDBRANCH  23  26
ENDBRANCH   3  23
BRANCH   3  35
HETATM   35  C   UNL     3      -7.648   9.830  68.915  1.00  0.00    -0.081 C  
HETATM   36  O   UNL     3      -6.933  10.326  67.822  1.00  0.00    -0.081 OA 
HETATM   37  H   UNL     3      -6.253  10.937  68.081  1.00  0.00     0.000 HD 
ENDBRANCH   3  35
TORSDOF 8
ENDMDL
MODEL      255
REMARK 921   NORMALIZED FREE ENERGY PREDICTED BY IDOCK:   -3.75 KCAL/MOL
REMARK 922        TOTAL FREE ENERGY PREDICTED BY IDOCK:   -7.18 KCAL/MOL
REMARK 923 INTER-LIGAND FREE ENERGY PREDICTED BY IDOCK:   -6.32 KCAL/MOL
REMARK 924 INTRA-LIGAND FREE ENERGY PREDICTED BY IDOCK:   -0.86 KCAL/MOL
REMARK 927      BINDING AFFINITY PREDICTED BY RF-SCORE:    0.00 PKD
ROOT
HETATM    1 MN   UNL     1     -11.117   9.778  68.191  1.00  0.00    -0.210 Mn 
HETATM    2  C   UNL     2      -9.591  17.372  67.938  1.00  0.00    -0.267 C  
HETATM    3  C   UNL     3     -10.084   7.671  67.100  1.00  0.00    -0.253 C  
HETATM    4  H   UNL     3     -10.223   5.746  66.891  1.00  0.00     0.000 HD 
HETATM    5  H   UNL     2     -10.968  16.176  67.359  1.00  0.00     0.000 HD 
HETATM    6  O   UNL     2     -10.883  17.121  67.410  1.00  0.00    -0.284 OA 
HETATM    7  O   UNL     3      -9.971   6.479  66.341  1.00  0.00    -0.129 OA 
ENDROOT
BRANCH   2   8
HETATM    8  C   UNL     2      -9.454  18.905  68.020  1.00  0.00    -0.317 C  
HETATM    9  H   UNL     2     -10.454  20.527  67.479  1.00  0.00     0.000 HD 
HETATM   10  O   UNL     2     -10.538  19.582  67.428  1.00  0.00    -0.445 OA 
ENDBRANCH   2   8
BRANCH   2  11
HETATM   11  C   UNL     2      -8.522  16.644  67.031  1.00  0.00    -0.198 C  
HETATM   12  H   UNL     2      -7.677  16.904  65.265  1.00  0.00     0.000 HD 
HETATM   13  O   UNL     2      -8.321  17.341  65.810  1.00  0.00    -0.535 OA 
BRANCH  11  14
HETATM   14  C   UNL     2      -7.111  16.429  67.672  1.00  0.00    -0.135 C  
HETATM   15  H   UNL     2      -5.305  16.324  67.023  1.00  0.00     0.000 HD 
HETATM   16  O   UNL     2      -6.162  16.455  66.634  1.00  0.00    -0.303 OA 
BRANCH  14  17
HETATM   17  C   UNL     2      -6.930  15.110  68.459  1.00  0.00    -0.105 C  
HETATM   18  C   UNL     2      -6.233  15.347  69.788  1.00  0.00    -0.157 C  
HETATM   19  H   UNL     2      -6.050  13.405  68.180  1.00  0.00     0.000 HD 
HETATM   20  O   UNL     2      -6.161  14.215  67.697  1.00  0.00    -0.268 OA 
HETATM   21  O   UNL     2      -6.028  14.319  70.628  1.00  0.00    -0.172 OA 
HETATM   22  O   UNL     2      -5.915  16.478  70.152  1.00  0.00    -0.205 OA 
ENDBRANCH  14  17
ENDBRANCH  11  14
ENDBRANCH   2  11
BRANCH   3  23
HETATM   23  C   UNL     3      -9.273   7.403  68.430  1.00  0.00    -0.138 C  
HETATM   24  O   UNL     3      -8.500   6.259  68.150  1.00  0.00    -0.114 OA 
HETATM   25  H   UNL     3      -8.013   6.098  68.950  1.00  0.00     0.000 HD 
BRANCH  23  26
HETATM   26  C   UNL     3      -8.319   8.372  69.267  1.00  0.00    -0.121 C  
HETATM   27  O   UNL     3      -7.299   7.526  69.739  1.00  0.00    -0.078 OA 
HETATM   28  H   UNL     3      -6.731   8.102  70.237  1.00  0.00     0.000 HD 
BRANCH  26  29
HETATM   29  C   UNL     3      -8.723   9.239  70.555  1.00  0.00    -0.236 C  
HETATM   30  C   UNL     3      -9.124   8.561  71.836  1.00  0.00    -0.244 C  
HETATM   31  O   UNL     3      -9.784  10.124  70.264  1.00  0.00    -0.399 OA 
HETATM   32  O   UNL     3     -10.248   7.825  71.892  1.00  0.00    -0.191 OA 
HETATM   33  O   UNL     3      -8.516   8.806  72.866  1.00  0.00    -0.409 OA 
HETATM   34  H   UNL     3     -10.024  10.637  71.028  1.00  0.00     0.000 HD 
ENDBRANCH  26  29
ENDBRANCH  23  26
ENDBRANCH   3  23
BRANCH   3  35
HETATM   35  C   UNL     3      -9.669   8.881  66.193  1.00  0.00    -0.268 C  
HETATM   36  O   UNL     3     -10.566   9.948  66.284  1.00  0.00    -0.140 OA 
HETATM   37  H   UNL     3     -10.314  10.681  65.734  1.00  0.00     0.000 HD 
ENDBRANCH   3  35
TORSDOF 8
ENDMDL
MODEL      256
REMARK 921   NORMALIZED FREE ENERGY PREDICTED BY IDOCK:   -3.75 KCAL/MOL
REMARK 922        TOTAL FREE ENERGY PREDICTED BY IDOCK:   -7.17 KCAL/MOL
REMARK 923 INTER-LIGAND FREE ENERGY PREDICTED BY IDOCK:   -6.24 KCAL/MOL
REMARK 924 INTRA-LIGAND FREE ENERGY PREDICTED BY IDOCK:   -0.93 KCAL/MOL
REMARK 927      BINDING AFFINITY PREDICTED BY RF-SCORE:    0.00 PKD
ROOT
HETATM    1 MN   UNL     1     -10.519   9.322  71.689  1.00  0.00    -0.215 Mn 
HETATM    2  C   UNL     2     -10.925  15.391  66.888  1.00  0.00    -0.294 C  
HETATM    3  C   UNL     3     -11.700   7.023  71.830  1.00  0.00    -0.298 C  
HETATM    4  H   UNL     3     -11.892   5.383  72.850  1.00  0.00     0.000 HD 
HETATM    5  H   UNL     2     -11.371  14.979  68.703  1.00  0.00     0.000 HD 
HETATM    6  O   UNL     2     -11.330  15.779  68.192  1.00  0.00    -0.350 OA 
HETATM    7  O   UNL     3     -12.464   5.943  72.338  1.00  0.00    -0.152 OA 
ENDROOT
BRANCH   2   8
HETATM    8  C   UNL     2     -10.859  16.689  66.059  1.00  0.00    -0.041 C  
HETATM    9  H   UNL     2      -9.620  17.608  64.816  1.00  0.00     0.000 HD 
HETATM   10  O   UNL     2      -9.661  16.808  65.327  1.00  0.00    -0.387 OA 
ENDBRANCH   2   8
BRANCH   2  11
HETATM   11  C   UNL     2     -11.928  14.295  66.350  1.00  0.00    -0.419 C  
HETATM   12  H   UNL     2     -12.710  13.745  64.623  1.00  0.00     0.000 HD 
HETATM   13  O   UNL     2     -12.108  14.405  64.947  1.00  0.00    -0.401 OA 
BRANCH  11  14
HETATM   14  C   UNL     2     -11.542  12.809  66.647  1.00  0.00    -0.370 C  
HETATM   15  H   UNL     2     -11.755  11.599  68.126  1.00  0.00     0.000 HD 
HETATM   16  O   UNL     2     -11.989  12.502  67.946  1.00  0.00    -0.351 OA 
BRANCH  14  17
HETATM   17  C   UNL     2     -10.031  12.483  66.568  1.00  0.00    -0.244 C  
HETATM   18  C   UNL     2      -9.756  11.360  65.583  1.00  0.00    -0.231 C  
HETATM   19  H   UNL     2      -8.645  11.896  67.789  1.00  0.00     0.000 HD 
HETATM   20  O   UNL     2      -9.572  12.096  67.837  1.00  0.00    -0.185 OA 
HETATM   21  O   UNL     2      -8.492  10.969  65.351  1.00  0.00    -0.138 OA 
HETATM   22  O   UNL     2     -10.662  10.843  64.930  1.00  0.00    -0.276 OA 
ENDBRANCH  14  17
ENDBRANCH  11  14
ENDBRANCH   2  11
BRANCH   3  23
HETATM   23  C   UNL     3     -10.450   6.360  71.123  1.00  0.00    -0.221 C  
HETATM   24  O   UNL     3     -11.000   5.602  70.070  1.00  0.00    -0.328 OA 
HETATM   25  H   UNL     3     -10.249   5.204  69.646  1.00  0.00     0.000 HD 
BRANCH  23  26
HETATM   26  C   UNL     3      -9.131   7.031  70.525  1.00  0.00    -0.156 C  
HETATM   27  O   UNL     3      -9.548   7.579  69.299  1.00  0.00    -0.158 OA 
HETATM   28  H   UNL     3      -8.763   7.978  68.944  1.00  0.00     0.000 HD 
BRANCH  26  29
HETATM   29  C   UNL     3      -7.756   6.286  70.162  1.00  0.00    -0.098 C  
HETATM   30  C   UNL     3      -7.393   4.988  70.828  1.00  0.00    -0.065 C  
HETATM   31  O   UNL     3      -6.644   7.129  70.378  1.00  0.00    -0.045 OA 
HETATM   32  O   UNL     3      -7.146   4.947  72.150  1.00  0.00    -0.069 OA 
HETATM   33  O   UNL     3      -7.167   4.000  70.146  1.00  0.00    -0.041 OA 
HETATM   34  H   UNL     3      -5.831   6.687  70.163  1.00  0.00     0.000 HD 
ENDBRANCH  26  29
ENDBRANCH  23  26
ENDBRANCH   3  23
BRANCH   3  35
HETATM   35  C   UNL     3     -12.643   7.947  70.985  1.00  0.00    -0.091 C  
HETATM   36  O   UNL     3     -13.928   7.415  70.848  1.00  0.00    -0.619 OA 
HETATM   37  H   UNL     3     -14.500   7.975  70.336  1.00  0.00     0.000 HD 
ENDBRANCH   3  35
TORSDOF 8
ENDMDL
MODEL      257
REMARK 921   NORMALIZED FREE ENERGY PREDICTED BY IDOCK:   -3.74 KCAL/MOL
REMARK 922        TOTAL FREE ENERGY PREDICTED BY IDOCK:   -7.16 KCAL/MOL
REMARK 923 INTER-LIGAND FREE ENERGY PREDICTED BY IDOCK:   -7.31 KCAL/MOL
REMARK 924 INTRA-LIGAND FREE ENERGY PREDICTED BY IDOCK:    0.15 KCAL/MOL
REMARK 927      BINDING AFFINITY PREDICTED BY RF-SCORE:    0.00 PKD
ROOT
HETATM    1 MN   UNL     1     -10.112   9.506  72.106  1.00  0.00    -0.307 Mn 
HETATM    2  C   UNL     2     -10.091  15.594  67.312  1.00  0.00    -0.255 C  
HETATM    3  C   UNL     3     -11.135   7.130  72.034  1.00  0.00    -0.245 C  
HETATM    4  H   UNL     3     -11.388   5.467  73.004  1.00  0.00     0.000 HD 
HETATM    5  H   UNL     2     -10.819  15.129  69.019  1.00  0.00     0.000 HD 
HETATM    6  O   UNL     2     -10.745  15.936  68.524  1.00  0.00    -0.249 OA 
HETATM    7  O   UNL     3     -11.899   5.993  72.399  1.00  0.00    -0.310 OA 
ENDROOT
BRANCH   2   8
HETATM    8  C   UNL     2      -9.970  16.904  66.508  1.00  0.00    -0.301 C  
HETATM    9  H   UNL     2      -8.649  18.345  66.185  1.00  0.00     0.000 HD 
HETATM   10  O   UNL     2      -8.724  17.538  66.681  1.00  0.00    -0.243 OA 
ENDBRANCH   2   8
BRANCH   2  11
HETATM   11  C   UNL     2     -10.903  14.439  66.605  1.00  0.00    -0.304 C  
HETATM   12  H   UNL     2     -12.741  13.718  66.621  1.00  0.00     0.000 HD 
HETATM   13  O   UNL     2     -12.252  14.412  67.046  1.00  0.00    -0.400 OA 
BRANCH  11  14
HETATM   14  C   UNL     2     -10.934  14.480  65.042  1.00  0.00    -0.398 C  
HETATM   15  H   UNL     2     -11.131  15.847  63.704  1.00  0.00     0.000 HD 
HETATM   16  O   UNL     2     -11.112  15.821  64.653  1.00  0.00    -0.445 OA 
BRANCH  14  17
HETATM   17  C   UNL     2     -12.043  13.633  64.373  1.00  0.00    -0.427 C  
HETATM   18  C   UNL     2     -11.470  12.393  63.709  1.00  0.00    -0.467 C  
HETATM   19  H   UNL     2     -13.378  13.887  62.991  1.00  0.00     0.000 HD 
HETATM   20  O   UNL     2     -12.697  14.407  63.401  1.00  0.00    -0.689 OA 
HETATM   21  O   UNL     2     -12.292  11.513  63.112  1.00  0.00    -0.299 OA 
HETATM   22  O   UNL     2     -10.269  12.131  63.767  1.00  0.00    -0.374 OA 
ENDBRANCH  14  17
ENDBRANCH  11  14
ENDBRANCH   2  11
BRANCH   3  23
HETATM   23  C   UNL     3      -9.737   6.563  71.558  1.00  0.00    -0.168 C  
HETATM   24  O   UNL     3      -9.277   5.795  72.646  1.00  0.00    -0.138 OA 
HETATM   25  H   UNL     3      -8.437   5.455  72.359  1.00  0.00     0.000 HD 
BRANCH  23  26
HETATM   26  C   UNL     3      -9.356   5.729  70.251  1.00  0.00    -0.156 C  
HETATM   27  O   UNL     3      -9.965   4.478  70.453  1.00  0.00    -0.222 OA 
HETATM   28  H   UNL     3      -9.738   3.981  69.676  1.00  0.00     0.000 HD 
BRANCH  26  29
HETATM   29  C   UNL     3      -7.878   5.358  69.747  1.00  0.00    -0.081 C  
HETATM   30  C   UNL     3      -6.823   4.926  70.727  1.00  0.00    -0.040 C  
HETATM   31  O   UNL     3      -7.296   6.430  69.035  1.00  0.00    -0.084 OA 
HETATM   32  O   UNL     3      -6.366   5.785  71.656  1.00  0.00    -0.044 OA 
HETATM   33  O   UNL     3      -6.268   3.849  70.582  1.00  0.00    -0.018 OA 
HETATM   34  H   UNL     3      -6.421   6.210  68.737  1.00  0.00     0.000 HD 
ENDBRANCH  26  29
ENDBRANCH  23  26
ENDBRANCH   3  23
BRANCH   3  35
HETATM   35  C   UNL     3     -11.977   7.998  71.037  1.00  0.00    -0.245 C  
HETATM   36  O   UNL     3     -11.193   8.562  70.027  1.00  0.00    -0.396 OA 
HETATM   37  H   UNL     3     -11.704   9.088  69.423  1.00  0.00     0.000 HD 
ENDBRANCH   3  35
TORSDOF 8
ENDMDL
MODEL      258
REMARK 921   NORMALIZED FREE ENERGY PREDICTED BY IDOCK:   -3.73 KCAL/MOL
REMARK 922        TOTAL FREE ENERGY PREDICTED BY IDOCK:   -7.16 KCAL/MOL
REMARK 923 INTER-LIGAND FREE ENERGY PREDICTED BY IDOCK:   -6.21 KCAL/MOL
REMARK 924 INTRA-LIGAND FREE ENERGY PREDICTED BY IDOCK:   -0.94 KCAL/MOL
REMARK 927      BINDING AFFINITY PREDICTED BY RF-SCORE:    0.00 PKD
ROOT
HETATM    1 MN   UNL     1      -7.476  14.765  68.705  1.00  0.00    -0.097 Mn 
HETATM    2  C   UNL     2      -7.049   8.201  72.802  1.00  0.00    -0.098 C  
HETATM    3  C   UNL     3      -9.117  15.713  66.943  1.00  0.00    -0.236 C  
HETATM    4  H   UNL     3      -9.492  17.186  65.736  1.00  0.00     0.000 HD 
HETATM    5  H   UNL     2      -6.087   9.063  71.390  1.00  0.00     0.000 HD 
HETATM    6  O   UNL     2      -5.924   8.308  71.944  1.00  0.00    -0.037 OA 
HETATM    7  O   UNL     3      -9.606  16.243  65.723  1.00  0.00    -0.422 OA 
ENDROOT
BRANCH   2   8
HETATM    8  C   UNL     2      -6.784   6.976  73.701  1.00  0.00    -0.070 C  
HETATM    9  H   UNL     2      -5.331   6.228  74.819  1.00  0.00     0.000 HD 
HETATM   10  O   UNL     2      -5.494   6.982  74.265  1.00  0.00    -0.050 OA 
ENDBRANCH   2   8
BRANCH   2  11
HETATM   11  C   UNL     2      -8.356   8.122  71.919  1.00  0.00    -0.144 C  
HETATM   12  H   UNL     2      -9.096   9.002  70.314  1.00  0.00     0.000 HD 
HETATM   13  O   UNL     2      -8.310   9.049  70.845  1.00  0.00    -0.167 OA 
BRANCH  11  14
HETATM   14  C   UNL     2      -8.683   6.723  71.301  1.00  0.00    -0.128 C  
HETATM   15  H   UNL     2      -7.983   5.654  69.866  1.00  0.00     0.000 HD 
HETATM   16  O   UNL     2      -7.784   6.503  70.241  1.00  0.00    -0.094 OA 
BRANCH  14  17
HETATM   17  C   UNL     2     -10.122   6.553  70.758  1.00  0.00    -0.185 C  
HETATM   18  C   UNL     2     -11.141   6.525  71.883  1.00  0.00    -0.261 C  
HETATM   19  H   UNL     2     -11.091   5.246  69.704  1.00  0.00     0.000 HD 
HETATM   20  O   UNL     2     -10.208   5.350  70.038  1.00  0.00    -0.231 OA 
HETATM   21  O   UNL     2     -12.451   6.426  71.597  1.00  0.00    -0.285 OA 
HETATM   22  O   UNL     2     -10.804   6.667  73.058  1.00  0.00    -0.249 OA 
ENDBRANCH  14  17
ENDBRANCH  11  14
ENDBRANCH   2  11
BRANCH   3  23
HETATM   23  C   UNL     3      -9.825  16.551  68.081  1.00  0.00    -0.244 C  
HETATM   24  O   UNL     3     -10.897  17.195  67.433  1.00  0.00    -0.284 OA 
HETATM   25  H   UNL     3     -11.322  17.698  68.117  1.00  0.00     0.000 HD 
BRANCH  23  26
HETATM   26  C   UNL     3     -10.397  16.085  69.497  1.00  0.00    -0.278 C  
HETATM   27  O   UNL     3      -9.547  15.032  69.882  1.00  0.00    -0.455 OA 
HETATM   28  H   UNL     3      -9.887  14.755  70.724  1.00  0.00     0.000 HD 
BRANCH  26  29
HETATM   29  C   UNL     3     -11.868  15.516  69.797  1.00  0.00    -0.359 C  
HETATM   30  C   UNL     3     -12.060  14.347  70.722  1.00  0.00    -0.338 C  
HETATM   31  O   UNL     3     -12.528  15.149  68.605  1.00  0.00    -0.560 OA 
HETATM   32  O   UNL     3     -11.583  13.133  70.392  1.00  0.00    -0.127 OA 
HETATM   33  O   UNL     3     -12.784  14.460  71.699  1.00  0.00    -0.313 OA 
HETATM   34  H   UNL     3     -13.399  14.813  68.783  1.00  0.00     0.000 HD 
ENDBRANCH  26  29
ENDBRANCH  23  26
ENDBRANCH   3  23
BRANCH   3  35
HETATM   35  C   UNL     3      -9.305  14.157  66.921  1.00  0.00    -0.264 C  
HETATM   36  O   UNL     3     -10.430  13.746  67.642  1.00  0.00    -0.239 OA 
HETATM   37  H   UNL     3     -10.544  12.803  67.629  1.00  0.00     0.000 HD 
ENDBRANCH   3  35
TORSDOF 8
ENDMDL
MODEL      259
REMARK 921   NORMALIZED FREE ENERGY PREDICTED BY IDOCK:   -3.71 KCAL/MOL
REMARK 922        TOTAL FREE ENERGY PREDICTED BY IDOCK:   -7.12 KCAL/MOL
REMARK 923 INTER-LIGAND FREE ENERGY PREDICTED BY IDOCK:   -7.20 KCAL/MOL
REMARK 924 INTRA-LIGAND FREE ENERGY PREDICTED BY IDOCK:    0.08 KCAL/MOL
REMARK 927      BINDING AFFINITY PREDICTED BY RF-SCORE:    0.00 PKD
ROOT
HETATM    1 MN   UNL     1     -10.143   9.846  71.435  1.00  0.00    -0.263 Mn 
HETATM    2  C   UNL     2      -8.438  16.288  67.479  1.00  0.00    -0.169 C  
HETATM    3  C   UNL     3     -12.127   8.185  71.451  1.00  0.00    -0.297 C  
HETATM    4  H   UNL     3     -12.884   6.604  72.285  1.00  0.00     0.000 HD 
HETATM    5  H   UNL     2      -8.882  15.795  69.273  1.00  0.00     0.000 HD 
HETATM    6  O   UNL     2      -8.562  16.588  68.860  1.00  0.00    -0.238 OA 
HETATM    7  O   UNL     3     -13.220   7.415  71.921  1.00  0.00    -0.311 OA 
ENDROOT
BRANCH   2   8
HETATM    8  C   UNL     2      -7.919  17.575  66.807  1.00  0.00    -0.241 C  
HETATM    9  H   UNL     2      -6.861  19.183  67.275  1.00  0.00     0.000 HD 
HETATM   10  O   UNL     2      -7.181  18.390  67.688  1.00  0.00    -0.211 OA 
ENDBRANCH   2   8
BRANCH   2  11
HETATM   11  C   UNL     2      -9.829  15.760  66.946  1.00  0.00    -0.236 C  
HETATM   12  H   UNL     2     -11.427  16.492  66.048  1.00  0.00     0.000 HD 
HETATM   13  O   UNL     2     -10.591  16.809  66.368  1.00  0.00    -0.281 OA 
BRANCH  11  14
HETATM   14  C   UNL     2      -9.766  14.606  65.893  1.00  0.00    -0.310 C  
HETATM   15  H   UNL     2     -10.614  14.231  64.209  1.00  0.00     0.000 HD 
HETATM   16  O   UNL     2     -10.652  14.932  64.849  1.00  0.00    -0.414 OA 
BRANCH  14  17
HETATM   17  C   UNL     2     -10.139  13.200  66.421  1.00  0.00    -0.281 C  
HETATM   18  C   UNL     2     -11.617  13.106  66.755  1.00  0.00    -0.366 C  
HETATM   19  H   UNL     2      -9.622  12.063  67.903  1.00  0.00     0.000 HD 
HETATM   20  O   UNL     2      -9.394  12.926  67.579  1.00  0.00    -0.178 OA 
HETATM   21  O   UNL     2     -12.133  11.944  67.189  1.00  0.00    -0.590 OA 
HETATM   22  O   UNL     2     -12.379  14.055  66.568  1.00  0.00    -0.457 OA 
ENDBRANCH  14  17
ENDBRANCH  11  14
ENDBRANCH   2  11
BRANCH   3  23
HETATM   23  C   UNL     3     -11.298   7.216  70.517  1.00  0.00    -0.297 C  
HETATM   24  O   UNL     3     -11.398   7.788  69.233  1.00  0.00    -0.421 OA 
HETATM   25  H   UNL     3     -10.900   7.205  68.672  1.00  0.00     0.000 HD 
BRANCH  23  26
HETATM   26  C   UNL     3      -9.791   6.706  70.643  1.00  0.00    -0.183 C  
HETATM   27  O   UNL     3      -9.295   6.769  69.328  1.00  0.00    -0.144 OA 
HETATM   28  H   UNL     3      -8.398   6.465  69.403  1.00  0.00     0.000 HD 
BRANCH  26  29
HETATM   29  C   UNL     3      -9.305   5.268  71.165  1.00  0.00    -0.151 C  
HETATM   30  C   UNL     3      -9.866   4.687  72.433  1.00  0.00    -0.163 C  
HETATM   31  O   UNL     3      -7.904   5.233  71.338  1.00  0.00    -0.102 OA 
HETATM   32  O   UNL     3      -9.623   5.277  73.618  1.00  0.00    -0.136 OA 
HETATM   33  O   UNL     3     -10.411   3.595  72.409  1.00  0.00    -0.164 OA 
HETATM   34  H   UNL     3      -7.617   4.381  71.648  1.00  0.00     0.000 HD 
ENDBRANCH  26  29
ENDBRANCH  23  26
ENDBRANCH   3  23
BRANCH   3  35
HETATM   35  C   UNL     3     -12.682   9.522  70.849  1.00  0.00    -0.159 C  
HETATM   36  O   UNL     3     -12.990  10.463  71.835  1.00  0.00    -0.438 OA 
HETATM   37  H   UNL     3     -13.326  11.274  71.470  1.00  0.00     0.000 HD 
ENDBRANCH   3  35
TORSDOF 8
ENDMDL
MODEL      260
REMARK 921   NORMALIZED FREE ENERGY PREDICTED BY IDOCK:   -3.68 KCAL/MOL
REMARK 922        TOTAL FREE ENERGY PREDICTED BY IDOCK:   -7.08 KCAL/MOL
REMARK 923 INTER-LIGAND FREE ENERGY PREDICTED BY IDOCK:   -6.55 KCAL/MOL
REMARK 924 INTRA-LIGAND FREE ENERGY PREDICTED BY IDOCK:   -0.52 KCAL/MOL
REMARK 927      BINDING AFFINITY PREDICTED BY RF-SCORE:    0.00 PKD
ROOT
HETATM    1 MN   UNL     1     -10.287  10.205  69.526  1.00  0.00    -0.163 Mn 
HETATM    2  C   UNL     2      -9.234  17.686  67.797  1.00  0.00    -0.251 C  
HETATM    3  C   UNL     3     -10.424   8.016  68.152  1.00  0.00    -0.167 C  
HETATM    4  H   UNL     3     -10.719   6.099  68.223  1.00  0.00     0.000 HD 
HETATM    5  H   UNL     2     -10.630  16.563  68.468  1.00  0.00     0.000 HD 
HETATM    6  O   UNL     2     -10.512  17.502  68.386  1.00  0.00    -0.360 OA 
HETATM    7  O   UNL     3     -10.928   6.803  67.620  1.00  0.00    -0.273 OA 
ENDROOT
BRANCH   2   8
HETATM    8  C   UNL     2      -9.042  19.210  67.664  1.00  0.00    -0.297 C  
HETATM    9  H   UNL     2      -8.683  20.779  68.818  1.00  0.00     0.000 HD 
HETATM   10  O   UNL     2      -8.802  19.840  68.900  1.00  0.00    -0.259 OA 
ENDBRANCH   2   8
BRANCH   2  11
HETATM   11  C   UNL     2      -9.177  16.875  66.442  1.00  0.00    -0.279 C  
HETATM   12  H   UNL     2      -7.850  15.846  65.404  1.00  0.00     0.000 HD 
HETATM   13  O   UNL     2      -7.885  16.334  66.219  1.00  0.00    -0.269 OA 
BRANCH  11  14
HETATM   14  C   UNL     2     -10.197  15.696  66.306  1.00  0.00    -0.299 C  
HETATM   15  H   UNL     2     -10.102  13.847  65.791  1.00  0.00     0.000 HD 
HETATM   16  O   UNL     2      -9.483  14.563  65.874  1.00  0.00    -0.274 OA 
BRANCH  14  17
HETATM   17  C   UNL     2     -11.366  15.935  65.322  1.00  0.00    -0.049 C  
HETATM   18  C   UNL     2     -11.808  14.642  64.659  1.00  0.00    -0.452 C  
HETATM   19  H   UNL     2     -11.676  16.986  63.722  1.00  0.00     0.000 HD 
HETATM   20  O   UNL     2     -10.959  16.839  64.327  1.00  0.00    -0.933 OA 
HETATM   21  O   UNL     2     -12.843  14.649  63.803  1.00  0.00    -0.677 OA 
HETATM   22  O   UNL     2     -11.287  13.565  64.945  1.00  0.00    -0.315 OA 
ENDBRANCH  14  17
ENDBRANCH  11  14
ENDBRANCH   2  11
BRANCH   3  23
HETATM   23  C   UNL     3      -8.907   7.730  68.494  1.00  0.00    -0.130 C  
HETATM   24  O   UNL     3      -8.919   7.318  69.841  1.00  0.00    -0.142 OA 
HETATM   25  H   UNL     3      -8.007   7.146  70.046  1.00  0.00     0.000 HD 
BRANCH  23  26
HETATM   26  C   UNL     3      -7.850   6.782  67.765  1.00  0.00    -0.113 C  
HETATM   27  O   UNL     3      -8.342   6.663  66.453  1.00  0.00    -0.112 OA 
HETATM   28  H   UNL     3      -7.714   6.099  66.019  1.00  0.00     0.000 HD 
BRANCH  26  29
HETATM   29  C   UNL     3      -7.473   5.275  68.170  1.00  0.00    -0.076 C  
HETATM   30  C   UNL     3      -8.553   4.258  68.413  1.00  0.00    -0.094 C  
HETATM   31  O   UNL     3      -6.674   5.242  69.333  1.00  0.00    -0.048 OA 
HETATM   32  O   UNL     3      -9.399   4.398  69.449  1.00  0.00    -0.125 OA 
HETATM   33  O   UNL     3      -8.566   3.222  67.766  1.00  0.00    -0.088 OA 
HETATM   34  H   UNL     3      -6.452   4.349  69.572  1.00  0.00     0.000 HD 
ENDBRANCH  26  29
ENDBRANCH  23  26
ENDBRANCH   3  23
BRANCH   3  35
HETATM   35  C   UNL     3     -10.768   9.178  67.157  1.00  0.00    -0.143 C  
HETATM   36  O   UNL     3      -9.754  10.137  67.087  1.00  0.00    -0.164 OA 
HETATM   37  H   UNL     3      -9.963  10.841  66.483  1.00  0.00     0.000 HD 
ENDBRANCH   3  35
TORSDOF 8
ENDMDL
MODEL      261
REMARK 921   NORMALIZED FREE ENERGY PREDICTED BY IDOCK:   -3.68 KCAL/MOL
REMARK 922        TOTAL FREE ENERGY PREDICTED BY IDOCK:   -7.08 KCAL/MOL
REMARK 923 INTER-LIGAND FREE ENERGY PREDICTED BY IDOCK:   -5.63 KCAL/MOL
REMARK 924 INTRA-LIGAND FREE ENERGY PREDICTED BY IDOCK:   -1.44 KCAL/MOL
REMARK 927      BINDING AFFINITY PREDICTED BY RF-SCORE:    0.00 PKD
ROOT
HETATM    1 MN   UNL     1      -8.046  14.494  70.007  1.00  0.00    -0.346 Mn 
HETATM    2  C   UNL     2      -9.192   7.616  73.388  1.00  0.00    -0.255 C  
HETATM    3  C   UNL     3      -6.705  15.318  67.953  1.00  0.00    -0.151 C  
HETATM    4  H   UNL     3      -6.167  16.863  66.908  1.00  0.00     0.000 HD 
HETATM    5  H   UNL     2      -8.310   9.268  73.783  1.00  0.00     0.000 HD 
HETATM    6  O   UNL     2      -8.525   8.490  74.285  1.00  0.00    -0.193 OA 
HETATM    7  O   UNL     3      -5.770  16.040  67.171  1.00  0.00    -0.323 OA 
ENDROOT
BRANCH   2   8
HETATM    8  C   UNL     2      -9.540   6.354  74.202  1.00  0.00    -0.225 C  
HETATM    9  H   UNL     2     -11.016   5.044  74.372  1.00  0.00     0.000 HD 
HETATM   10  O   UNL     2     -10.802   5.822  73.870  1.00  0.00    -0.230 OA 
ENDBRANCH   2   8
BRANCH   2  11
HETATM   11  C   UNL     2      -8.266   7.376  72.130  1.00  0.00    -0.098 C  
HETATM   12  H   UNL     2      -6.365   6.989  71.762  1.00  0.00     0.000 HD 
HETATM   13  O   UNL     2      -6.922   7.133  72.518  1.00  0.00    -0.067 OA 
BRANCH  11  14
HETATM   14  C   UNL     2      -8.687   6.206  71.182  1.00  0.00    -0.132 C  
HETATM   15  H   UNL     2      -8.041   4.433  70.812  1.00  0.00     0.000 HD 
HETATM   16  O   UNL     2      -7.786   5.144  71.388  1.00  0.00    -0.098 OA 
BRANCH  14  17
HETATM   17  C   UNL     2      -8.701   6.542  69.672  1.00  0.00    -0.139 C  
HETATM   18  C   UNL     2      -9.572   5.571  68.895  1.00  0.00    -0.136 C  
HETATM   19  H   UNL     2      -7.399   6.684  68.243  1.00  0.00     0.000 HD 
HETATM   20  O   UNL     2      -7.391   6.478  69.170  1.00  0.00    -0.088 OA 
HETATM   21  O   UNL     2      -9.738   5.733  67.571  1.00  0.00    -0.112 OA 
HETATM   22  O   UNL     2     -10.196   4.674  69.461  1.00  0.00    -0.203 OA 
ENDBRANCH  14  17
ENDBRANCH  11  14
ENDBRANCH   2  11
BRANCH   3  23
HETATM   23  C   UNL     3      -8.034  15.283  67.096  1.00  0.00    -0.218 C  
HETATM   24  O   UNL     3      -9.052  15.013  68.031  1.00  0.00    -0.174 OA 
HETATM   25  H   UNL     3      -9.850  14.993  67.516  1.00  0.00     0.000 HD 
BRANCH  23  26
HETATM   26  C   UNL     3      -8.644  16.371  66.100  1.00  0.00    -0.308 C  
HETATM   27  O   UNL     3      -7.749  17.453  66.183  1.00  0.00    -0.342 OA 
HETATM   28  H   UNL     3      -8.112  18.101  65.590  1.00  0.00     0.000 HD 
BRANCH  26  29
HETATM   29  C   UNL     3     -10.089  17.062  66.201  1.00  0.00    -0.319 C  
HETATM   30  C   UNL     3     -10.400  18.021  67.316  1.00  0.00    -0.378 C  
HETATM   31  O   UNL     3     -11.116  16.094  66.258  1.00  0.00    -0.103 OA 
HETATM   32  O   UNL     3     -10.437  17.594  68.591  1.00  0.00    -0.356 OA 
HETATM   33  O   UNL     3     -10.772  19.154  67.053  1.00  0.00    -0.442 OA 
HETATM   34  H   UNL     3     -11.971  16.504  66.318  1.00  0.00     0.000 HD 
ENDBRANCH  26  29
ENDBRANCH  23  26
ENDBRANCH   3  23
BRANCH   3  35
HETATM   35  C   UNL     3      -6.050  13.961  68.386  1.00  0.00    -0.099 C  
HETATM   36  O   UNL     3      -6.989  13.047  68.871  1.00  0.00    -0.098 OA 
HETATM   37  H   UNL     3      -6.592  12.224  69.133  1.00  0.00     0.000 HD 
ENDBRANCH   3  35
TORSDOF 8
ENDMDL
MODEL      262
REMARK 921   NORMALIZED FREE ENERGY PREDICTED BY IDOCK:   -3.67 KCAL/MOL
REMARK 922        TOTAL FREE ENERGY PREDICTED BY IDOCK:   -7.06 KCAL/MOL
REMARK 923 INTER-LIGAND FREE ENERGY PREDICTED BY IDOCK:   -5.81 KCAL/MOL
REMARK 924 INTRA-LIGAND FREE ENERGY PREDICTED BY IDOCK:   -1.25 KCAL/MOL
REMARK 927      BINDING AFFINITY PREDICTED BY RF-SCORE:    0.00 PKD
ROOT
HETATM    1 MN   UNL     1     -12.025  11.141  65.905  1.00  0.00    -0.129 Mn 
HETATM    2  C   UNL     2      -9.848   3.916  64.138  1.00  0.00    -0.181 C  
HETATM    3  C   UNL     3     -11.530  12.772  67.852  1.00  0.00    -0.317 C  
HETATM    4  H   UNL     3     -11.914  14.515  68.615  1.00  0.00     0.000 HD 
HETATM    5  H   UNL     2     -11.443   4.835  64.663  1.00  0.00     0.000 HD 
HETATM    6  O   UNL     2     -11.252   3.962  64.340  1.00  0.00    -0.328 OA 
HETATM    7  O   UNL     3     -11.738  13.643  68.950  1.00  0.00    -0.291 OA 
ENDROOT
BRANCH   2   8
HETATM    8  C   UNL     2      -9.538   2.500  63.614  1.00  0.00    -0.114 C  
HETATM    9  H   UNL     2      -8.367   1.623  62.279  1.00  0.00     0.000 HD 
HETATM   10  O   UNL     2      -8.558   2.496  62.602  1.00  0.00    -0.074 OA 
ENDBRANCH   2   8
BRANCH   2  11
HETATM   11  C   UNL     2      -9.129   4.310  65.489  1.00  0.00    -0.138 C  
HETATM   12  H   UNL     2      -7.735   3.572  66.677  1.00  0.00     0.000 HD 
HETATM   13  O   UNL     2      -8.168   3.335  65.865  1.00  0.00    -0.092 OA 
BRANCH  11  14
HETATM   14  C   UNL     2      -8.404   5.696  65.500  1.00  0.00    -0.139 C  
HETATM   15  H   UNL     2      -6.638   6.322  65.931  1.00  0.00     0.000 HD 
HETATM   16  O   UNL     2      -7.079   5.481  65.923  1.00  0.00    -0.065 OA 
BRANCH  14  17
HETATM   17  C   UNL     2      -9.034   6.772  66.416  1.00  0.00    -0.149 C  
HETATM   18  C   UNL     2      -8.936   8.155  65.797  1.00  0.00    -0.119 C  
HETATM   19  H   UNL     2      -8.754   7.440  68.214  1.00  0.00     0.000 HD 
HETATM   20  O   UNL     2      -8.367   6.780  67.652  1.00  0.00    -0.121 OA 
HETATM   21  O   UNL     2      -9.470   9.212  66.432  1.00  0.00    -0.189 OA 
HETATM   22  O   UNL     2      -8.441   8.326  64.683  1.00  0.00    -0.143 OA 
ENDBRANCH  14  17
ENDBRANCH  11  14
ENDBRANCH   2  11
BRANCH   3  23
HETATM   23  C   UNL     3     -10.435  13.479  66.955  1.00  0.00    -0.265 C  
HETATM   24  O   UNL     3     -11.046  13.619  65.694  1.00  0.00    -0.293 OA 
HETATM   25  H   UNL     3     -10.388  14.044  65.156  1.00  0.00     0.000 HD 
BRANCH  23  26
HETATM   26  C   UNL     3      -9.628  14.835  67.195  1.00  0.00    -0.227 C  
HETATM   27  O   UNL     3      -9.055  15.120  65.943  1.00  0.00    -0.458 OA 
HETATM   28  H   UNL     3      -8.574  15.927  66.085  1.00  0.00     0.000 HD 
BRANCH  26  29
HETATM   29  C   UNL     3      -8.422  15.064  68.229  1.00  0.00    -0.147 C  
HETATM   30  C   UNL     3      -7.142  14.288  68.091  1.00  0.00    -0.126 C  
HETATM   31  O   UNL     3      -8.839  14.844  69.559  1.00  0.00    -0.411 OA 
HETATM   32  O   UNL     3      -7.132  12.955  68.268  1.00  0.00    -0.083 OA 
HETATM   33  O   UNL     3      -6.083  14.885  67.975  1.00  0.00    -0.129 OA 
HETATM   34  H   UNL     3      -8.125  14.979  70.171  1.00  0.00     0.000 HD 
ENDBRANCH  26  29
ENDBRANCH  23  26
ENDBRANCH   3  23
BRANCH   3  35
HETATM   35  C   UNL     3     -11.241  11.334  68.404  1.00  0.00    -0.262 C  
HETATM   36  O   UNL     3     -12.411  10.605  68.632  1.00  0.00    -0.820 OA 
HETATM   37  H   UNL     3     -12.236   9.733  68.967  1.00  0.00     0.000 HD 
ENDBRANCH   3  35
TORSDOF 8
ENDMDL
MODEL      263
REMARK 921   NORMALIZED FREE ENERGY PREDICTED BY IDOCK:   -3.67 KCAL/MOL
REMARK 922        TOTAL FREE ENERGY PREDICTED BY IDOCK:   -7.06 KCAL/MOL
REMARK 923 INTER-LIGAND FREE ENERGY PREDICTED BY IDOCK:   -6.77 KCAL/MOL
REMARK 924 INTRA-LIGAND FREE ENERGY PREDICTED BY IDOCK:   -0.29 KCAL/MOL
REMARK 927      BINDING AFFINITY PREDICTED BY RF-SCORE:    0.00 PKD
ROOT
HETATM    1 MN   UNL     1      -9.280  14.864  69.467  1.00  0.00    -0.173 Mn 
HETATM    2  C   UNL     2     -10.306   7.511  67.247  1.00  0.00    -0.296 C  
HETATM    3  C   UNL     3      -7.357  16.583  69.255  1.00  0.00    -0.201 C  
HETATM    4  H   UNL     3      -6.753  18.372  69.708  1.00  0.00     0.000 HD 
HETATM    5  H   UNL     2     -10.104   8.490  68.878  1.00  0.00     0.000 HD 
HETATM    6  O   UNL     2     -10.348   7.598  68.662  1.00  0.00    -0.197 OA 
HETATM    7  O   UNL     3      -6.353  17.515  69.618  1.00  0.00    -0.248 OA 
ENDROOT
BRANCH   2   8
HETATM    8  C   UNL     2     -10.703   6.063  66.897  1.00  0.00    -0.334 C  
HETATM    9  H   UNL     2     -10.508   4.237  67.641  1.00  0.00     0.000 HD 
HETATM   10  O   UNL     2     -10.263   5.130  67.856  1.00  0.00    -0.165 OA 
ENDBRANCH   2   8
BRANCH   2  11
HETATM   11  C   UNL     2      -8.874   7.958  66.752  1.00  0.00    -0.138 C  
HETATM   12  H   UNL     2      -6.994   7.740  67.316  1.00  0.00     0.000 HD 
HETATM   13  O   UNL     2      -7.856   7.471  67.613  1.00  0.00    -0.109 OA 
BRANCH  11  14
HETATM   14  C   UNL     2      -8.487   7.531  65.298  1.00  0.00    -0.063 C  
HETATM   15  H   UNL     2      -7.055   6.535  64.491  1.00  0.00     0.000 HD 
HETATM   16  O   UNL     2      -7.290   6.794  65.374  1.00  0.00    -0.074 OA 
BRANCH  14  17
HETATM   17  C   UNL     2      -8.277   8.691  64.296  1.00  0.00    -0.158 C  
HETATM   18  C   UNL     2      -6.930   9.364  64.499  1.00  0.00    -0.097 C  
HETATM   19  H   UNL     2      -9.163  10.358  63.856  1.00  0.00     0.000 HD 
HETATM   20  O   UNL     2      -9.291   9.646  64.471  1.00  0.00    -0.261 OA 
HETATM   21  O   UNL     2      -6.555  10.369  63.689  1.00  0.00    -0.118 OA 
HETATM   22  O   UNL     2      -6.133   8.962  65.346  1.00  0.00    -0.054 OA 
ENDBRANCH  14  17
ENDBRANCH  11  14
ENDBRANCH   2  11
BRANCH   3  23
HETATM   23  C   UNL     3      -8.088  17.217  68.004  1.00  0.00    -0.221 C  
HETATM   24  O   UNL     3      -7.249  18.274  67.600  1.00  0.00    -0.206 OA 
HETATM   25  H   UNL     3      -7.688  18.655  66.849  1.00  0.00     0.000 HD 
BRANCH  23  26
HETATM   26  C   UNL     3      -8.598  16.534  66.654  1.00  0.00    -0.254 C  
HETATM   27  O   UNL     3      -8.583  17.579  65.713  1.00  0.00    -0.521 OA 
HETATM   28  H   UNL     3      -8.886  17.172  64.910  1.00  0.00     0.000 HD 
BRANCH  26  29
HETATM   29  C   UNL     3     -10.017  15.824  66.415  1.00  0.00    -0.277 C  
HETATM   30  C   UNL     3     -10.670  15.861  65.061  1.00  0.00    -0.404 C  
HETATM   31  O   UNL     3     -10.995  16.321  67.304  1.00  0.00    -0.264 OA 
HETATM   32  O   UNL     3     -11.088  17.029  64.539  1.00  0.00    -1.098 OA 
HETATM   33  O   UNL     3     -10.964  14.816  64.502  1.00  0.00    -0.327 OA 
HETATM   34  H   UNL     3     -11.835  15.901  67.161  1.00  0.00     0.000 HD 
ENDBRANCH  26  29
ENDBRANCH  23  26
ENDBRANCH   3  23
BRANCH   3  35
HETATM   35  C   UNL     3      -6.697  15.169  69.107  1.00  0.00    -0.130 C  
HETATM   36  O   UNL     3      -6.975  14.335  70.192  1.00  0.00    -0.388 OA 
HETATM   37  H   UNL     3      -6.575  13.477  70.102  1.00  0.00     0.000 HD 
ENDBRANCH   3  35
TORSDOF 8
ENDMDL
MODEL      264
REMARK 921   NORMALIZED FREE ENERGY PREDICTED BY IDOCK:   -3.67 KCAL/MOL
REMARK 922        TOTAL FREE ENERGY PREDICTED BY IDOCK:   -7.06 KCAL/MOL
REMARK 923 INTER-LIGAND FREE ENERGY PREDICTED BY IDOCK:   -6.61 KCAL/MOL
REMARK 924 INTRA-LIGAND FREE ENERGY PREDICTED BY IDOCK:   -0.44 KCAL/MOL
REMARK 927      BINDING AFFINITY PREDICTED BY RF-SCORE:    0.00 PKD
ROOT
HETATM    1 MN   UNL     1      -9.565  13.931  66.057  1.00  0.00    -0.239 Mn 
HETATM    2  C   UNL     2     -11.414   8.914  71.667  1.00  0.00    -0.339 C  
HETATM    3  C   UNL     3     -10.848  15.754  64.743  1.00  0.00    -0.344 C  
HETATM    4  H   UNL     3     -10.745  17.074  63.324  1.00  0.00     0.000 HD 
HETATM    5  H   UNL     2     -10.933   8.866  69.815  1.00  0.00     0.000 HD 
HETATM    6  O   UNL     2     -11.034   8.210  70.495  1.00  0.00    -0.239 OA 
HETATM    7  O   UNL     3     -11.404  16.475  63.657  1.00  0.00    -0.730 OA 
ENDROOT
BRANCH   2   8
HETATM    8  C   UNL     2     -11.579   7.850  72.769  1.00  0.00    -0.329 C  
HETATM    9  H   UNL     2     -10.508   7.008  74.208  1.00  0.00     0.000 HD 
HETATM   10  O   UNL     2     -10.407   7.664  73.528  1.00  0.00    -0.336 OA 
ENDBRANCH   2   8
BRANCH   2  11
HETATM   11  C   UNL     2     -12.706   9.767  71.350  1.00  0.00    -0.387 C  
HETATM   12  H   UNL     2     -13.907  11.015  72.298  1.00  0.00     0.000 HD 
HETATM   13  O   UNL     2     -13.130  10.502  72.488  1.00  0.00    -0.121 OA 
BRANCH  11  14
HETATM   14  C   UNL     2     -12.583  10.784  70.168  1.00  0.00    -0.240 C  
HETATM   15  H   UNL     2     -12.429  10.661  68.256  1.00  0.00     0.000 HD 
HETATM   16  O   UNL     2     -12.503  10.044  68.974  1.00  0.00     0.442 OA 
BRANCH  14  17
HETATM   17  C   UNL     2     -11.364  11.735  70.230  1.00  0.00     0.187 C  
HETATM   18  C   UNL     2     -11.747  13.155  69.852  1.00  0.00    -0.257 C  
HETATM   19  H   UNL     2      -9.627  11.864  69.379  1.00  0.00     0.000 HD 
HETATM   20  O   UNL     2     -10.375  11.281  69.341  1.00  0.00    -0.140 OA 
HETATM   21  O   UNL     2     -10.823  14.130  69.890  1.00  0.00    -0.051 OA 
HETATM   22  O   UNL     2     -12.909  13.455  69.582  1.00  0.00     0.178 OA 
ENDBRANCH  14  17
ENDBRANCH  11  14
ENDBRANCH   2  11
BRANCH   3  23
HETATM   23  C   UNL     3     -10.252  16.848  65.716  1.00  0.00    -0.268 C  
HETATM   24  O   UNL     3     -10.903  18.042  65.348  1.00  0.00    -0.547 OA 
HETATM   25  H   UNL     3     -10.544  18.700  65.933  1.00  0.00     0.000 HD 
BRANCH  23  26
HETATM   26  C   UNL     3     -10.174  16.875  67.310  1.00  0.00    -0.297 C  
HETATM   27  O   UNL     3     -11.421  16.373  67.723  1.00  0.00    -0.127 OA 
HETATM   28  H   UNL     3     -11.375  16.389  68.672  1.00  0.00     0.000 HD 
BRANCH  26  29
HETATM   29  C   UNL     3      -9.956  18.166  68.238  1.00  0.00    -0.369 C  
HETATM   30  C   UNL     3      -8.575  18.714  68.471  1.00  0.00    -0.340 C  
HETATM   31  O   UNL     3     -10.489  17.964  69.530  1.00  0.00    -0.358 OA 
HETATM   32  O   UNL     3      -7.661  17.990  69.142  1.00  0.00    -0.183 OA 
HETATM   33  O   UNL     3      -8.330  19.876  68.190  1.00  0.00    -0.304 OA 
HETATM   34  H   UNL     3     -10.359  18.729  70.079  1.00  0.00     0.000 HD 
ENDBRANCH  26  29
ENDBRANCH  23  26
ENDBRANCH   3  23
BRANCH   3  35
HETATM   35  C   UNL     3     -11.935  14.766  65.292  1.00  0.00    -0.240 C  
HETATM   36  O   UNL     3     -12.482  13.963  64.288  1.00  0.00    -0.638 OA 
HETATM   37  H   UNL     3     -13.140  13.364  64.621  1.00  0.00     0.000 HD 
ENDBRANCH   3  35
TORSDOF 8
ENDMDL
MODEL      265
REMARK 921   NORMALIZED FREE ENERGY PREDICTED BY IDOCK:   -3.65 KCAL/MOL
REMARK 922        TOTAL FREE ENERGY PREDICTED BY IDOCK:   -7.03 KCAL/MOL
REMARK 923 INTER-LIGAND FREE ENERGY PREDICTED BY IDOCK:   -6.22 KCAL/MOL
REMARK 924 INTRA-LIGAND FREE ENERGY PREDICTED BY IDOCK:   -0.81 KCAL/MOL
REMARK 927      BINDING AFFINITY PREDICTED BY RF-SCORE:    0.00 PKD
ROOT
HETATM    1 MN   UNL     1     -11.139  14.203  66.096  1.00  0.00    -0.289 Mn 
HETATM    2  C   UNL     2      -9.793   6.712  67.553  1.00  0.00    -0.129 C  
HETATM    3  C   UNL     3     -10.640  16.421  67.332  1.00  0.00    -0.306 C  
HETATM    4  H   UNL     3     -10.863  18.349  67.310  1.00  0.00     0.000 HD 
HETATM    5  H   UNL     2     -11.294   7.892  67.438  1.00  0.00     0.000 HD 
HETATM    6  O   UNL     2     -11.190   6.950  67.503  1.00  0.00    -0.245 OA 
HETATM    7  O   UNL     3     -10.847  17.668  67.973  1.00  0.00    -0.369 OA 
ENDROOT
BRANCH   2   8
HETATM    8  C   UNL     2      -9.625   5.183  67.658  1.00  0.00    -0.140 C  
HETATM    9  H   UNL     2      -9.347   3.801  69.049  1.00  0.00     0.000 HD 
HETATM   10  O   UNL     2      -9.450   4.743  68.985  1.00  0.00    -0.125 OA 
ENDBRANCH   2   8
BRANCH   2  11
HETATM   11  C   UNL     2      -9.179   7.543  68.748  1.00  0.00    -0.145 C  
HETATM   12  H   UNL     2      -7.842   8.974  69.003  1.00  0.00     0.000 HD 
HETATM   13  O   UNL     2      -8.211   8.474  68.285  1.00  0.00    -0.120 OA 
BRANCH  11  14
HETATM   14  C   UNL     2     -10.200   8.343  69.623  1.00  0.00    -0.209 C  
HETATM   15  H   UNL     2     -10.408  10.175  70.167  1.00  0.00     0.000 HD 
HETATM   16  O   UNL     2      -9.789   9.689  69.636  1.00  0.00    -0.188 OA 
BRANCH  14  17
HETATM   17  C   UNL     2     -10.339   7.866  71.088  1.00  0.00    -0.200 C  
HETATM   18  C   UNL     2     -11.616   7.070  71.294  1.00  0.00    -0.303 C  
HETATM   19  H   UNL     2     -10.445   8.690  72.839  1.00  0.00     0.000 HD 
HETATM   20  O   UNL     2     -10.359   8.983  71.940  1.00  0.00    -0.341 OA 
HETATM   21  O   UNL     2     -11.886   6.538  72.497  1.00  0.00    -0.229 OA 
HETATM   22  O   UNL     2     -12.382   6.834  70.360  1.00  0.00    -0.275 OA 
ENDBRANCH  14  17
ENDBRANCH  11  14
ENDBRANCH   2  11
BRANCH   3  23
HETATM   23  C   UNL     3      -9.368  16.623  66.415  1.00  0.00    -0.281 C  
HETATM   24  O   UNL     3      -9.665  17.762  65.641  1.00  0.00    -0.510 OA 
HETATM   25  H   UNL     3      -8.901  17.883  65.090  1.00  0.00     0.000 HD 
BRANCH  23  26
HETATM   26  C   UNL     3      -7.827  16.764  66.810  1.00  0.00    -0.246 C  
HETATM   27  O   UNL     3      -7.201  17.162  65.616  1.00  0.00    -0.125 OA 
HETATM   28  H   UNL     3      -6.284  17.245  65.850  1.00  0.00     0.000 HD 
BRANCH  26  29
HETATM   29  C   UNL     3      -6.872  15.603  67.374  1.00  0.00    -0.197 C  
HETATM   30  C   UNL     3      -6.982  15.153  68.804  1.00  0.00    -0.111 C  
HETATM   31  O   UNL     3      -5.510  15.932  67.200  1.00  0.00    -0.334 OA 
HETATM   32  O   UNL     3      -6.671  15.992  69.808  1.00  0.00    -0.191 OA 
HETATM   33  O   UNL     3      -7.201  13.978  69.053  1.00  0.00    -0.110 OA 
HETATM   34  H   UNL     3      -4.945  15.245  67.534  1.00  0.00     0.000 HD 
ENDBRANCH  26  29
ENDBRANCH  23  26
ENDBRANCH   3  23
BRANCH   3  35
HETATM   35  C   UNL     3     -10.613  15.297  68.425  1.00  0.00    -0.246 C  
HETATM   36  O   UNL     3      -9.862  15.662  69.545  1.00  0.00    -0.260 OA 
HETATM   37  H   UNL     3      -9.846  14.980  70.208  1.00  0.00     0.000 HD 
ENDBRANCH   3  35
TORSDOF 8
ENDMDL
MODEL      266
REMARK 921   NORMALIZED FREE ENERGY PREDICTED BY IDOCK:   -3.65 KCAL/MOL
REMARK 922        TOTAL FREE ENERGY PREDICTED BY IDOCK:   -7.03 KCAL/MOL
REMARK 923 INTER-LIGAND FREE ENERGY PREDICTED BY IDOCK:   -5.93 KCAL/MOL
REMARK 924 INTRA-LIGAND FREE ENERGY PREDICTED BY IDOCK:   -1.09 KCAL/MOL
REMARK 927      BINDING AFFINITY PREDICTED BY RF-SCORE:    0.00 PKD
ROOT
HETATM    1 MN   UNL     1     -11.292   6.901  67.749  1.00  0.00    -0.256 Mn 
HETATM    2  C   UNL     2     -11.563  14.124  64.956  1.00  0.00    -0.362 C  
HETATM    3  C   UNL     3      -9.398   5.294  68.474  1.00  0.00    -0.121 C  
HETATM    4  H   UNL     3      -8.970   3.514  69.120  1.00  0.00     0.000 HD 
HETATM    5  H   UNL     2     -11.924  12.347  64.345  1.00  0.00     0.000 HD 
HETATM    6  O   UNL     2     -12.088  13.217  64.000  1.00  0.00    -0.408 OA 
HETATM    7  O   UNL     3      -8.571   4.144  68.531  1.00  0.00    -0.090 OA 
ENDROOT
BRANCH   2   8
HETATM    8  C   UNL     2     -11.829  15.535  64.395  1.00  0.00    -0.219 C  
HETATM    9  H   UNL     2     -13.319  16.575  63.608  1.00  0.00     0.000 HD 
HETATM   10  O   UNL     2     -13.155  15.706  63.953  1.00  0.00    -0.323 OA 
ENDBRANCH   2   8
BRANCH   2  11
HETATM   11  C   UNL     2     -10.044  13.772  65.209  1.00  0.00    -0.288 C  
HETATM   12  H   UNL     2      -8.427  14.668  65.904  1.00  0.00     0.000 HD 
HETATM   13  O   UNL     2      -9.341  14.879  65.751  1.00  0.00    -0.272 OA 
BRANCH  11  14
HETATM   14  C   UNL     2      -9.771  12.552  66.150  1.00  0.00    -0.254 C  
HETATM   15  H   UNL     2      -9.482  10.667  65.912  1.00  0.00     0.000 HD 
HETATM   16  O   UNL     2      -9.647  11.408  65.341  1.00  0.00    -0.220 OA 
BRANCH  14  17
HETATM   17  C   UNL     2     -10.857  12.276  67.216  1.00  0.00    -0.245 C  
HETATM   18  C   UNL     2     -10.251  11.740  68.502  1.00  0.00    -0.210 C  
HETATM   19  H   UNL     2     -12.436  11.160  67.371  1.00  0.00     0.000 HD 
HETATM   20  O   UNL     2     -11.768  11.331  66.717  1.00  0.00    -0.418 OA 
HETATM   21  O   UNL     2     -11.042  11.482  69.557  1.00  0.00    -0.244 OA 
HETATM   22  O   UNL     2      -9.035  11.606  68.630  1.00  0.00    -0.159 OA 
ENDBRANCH  14  17
ENDBRANCH  11  14
ENDBRANCH   2  11
BRANCH   3  23
HETATM   23  C   UNL     3      -9.648   5.709  69.979  1.00  0.00    -0.166 C  
HETATM   24  O   UNL     3     -10.178   7.012  69.904  1.00  0.00    -0.194 OA 
HETATM   25  H   UNL     3     -10.328   7.261  70.809  1.00  0.00     0.000 HD 
BRANCH  23  26
HETATM   26  C   UNL     3     -10.481   4.972  71.125  1.00  0.00    -0.135 C  
HETATM   27  O   UNL     3     -11.168   6.013  71.774  1.00  0.00    -0.268 OA 
HETATM   28  H   UNL     3     -11.664   5.575  72.456  1.00  0.00     0.000 HD 
BRANCH  26  29
HETATM   29  C   UNL     3      -9.886   4.096  72.331  1.00  0.00    -0.160 C  
HETATM   30  C   UNL     3     -10.478   4.194  73.709  1.00  0.00    -0.201 C  
HETATM   31  O   UNL     3      -8.507   4.342  72.510  1.00  0.00    -0.102 OA 
HETATM   32  O   UNL     3     -10.393   5.340  74.407  1.00  0.00    -0.254 OA 
HETATM   33  O   UNL     3     -10.899   3.188  74.259  1.00  0.00    -0.184 OA 
HETATM   34  H   UNL     3      -8.155   3.824  73.225  1.00  0.00     0.000 HD 
ENDBRANCH  26  29
ENDBRANCH  23  26
ENDBRANCH   3  23
BRANCH   3  35
HETATM   35  C   UNL     3      -8.740   6.334  67.503  1.00  0.00    -0.105 C  
HETATM   36  O   UNL     3      -7.348   6.222  67.466  1.00  0.00    -0.077 OA 
HETATM   37  H   UNL     3      -6.949   6.852  66.877  1.00  0.00     0.000 HD 
ENDBRANCH   3  35
TORSDOF 8
ENDMDL
MODEL      267
REMARK 921   NORMALIZED FREE ENERGY PREDICTED BY IDOCK:   -3.65 KCAL/MOL
REMARK 922        TOTAL FREE ENERGY PREDICTED BY IDOCK:   -7.03 KCAL/MOL
REMARK 923 INTER-LIGAND FREE ENERGY PREDICTED BY IDOCK:   -5.70 KCAL/MOL
REMARK 924 INTRA-LIGAND FREE ENERGY PREDICTED BY IDOCK:   -1.32 KCAL/MOL
REMARK 927      BINDING AFFINITY PREDICTED BY RF-SCORE:    0.00 PKD
ROOT
HETATM    1 MN   UNL     1      -7.823  14.299  70.463  1.00  0.00    -0.355 Mn 
HETATM    2  C   UNL     2      -8.001   6.624  69.402  1.00  0.00    -0.115 C  
HETATM    3  C   UNL     3      -7.263  16.336  68.968  1.00  0.00    -0.204 C  
HETATM    4  H   UNL     3      -7.061  18.265  68.903  1.00  0.00     0.000 HD 
HETATM    5  H   UNL     2      -6.964   7.903  70.377  1.00  0.00     0.000 HD 
HETATM    6  O   UNL     2      -7.021   6.955  70.373  1.00  0.00    -0.060 OA 
HETATM    7  O   UNL     3      -6.634  17.517  68.502  1.00  0.00    -0.183 OA 
ENDROOT
BRANCH   2   8
HETATM    8  C   UNL     2      -8.094   5.086  69.396  1.00  0.00    -0.079 C  
HETATM    9  H   UNL     2      -9.480   3.671  69.357  1.00  0.00     0.000 HD 
HETATM   10  O   UNL     2      -9.423   4.620  69.361  1.00  0.00    -0.137 OA 
ENDBRANCH   2   8
BRANCH   2  11
HETATM   11  C   UNL     2      -7.593   7.283  68.025  1.00  0.00    -0.115 C  
HETATM   12  H   UNL     2      -7.367   6.727  66.144  1.00  0.00     0.000 HD 
HETATM   13  O   UNL     2      -7.613   6.331  66.972  1.00  0.00    -0.092 OA 
BRANCH  11  14
HETATM   14  C   UNL     2      -8.463   8.496  67.561  1.00  0.00    -0.128 C  
HETATM   15  H   UNL     2      -8.199  10.027  66.428  1.00  0.00     0.000 HD 
HETATM   16  O   UNL     2      -7.671   9.290  66.710  1.00  0.00    -0.093 OA 
BRANCH  14  17
HETATM   17  C   UNL     2      -9.008   9.398  68.693  1.00  0.00    -0.132 C  
HETATM   18  C   UNL     2     -10.312  10.066  68.293  1.00  0.00    -0.193 C  
HETATM   19  H   UNL     2      -8.397  10.947  69.686  1.00  0.00     0.000 HD 
HETATM   20  O   UNL     2      -8.063  10.393  68.991  1.00  0.00    -0.118 OA 
HETATM   21  O   UNL     2     -10.957  10.856  69.169  1.00  0.00    -0.206 OA 
HETATM   22  O   UNL     2     -10.839   9.843  67.203  1.00  0.00    -0.241 OA 
ENDBRANCH  14  17
ENDBRANCH  11  14
ENDBRANCH   2  11
BRANCH   3  23
HETATM   23  C   UNL     3      -8.809  16.554  68.719  1.00  0.00    -0.255 C  
HETATM   24  O   UNL     3      -8.879  17.206  67.472  1.00  0.00    -0.213 OA 
HETATM   25  H   UNL     3      -9.808  17.337  67.323  1.00  0.00     0.000 HD 
BRANCH  23  26
HETATM   26  C   UNL     3     -10.010  15.502  68.722  1.00  0.00    -0.214 C  
HETATM   27  O   UNL     3     -10.043  15.015  67.403  1.00  0.00    -0.228 OA 
HETATM   28  H   UNL     3     -10.758  14.390  67.404  1.00  0.00     0.000 HD 
BRANCH  26  29
HETATM   29  C   UNL     3     -11.550  15.806  69.056  1.00  0.00    -0.400 C  
HETATM   30  C   UNL     3     -12.206  15.188  70.259  1.00  0.00    -0.350 C  
HETATM   31  O   UNL     3     -12.386  15.464  67.971  1.00  0.00    -0.349 OA 
HETATM   32  O   UNL     3     -12.381  13.857  70.331  1.00  0.00    -0.332 OA 
HETATM   33  O   UNL     3     -12.722  15.906  71.102  1.00  0.00    -0.465 OA 
HETATM   34  H   UNL     3     -13.298  15.644  68.169  1.00  0.00     0.000 HD 
ENDBRANCH  26  29
ENDBRANCH  23  26
ENDBRANCH   3  23
BRANCH   3  35
HETATM   35  C   UNL     3      -6.558  15.102  68.306  1.00  0.00    -0.111 C  
HETATM   36  O   UNL     3      -7.057  14.824  67.031  1.00  0.00    -0.336 OA 
HETATM   37  H   UNL     3      -6.629  14.076  66.630  1.00  0.00     0.000 HD 
ENDBRANCH   3  35
TORSDOF 8
ENDMDL
MODEL      268
REMARK 921   NORMALIZED FREE ENERGY PREDICTED BY IDOCK:   -3.64 KCAL/MOL
REMARK 922        TOTAL FREE ENERGY PREDICTED BY IDOCK:   -7.02 KCAL/MOL
REMARK 923 INTER-LIGAND FREE ENERGY PREDICTED BY IDOCK:   -5.05 KCAL/MOL
REMARK 924 INTRA-LIGAND FREE ENERGY PREDICTED BY IDOCK:   -1.97 KCAL/MOL
REMARK 927      BINDING AFFINITY PREDICTED BY RF-SCORE:    0.00 PKD
ROOT
HETATM    1 MN   UNL     1      -9.049  14.243  68.570  1.00  0.00    -0.155 Mn 
HETATM    2  C   UNL     2     -10.120   6.758  66.874  1.00  0.00    -0.202 C  
HETATM    3  C   UNL     3      -6.989  15.721  69.087  1.00  0.00    -0.174 C  
HETATM    4  H   UNL     3      -6.376  17.494  69.584  1.00  0.00     0.000 HD 
HETATM    5  H   UNL     2     -10.505   7.961  68.311  1.00  0.00     0.000 HD 
HETATM    6  O   UNL     2     -10.764   7.072  68.098  1.00  0.00    -0.210 OA 
HETATM    7  O   UNL     3      -6.115  16.601  69.773  1.00  0.00    -0.213 OA 
ENDROOT
BRANCH   2   8
HETATM    8  C   UNL     2     -10.542   5.315  66.528  1.00  0.00    -0.285 C  
HETATM    9  H   UNL     2     -10.632   3.536  67.394  1.00  0.00     0.000 HD 
HETATM   10  O   UNL     2     -10.372   4.424  67.606  1.00  0.00     0.034 OA 
ENDBRANCH   2   8
BRANCH   2  11
HETATM   11  C   UNL     2      -8.566   6.986  67.045  1.00  0.00    -0.122 C  
HETATM   12  H   UNL     2      -6.886   6.192  66.378  1.00  0.00     0.000 HD 
HETATM   13  O   UNL     2      -7.820   6.054  66.276  1.00  0.00    -0.100 OA 
BRANCH  11  14
HETATM   14  C   UNL     2      -8.038   8.411  66.674  1.00  0.00    -0.101 C  
HETATM   15  H   UNL     2      -6.335   9.170  66.207  1.00  0.00     0.000 HD 
HETATM   16  O   UNL     2      -6.656   8.305  66.432  1.00  0.00    -0.053 OA 
BRANCH  14  17
HETATM   17  C   UNL     2      -8.258   9.504  67.746  1.00  0.00    -0.114 C  
HETATM   18  C   UNL     2      -9.335  10.488  67.323  1.00  0.00    -0.146 C  
HETATM   19  H   UNL     2      -7.193  10.876  68.607  1.00  0.00     0.000 HD 
HETATM   20  O   UNL     2      -7.058  10.205  67.949  1.00  0.00    -0.083 OA 
HETATM   21  O   UNL     2      -9.693  11.485  68.150  1.00  0.00    -0.179 OA 
HETATM   22  O   UNL     2      -9.948  10.353  66.265  1.00  0.00    -0.207 OA 
ENDBRANCH  14  17
ENDBRANCH  11  14
ENDBRANCH   2  11
BRANCH   3  23
HETATM   23  C   UNL     3      -6.989  16.213  67.584  1.00  0.00    -0.151 C  
HETATM   24  O   UNL     3      -7.374  15.081  66.840  1.00  0.00    -0.284 OA 
HETATM   25  H   UNL     3      -7.374  15.377  65.937  1.00  0.00     0.000 HD 
BRANCH  23  26
HETATM   26  C   UNL     3      -7.741  17.448  66.907  1.00  0.00    -0.216 C  
HETATM   27  O   UNL     3      -7.394  18.546  67.714  1.00  0.00    -0.224 OA 
HETATM   28  H   UNL     3      -7.841  19.281  67.311  1.00  0.00     0.000 HD 
BRANCH  26  29
HETATM   29  C   UNL     3      -9.324  17.611  66.701  1.00  0.00    -0.278 C  
HETATM   30  C   UNL     3     -10.286  16.738  67.457  1.00  0.00    -0.301 C  
HETATM   31  O   UNL     3      -9.683  17.457  65.344  1.00  0.00    -0.328 OA 
HETATM   32  O   UNL     3     -10.324  15.413  67.231  1.00  0.00    -0.261 OA 
HETATM   33  O   UNL     3     -11.142  17.250  68.161  1.00  0.00    -0.292 OA 
HETATM   34  H   UNL     3     -10.620  17.553  65.222  1.00  0.00     0.000 HD 
ENDBRANCH  26  29
ENDBRANCH  23  26
ENDBRANCH   3  23
BRANCH   3  35
HETATM   35  C   UNL     3      -6.557  14.246  69.398  1.00  0.00    -0.132 C  
HETATM   36  O   UNL     3      -7.504  13.312  68.972  1.00  0.00    -0.273 OA 
HETATM   37  H   UNL     3      -7.243  12.418  69.160  1.00  0.00     0.000 HD 
ENDBRANCH   3  35
TORSDOF 8
ENDMDL
MODEL      269
REMARK 921   NORMALIZED FREE ENERGY PREDICTED BY IDOCK:   -3.64 KCAL/MOL
REMARK 922        TOTAL FREE ENERGY PREDICTED BY IDOCK:   -7.02 KCAL/MOL
REMARK 923 INTER-LIGAND FREE ENERGY PREDICTED BY IDOCK:   -5.61 KCAL/MOL
REMARK 924 INTRA-LIGAND FREE ENERGY PREDICTED BY IDOCK:   -1.41 KCAL/MOL
REMARK 927      BINDING AFFINITY PREDICTED BY RF-SCORE:    0.00 PKD
ROOT
HETATM    1 MN   UNL     1      -9.220  10.945  68.750  1.00  0.00    -0.134 Mn 
HETATM    2  C   UNL     2      -9.632  18.328  66.430  1.00  0.00    -0.305 C  
HETATM    3  C   UNL     3      -7.384   9.122  68.721  1.00  0.00    -0.075 C  
HETATM    4  H   UNL     3      -6.960   7.272  69.126  1.00  0.00     0.000 HD 
HETATM    5  H   UNL     2     -10.377  16.636  65.936  1.00  0.00     0.000 HD 
HETATM    6  O   UNL     2     -10.552  17.538  65.694  1.00  0.00    -0.549 OA 
HETATM    7  O   UNL     3      -6.721   7.898  68.453  1.00  0.00    -0.062 OA 
ENDROOT
BRANCH   2   8
HETATM    8  C   UNL     2      -9.916  19.791  66.038  1.00  0.00    -0.447 C  
HETATM    9  H   UNL     2     -11.236  20.828  64.986  1.00  0.00     0.000 HD 
HETATM   10  O   UNL     2     -11.061  19.926  65.228  1.00  0.00    -0.360 OA 
ENDBRANCH   2   8
BRANCH   2  11
HETATM   11  C   UNL     2      -8.168  17.817  66.125  1.00  0.00    -0.158 C  
HETATM   12  H   UNL     2      -6.444  18.577  65.534  1.00  0.00     0.000 HD 
HETATM   13  O   UNL     2      -7.325  18.883  65.717  1.00  0.00    -0.403 OA 
BRANCH  11  14
HETATM   14  C   UNL     2      -7.440  17.082  67.299  1.00  0.00    -0.163 C  
HETATM   15  H   UNL     2      -5.696  17.162  68.102  1.00  0.00     0.000 HD 
HETATM   16  O   UNL     2      -6.138  17.608  67.390  1.00  0.00    -0.140 OA 
BRANCH  14  17
HETATM   17  C   UNL     2      -7.333  15.545  67.159  1.00  0.00    -0.191 C  
HETATM   18  C   UNL     2      -8.284  14.833  68.105  1.00  0.00    -0.142 C  
HETATM   19  H   UNL     2      -5.952  14.200  67.365  1.00  0.00     0.000 HD 
HETATM   20  O   UNL     2      -6.019  15.143  67.450  1.00  0.00    -0.334 OA 
HETATM   21  O   UNL     2      -8.360  13.492  68.093  1.00  0.00    -0.151 OA 
HETATM   22  O   UNL     2      -9.050  15.460  68.836  1.00  0.00    -0.189 OA 
ENDBRANCH  14  17
ENDBRANCH  11  14
ENDBRANCH   2  11
BRANCH   3  23
HETATM   23  C   UNL     3      -7.051   9.461  70.229  1.00  0.00    -0.097 C  
HETATM   24  O   UNL     3      -7.264  10.849  70.337  1.00  0.00    -0.454 OA 
HETATM   25  H   UNL     3      -7.064  11.052  71.243  1.00  0.00     0.000 HD 
BRANCH  23  26
HETATM   26  C   UNL     3      -7.631   8.832  71.577  1.00  0.00    -0.096 C  
HETATM   27  O   UNL     3      -6.576   8.957  72.497  1.00  0.00    -0.264 OA 
HETATM   28  H   UNL     3      -6.920   8.583  73.299  1.00  0.00     0.000 HD 
BRANCH  26  29
HETATM   29  C   UNL     3      -8.146   7.326  71.789  1.00  0.00    -0.100 C  
HETATM   30  C   UNL     3      -9.008   6.661  70.752  1.00  0.00    -0.151 C  
HETATM   31  O   UNL     3      -8.865   7.196  72.997  1.00  0.00    -0.123 OA 
HETATM   32  O   UNL     3     -10.246   7.123  70.500  1.00  0.00    -0.195 OA 
HETATM   33  O   UNL     3      -8.648   5.608  70.251  1.00  0.00    -0.126 OA 
HETATM   34  H   UNL     3      -9.170   6.305  73.122  1.00  0.00     0.000 HD 
ENDBRANCH  26  29
ENDBRANCH  23  26
ENDBRANCH   3  23
BRANCH   3  35
HETATM   35  C   UNL     3      -6.990  10.156  67.610  1.00  0.00    -0.085 C  
HETATM   36  O   UNL     3      -8.027  10.382  66.701  1.00  0.00    -0.113 OA 
HETATM   37  H   UNL     3      -7.788  11.009  66.028  1.00  0.00     0.000 HD 
ENDBRANCH   3  35
TORSDOF 8
ENDMDL
MODEL      270
REMARK 921   NORMALIZED FREE ENERGY PREDICTED BY IDOCK:   -3.63 KCAL/MOL
REMARK 922        TOTAL FREE ENERGY PREDICTED BY IDOCK:   -7.01 KCAL/MOL
REMARK 923 INTER-LIGAND FREE ENERGY PREDICTED BY IDOCK:   -5.80 KCAL/MOL
REMARK 924 INTRA-LIGAND FREE ENERGY PREDICTED BY IDOCK:   -1.20 KCAL/MOL
REMARK 927      BINDING AFFINITY PREDICTED BY RF-SCORE:    0.00 PKD
ROOT
HETATM    1 MN   UNL     1      -8.009  17.399  65.709  1.00  0.00    -0.241 Mn 
HETATM    2  C   UNL     2      -7.644   9.696  64.944  1.00  0.00    -0.117 C  
HETATM    3  C   UNL     3      -9.822  19.072  66.489  1.00  0.00    -0.369 C  
HETATM    4  H   UNL     3     -10.270  20.944  66.740  1.00  0.00     0.000 HD 
HETATM    5  H   UNL     2      -7.659  11.240  63.814  1.00  0.00     0.000 HD 
HETATM    6  O   UNL     2      -7.492  10.315  63.676  1.00  0.00    -0.143 OA 
HETATM    7  O   UNL     3     -10.733  20.158  66.473  1.00  0.00    -0.355 OA 
ENDROOT
BRANCH   2   8
HETATM    8  C   UNL     2      -7.372   8.195  64.721  1.00  0.00    -0.089 C  
HETATM    9  H   UNL     2      -7.056   6.938  63.223  1.00  0.00     0.000 HD 
HETATM   10  O   UNL     2      -7.224   7.863  63.360  1.00  0.00    -0.082 OA 
ENDBRANCH   2   8
BRANCH   2  11
HETATM   11  C   UNL     2      -9.076  10.047  65.511  1.00  0.00    -0.186 C  
HETATM   12  H   UNL     2     -10.528   9.138  66.493  1.00  0.00     0.000 HD 
HETATM   13  O   UNL     2      -9.667   8.926  66.151  1.00  0.00    -0.255 OA 
BRANCH  11  14
HETATM   14  C   UNL     2      -9.138  11.237  66.524  1.00  0.00    -0.184 C  
HETATM   15  H   UNL     2      -8.827  11.460  68.408  1.00  0.00     0.000 HD 
HETATM   16  O   UNL     2      -8.789  10.738  67.793  1.00  0.00    -0.129 OA 
BRANCH  14  17
HETATM   17  C   UNL     2     -10.511  11.941  66.644  1.00  0.00    -0.216 C  
HETATM   18  C   UNL     2     -10.391  13.437  66.412  1.00  0.00    -0.288 C  
HETATM   19  H   UNL     2     -11.878  12.153  68.002  1.00  0.00     0.000 HD 
HETATM   20  O   UNL     2     -11.036  11.722  67.928  1.00  0.00    -0.198 OA 
HETATM   21  O   UNL     2     -11.491  14.208  66.435  1.00  0.00    -0.331 OA 
HETATM   22  O   UNL     2      -9.313  13.957  66.127  1.00  0.00    -0.213 OA 
ENDBRANCH  14  17
ENDBRANCH  11  14
ENDBRANCH   2  11
BRANCH   3  23
HETATM   23  C   UNL     3      -9.146  19.110  67.918  1.00  0.00    -0.302 C  
HETATM   24  O   UNL     3      -9.941  18.258  68.710  1.00  0.00    -0.363 OA 
HETATM   25  H   UNL     3      -9.534  18.281  69.568  1.00  0.00     0.000 HD 
BRANCH  23  26
HETATM   26  C   UNL     3      -7.638  18.813  68.350  1.00  0.00    -0.301 C  
HETATM   27  O   UNL     3      -7.599  19.150  69.715  1.00  0.00     0.104 OA 
HETATM   28  H   UNL     3      -6.702  18.973  69.972  1.00  0.00     0.000 HD 
BRANCH  26  29
HETATM   29  C   UNL     3      -6.315  19.497  67.750  1.00  0.00    -0.212 C  
HETATM   30  C   UNL     3      -6.198  19.768  66.276  1.00  0.00    -0.180 C  
HETATM   31  O   UNL     3      -5.161  18.753  68.076  1.00  0.00    -0.170 OA 
HETATM   32  O   UNL     3      -6.153  18.749  65.399  1.00  0.00    -0.217 OA 
HETATM   33  O   UNL     3      -5.986  20.905  65.884  1.00  0.00    -0.224 OA 
HETATM   34  H   UNL     3      -4.378  19.158  67.720  1.00  0.00     0.000 HD 
ENDBRANCH  26  29
ENDBRANCH  23  26
ENDBRANCH   3  23
BRANCH   3  35
HETATM   35  C   UNL     3     -10.585  17.775  66.049  1.00  0.00    -0.229 C  
HETATM   36  O   UNL     3     -10.452  16.737  66.975  1.00  0.00    -0.313 OA 
HETATM   37  H   UNL     3     -10.914  15.951  66.708  1.00  0.00     0.000 HD 
ENDBRANCH   3  35
TORSDOF 8
ENDMDL
MODEL      271
REMARK 921   NORMALIZED FREE ENERGY PREDICTED BY IDOCK:   -3.63 KCAL/MOL
REMARK 922        TOTAL FREE ENERGY PREDICTED BY IDOCK:   -7.00 KCAL/MOL
REMARK 923 INTER-LIGAND FREE ENERGY PREDICTED BY IDOCK:   -6.12 KCAL/MOL
REMARK 924 INTRA-LIGAND FREE ENERGY PREDICTED BY IDOCK:   -0.88 KCAL/MOL
REMARK 927      BINDING AFFINITY PREDICTED BY RF-SCORE:    0.00 PKD
ROOT
HETATM    1 MN   UNL     1     -11.127   9.217  66.527  1.00  0.00    -0.162 Mn 
HETATM    2  C   UNL     2     -10.356  16.916  66.101  1.00  0.00    -0.320 C  
HETATM    3  C   UNL     3      -9.494   7.211  66.448  1.00  0.00    -0.123 C  
HETATM    4  H   UNL     3      -9.334   5.277  66.459  1.00  0.00     0.000 HD 
HETATM    5  H   UNL     2     -11.090  15.498  65.047  1.00  0.00     0.000 HD 
HETATM    6  O   UNL     2     -11.126  16.447  65.006  1.00  0.00    -0.405 OA 
HETATM    7  O   UNL     3      -8.887   5.999  66.034  1.00  0.00    -0.148 OA 
ENDROOT
BRANCH   2   8
HETATM    8  C   UNL     2     -10.415  18.455  66.036  1.00  0.00    -0.374 C  
HETATM    9  H   UNL     2     -10.974  19.980  67.169  1.00  0.00     0.000 HD 
HETATM   10  O   UNL     2     -10.938  19.031  67.210  1.00  0.00    -0.459 OA 
ENDBRANCH   2   8
BRANCH   2  11
HETATM   11  C   UNL     2      -8.908  16.290  66.009  1.00  0.00    -0.273 C  
HETATM   12  H   UNL     2      -7.051  16.919  65.778  1.00  0.00     0.000 HD 
HETATM   13  O   UNL     2      -7.922  17.295  65.833  1.00  0.00    -0.518 OA 
BRANCH  11  14
HETATM   14  C   UNL     2      -8.460  15.417  67.227  1.00  0.00    -0.192 C  
HETATM   15  H   UNL     2      -9.269  14.058  68.319  1.00  0.00     0.000 HD 
HETATM   16  O   UNL     2      -9.541  14.588  67.580  1.00  0.00    -0.206 OA 
BRANCH  14  17
HETATM   17  C   UNL     2      -8.023  16.203  68.486  1.00  0.00    -0.175 C  
HETATM   18  C   UNL     2      -6.544  16.013  68.774  1.00  0.00    -0.126 C  
HETATM   19  H   UNL     2      -8.494  16.237  70.366  1.00  0.00     0.000 HD 
HETATM   20  O   UNL     2      -8.762  15.755  69.593  1.00  0.00    -0.223 OA 
HETATM   21  O   UNL     2      -5.976  16.656  69.808  1.00  0.00    -0.204 OA 
HETATM   22  O   UNL     2      -5.828  15.338  68.035  1.00  0.00    -0.122 OA 
ENDBRANCH  14  17
ENDBRANCH  11  14
ENDBRANCH   2  11
BRANCH   3  23
HETATM   23  C   UNL     3      -9.518   7.154  68.028  1.00  0.00    -0.130 C  
HETATM   24  O   UNL     3      -9.146   5.831  68.340  1.00  0.00    -0.118 OA 
HETATM   25  H   UNL     3      -9.161   5.797  69.289  1.00  0.00     0.000 HD 
BRANCH  23  26
HETATM   26  C   UNL     3      -8.777   8.073  69.102  1.00  0.00    -0.137 C  
HETATM   27  O   UNL     3      -8.374   7.174  70.105  1.00  0.00    -0.133 OA 
HETATM   28  H   UNL     3      -7.934   7.720  70.744  1.00  0.00     0.000 HD 
BRANCH  26  29
HETATM   29  C   UNL     3      -9.417   9.297  69.921  1.00  0.00    -0.197 C  
HETATM   30  C   UNL     3     -10.119  10.413  69.200  1.00  0.00    -0.222 C  
HETATM   31  O   UNL     3      -8.449   9.936  70.725  1.00  0.00    -0.379 OA 
HETATM   32  O   UNL     3      -9.435  11.230  68.379  1.00  0.00    -0.179 OA 
HETATM   33  O   UNL     3     -11.278  10.678  69.479  1.00  0.00    -0.232 OA 
HETATM   34  H   UNL     3      -8.827  10.660  71.210  1.00  0.00     0.000 HD 
ENDBRANCH  26  29
ENDBRANCH  23  26
ENDBRANCH   3  23
BRANCH   3  35
HETATM   35  C   UNL     3      -8.756   8.404  65.746  1.00  0.00    -0.169 C  
HETATM   36  O   UNL     3      -9.418   9.621  65.927  1.00  0.00    -0.196 OA 
HETATM   37  H   UNL     3      -8.970  10.343  65.502  1.00  0.00     0.000 HD 
ENDBRANCH   3  35
TORSDOF 8
ENDMDL
MODEL      272
REMARK 921   NORMALIZED FREE ENERGY PREDICTED BY IDOCK:   -3.60 KCAL/MOL
REMARK 922        TOTAL FREE ENERGY PREDICTED BY IDOCK:   -6.96 KCAL/MOL
REMARK 923 INTER-LIGAND FREE ENERGY PREDICTED BY IDOCK:   -5.43 KCAL/MOL
REMARK 924 INTRA-LIGAND FREE ENERGY PREDICTED BY IDOCK:   -1.53 KCAL/MOL
REMARK 927      BINDING AFFINITY PREDICTED BY RF-SCORE:    0.00 PKD
ROOT
HETATM    1 MN   UNL     1      -7.701   8.008  66.798  1.00  0.00    -0.083 Mn 
HETATM    2  C   UNL     2      -8.976   3.809  73.185  1.00  0.00    -0.099 C  
HETATM    3  C   UNL     3      -8.977   9.894  65.568  1.00  0.00    -0.174 C  
HETATM    4  H   UNL     3      -9.000  11.063  64.018  1.00  0.00     0.000 HD 
HETATM    5  H   UNL     2      -8.908   3.537  71.292  1.00  0.00     0.000 HD 
HETATM    6  O   UNL     2      -8.951   2.962  72.047  1.00  0.00    -0.082 OA 
HETATM    7  O   UNL     3      -9.647  10.602  64.539  1.00  0.00    -0.233 OA 
ENDROOT
BRANCH   2   8
HETATM    8  C   UNL     2      -9.045   2.875  74.410  1.00  0.00    -0.078 C  
HETATM    9  H   UNL     2     -10.203   1.440  75.133  1.00  0.00     0.000 HD 
HETATM   10  O   UNL     2     -10.161   2.016  74.378  1.00  0.00    -0.097 OA 
ENDBRANCH   2   8
BRANCH   2  11
HETATM   11  C   UNL     2     -10.179   4.822  73.037  1.00  0.00    -0.171 C  
HETATM   12  H   UNL     2     -11.386   5.847  74.216  1.00  0.00     0.000 HD 
HETATM   13  O   UNL     2     -10.663   5.237  74.305  1.00  0.00    -0.269 OA 
BRANCH  11  14
HETATM   14  C   UNL     2      -9.886   6.118  72.212  1.00  0.00    -0.159 C  
HETATM   15  H   UNL     2      -9.598   7.974  72.620  1.00  0.00     0.000 HD 
HETATM   16  O   UNL     2      -9.776   7.187  73.121  1.00  0.00    -0.162 OA 
BRANCH  14  17
HETATM   17  C   UNL     2     -10.952   6.492  71.155  1.00  0.00    -0.266 C  
HETATM   18  C   UNL     2     -10.477   6.172  69.749  1.00  0.00    -0.239 C  
HETATM   19  H   UNL     2     -11.882   8.096  70.589  1.00  0.00     0.000 HD 
HETATM   20  O   UNL     2     -11.228   7.866  71.238  1.00  0.00    -0.247 OA 
HETATM   21  O   UNL     2     -11.289   6.390  68.701  1.00  0.00    -0.313 OA 
HETATM   22  O   UNL     2      -9.384   5.643  69.546  1.00  0.00    -0.129 OA 
ENDBRANCH  14  17
ENDBRANCH  11  14
ENDBRANCH   2  11
BRANCH   3  23
HETATM   23  C   UNL     3      -8.046  10.958  66.276  1.00  0.00    -0.165 C  
HETATM   24  O   UNL     3      -6.998  11.178  65.361  1.00  0.00    -0.352 OA 
HETATM   25  H   UNL     3      -6.439  11.817  65.786  1.00  0.00     0.000 HD 
BRANCH  23  26
HETATM   26  C   UNL     3      -8.399  12.395  66.876  1.00  0.00    -0.117 C  
HETATM   27  O   UNL     3      -8.453  12.183  68.265  1.00  0.00    -0.170 OA 
HETATM   28  H   UNL     3      -8.664  13.037  68.623  1.00  0.00     0.000 HD 
BRANCH  26  29
HETATM   29  C   UNL     3      -9.713  13.266  66.571  1.00  0.00    -0.273 C  
HETATM   30  C   UNL     3     -10.899  13.206  67.493  1.00  0.00    -0.255 C  
HETATM   31  O   UNL     3     -10.232  12.977  65.291  1.00  0.00    -0.292 OA 
HETATM   32  O   UNL     3     -11.601  12.066  67.625  1.00  0.00    -0.317 OA 
HETATM   33  O   UNL     3     -11.322  14.232  68.002  1.00  0.00    -0.268 OA 
HETATM   34  H   UNL     3     -11.010  13.493  65.110  1.00  0.00     0.000 HD 
ENDBRANCH  26  29
ENDBRANCH  23  26
ENDBRANCH   3  23
BRANCH   3  35
HETATM   35  C   UNL     3     -10.044   9.133  66.427  1.00  0.00    -0.274 C  
HETATM   36  O   UNL     3      -9.576   8.822  67.706  1.00  0.00    -0.143 OA 
HETATM   37  H   UNL     3     -10.223   8.361  68.228  1.00  0.00     0.000 HD 
ENDBRANCH   3  35
TORSDOF 8
ENDMDL
MODEL      273
REMARK 921   NORMALIZED FREE ENERGY PREDICTED BY IDOCK:   -3.60 KCAL/MOL
REMARK 922        TOTAL FREE ENERGY PREDICTED BY IDOCK:   -6.95 KCAL/MOL
REMARK 923 INTER-LIGAND FREE ENERGY PREDICTED BY IDOCK:   -6.26 KCAL/MOL
REMARK 924 INTRA-LIGAND FREE ENERGY PREDICTED BY IDOCK:   -0.70 KCAL/MOL
REMARK 927      BINDING AFFINITY PREDICTED BY RF-SCORE:    0.00 PKD
ROOT
HETATM    1 MN   UNL     1      -9.245  15.534  69.737  1.00  0.00    -0.200 Mn 
HETATM    2  C   UNL     2     -12.132   8.418  70.781  1.00  0.00    -0.055 C  
HETATM    3  C   UNL     3      -6.907  16.491  69.176  1.00  0.00    -0.218 C  
HETATM    4  H   UNL     3      -5.860  18.104  68.914  1.00  0.00     0.000 HD 
HETATM    5  H   UNL     2     -11.781   9.980  71.829  1.00  0.00     0.000 HD 
HETATM    6  O   UNL     2     -12.249   9.168  71.980  1.00  0.00    -0.367 OA 
HETATM    7  O   UNL     3      -5.711  17.242  69.285  1.00  0.00    -0.172 OA 
ENDROOT
BRANCH   2   8
HETATM    8  C   UNL     2     -12.893   7.100  71.025  1.00  0.00    -0.212 C  
HETATM    9  H   UNL     2     -12.992   5.660  72.382  1.00  0.00     0.000 HD 
HETATM   10  O   UNL     2     -12.523   6.472  72.231  1.00  0.00    -0.218 OA 
ENDBRANCH   2   8
BRANCH   2  11
HETATM   11  C   UNL     2     -10.600   8.260  70.429  1.00  0.00    -0.224 C  
HETATM   12  H   UNL     2      -9.077   9.423  69.953  1.00  0.00     0.000 HD 
HETATM   13  O   UNL     2      -9.999   9.518  70.164  1.00  0.00    -0.209 OA 
BRANCH  11  14
HETATM   14  C   UNL     2      -9.719   7.550  71.509  1.00  0.00    -0.165 C  
HETATM   15  H   UNL     2      -8.639   8.118  72.995  1.00  0.00     0.000 HD 
HETATM   16  O   UNL     2      -9.174   8.548  72.339  1.00  0.00    -0.251 OA 
BRANCH  14  17
HETATM   17  C   UNL     2      -8.556   6.690  70.961  1.00  0.00    -0.137 C  
HETATM   18  C   UNL     2      -9.001   5.264  70.686  1.00  0.00    -0.134 C  
HETATM   19  H   UNL     2      -6.798   6.138  71.565  1.00  0.00     0.000 HD 
HETATM   20  O   UNL     2      -7.512   6.666  71.901  1.00  0.00    -0.089 OA 
HETATM   21  O   UNL     2      -8.133   4.381  70.165  1.00  0.00    -0.059 OA 
HETATM   22  O   UNL     2     -10.167   4.911  70.860  1.00  0.00    -0.227 OA 
ENDBRANCH  14  17
ENDBRANCH  11  14
ENDBRANCH   2  11
BRANCH   3  23
HETATM   23  C   UNL     3      -7.339  16.603  67.658  1.00  0.00    -0.143 C  
HETATM   24  O   UNL     3      -6.430  15.776  66.969  1.00  0.00    -0.299 OA 
HETATM   25  H   UNL     3      -6.689  15.844  66.058  1.00  0.00     0.000 HD 
BRANCH  23  26
HETATM   26  C   UNL     3      -8.757  16.349  66.971  1.00  0.00    -0.199 C  
HETATM   27  O   UNL     3      -8.587  15.143  66.268  1.00  0.00    -0.443 OA 
HETATM   28  H   UNL     3      -9.431  14.992  65.858  1.00  0.00     0.000 HD 
BRANCH  26  29
HETATM   29  C   UNL     3      -9.496  17.306  65.915  1.00  0.00    -0.015 C  
HETATM   30  C   UNL     3     -10.012  18.653  66.337  1.00  0.00    -0.388 C  
HETATM   31  O   UNL     3     -10.605  16.659  65.327  1.00  0.00    -0.596 OA 
HETATM   32  O   UNL     3     -11.014  18.749  67.229  1.00  0.00    -0.412 OA 
HETATM   33  O   UNL     3      -9.631  19.657  65.754  1.00  0.00    -0.377 OA 
HETATM   34  H   UNL     3     -11.042  17.226  64.702  1.00  0.00     0.000 HD 
ENDBRANCH  26  29
ENDBRANCH  23  26
ENDBRANCH   3  23
BRANCH   3  35
HETATM   35  C   UNL     3      -6.661  15.069  69.788  1.00  0.00    -0.180 C  
HETATM   36  O   UNL     3      -7.516  14.102  69.252  1.00  0.00    -0.270 OA 
HETATM   37  H   UNL     3      -7.367  13.240  69.623  1.00  0.00     0.000 HD 
ENDBRANCH   3  35
TORSDOF 8
ENDMDL
MODEL      274
REMARK 921   NORMALIZED FREE ENERGY PREDICTED BY IDOCK:   -3.58 KCAL/MOL
REMARK 922        TOTAL FREE ENERGY PREDICTED BY IDOCK:   -6.94 KCAL/MOL
REMARK 923 INTER-LIGAND FREE ENERGY PREDICTED BY IDOCK:   -5.97 KCAL/MOL
REMARK 924 INTRA-LIGAND FREE ENERGY PREDICTED BY IDOCK:   -0.96 KCAL/MOL
REMARK 927      BINDING AFFINITY PREDICTED BY RF-SCORE:    0.00 PKD
ROOT
HETATM    1 MN   UNL     1     -11.861  12.825  67.364  1.00  0.00    -0.258 Mn 
HETATM    2  C   UNL     2     -10.329   5.957  70.609  1.00  0.00    -0.235 C  
HETATM    3  C   UNL     3     -11.108  15.261  67.806  1.00  0.00    -0.318 C  
HETATM    4  H   UNL     3     -11.312  17.119  67.280  1.00  0.00     0.000 HD 
HETATM    5  H   UNL     2     -11.812   7.154  70.445  1.00  0.00     0.000 HD 
HETATM    6  O   UNL     2     -11.707   6.262  70.754  1.00  0.00    -0.340 OA 
HETATM    7  O   UNL     3     -11.173  16.647  68.093  1.00  0.00    -0.339 OA 
ENDROOT
BRANCH   2   8
HETATM    8  C   UNL     2     -10.158   4.509  71.110  1.00  0.00    -0.147 C  
HETATM    9  H   UNL     2      -9.022   2.926  70.751  1.00  0.00     0.000 HD 
HETATM   10  O   UNL     2      -9.128   3.818  70.442  1.00  0.00    -0.099 OA 
ENDBRANCH   2   8
BRANCH   2  11
HETATM   11  C   UNL     2      -9.484   7.044  71.383  1.00  0.00    -0.159 C  
HETATM   12  H   UNL     2      -8.826   7.356  73.219  1.00  0.00     0.000 HD 
HETATM   13  O   UNL     2      -9.334   6.703  72.753  1.00  0.00    -0.140 OA 
BRANCH  11  14
HETATM   14  C   UNL     2      -8.051   7.326  70.823  1.00  0.00    -0.111 C  
HETATM   15  H   UNL     2      -6.416   8.052  71.526  1.00  0.00     0.000 HD 
HETATM   16  O   UNL     2      -7.286   7.881  71.866  1.00  0.00    -0.064 OA 
BRANCH  14  17
HETATM   17  C   UNL     2      -7.985   8.285  69.611  1.00  0.00    -0.111 C  
HETATM   18  C   UNL     2      -7.672   7.537  68.327  1.00  0.00    -0.120 C  
HETATM   19  H   UNL     2      -6.942   9.834  69.088  1.00  0.00     0.000 HD 
HETATM   20  O   UNL     2      -6.983   9.245  69.832  1.00  0.00    -0.052 OA 
HETATM   21  O   UNL     2      -7.616   8.203  67.161  1.00  0.00    -0.093 OA 
HETATM   22  O   UNL     2      -7.540   6.314  68.313  1.00  0.00    -0.095 OA 
ENDBRANCH  14  17
ENDBRANCH  11  14
ENDBRANCH   2  11
BRANCH   3  23
HETATM   23  C   UNL     3     -10.038  15.119  66.650  1.00  0.00    -0.264 C  
HETATM   24  O   UNL     3     -10.684  15.624  65.504  1.00  0.00    -0.350 OA 
HETATM   25  H   UNL     3     -10.041  15.539  64.810  1.00  0.00     0.000 HD 
BRANCH  23  26
HETATM   26  C   UNL     3      -8.537  15.655  66.567  1.00  0.00    -0.300 C  
HETATM   27  O   UNL     3      -7.897  15.058  67.668  1.00  0.00    -0.139 OA 
HETATM   28  H   UNL     3      -7.004  15.377  67.619  1.00  0.00     0.000 HD 
BRANCH  26  29
HETATM   29  C   UNL     3      -8.059  17.186  66.632  1.00  0.00    -0.257 C  
HETATM   30  C   UNL     3      -6.826  17.633  65.898  1.00  0.00    -0.218 C  
HETATM   31  O   UNL     3      -7.859  17.604  67.966  1.00  0.00    -0.221 OA 
HETATM   32  O   UNL     3      -5.616  17.168  66.255  1.00  0.00    -0.298 OA 
HETATM   33  O   UNL     3      -6.903  18.537  65.080  1.00  0.00    -0.528 OA 
HETATM   34  H   UNL     3      -7.577  18.510  68.004  1.00  0.00     0.000 HD 
ENDBRANCH  26  29
ENDBRANCH  23  26
ENDBRANCH   3  23
BRANCH   3  35
HETATM   35  C   UNL     3     -10.878  14.484  69.147  1.00  0.00    -0.263 C  
HETATM   36  O   UNL     3      -9.826  15.014  69.897  1.00  0.00    -0.453 OA 
HETATM   37  H   UNL     3      -9.686  14.543  70.711  1.00  0.00     0.000 HD 
ENDBRANCH   3  35
TORSDOF 8
ENDMDL
MODEL      275
REMARK 921   NORMALIZED FREE ENERGY PREDICTED BY IDOCK:   -3.58 KCAL/MOL
REMARK 922        TOTAL FREE ENERGY PREDICTED BY IDOCK:   -6.93 KCAL/MOL
REMARK 923 INTER-LIGAND FREE ENERGY PREDICTED BY IDOCK:   -6.29 KCAL/MOL
REMARK 924 INTRA-LIGAND FREE ENERGY PREDICTED BY IDOCK:   -0.64 KCAL/MOL
REMARK 927      BINDING AFFINITY PREDICTED BY RF-SCORE:    0.00 PKD
ROOT
HETATM    1 MN   UNL     1     -11.266  13.029  66.772  1.00  0.00    -0.254 Mn 
HETATM    2  C   UNL     2      -9.627   5.866  69.233  1.00  0.00    -0.141 C  
HETATM    3  C   UNL     3     -11.259  15.379  67.856  1.00  0.00    -0.329 C  
HETATM    4  H   UNL     3     -11.641  17.264  67.593  1.00  0.00     0.000 HD 
HETATM    5  H   UNL     2     -11.162   6.864  68.676  1.00  0.00     0.000 HD 
HETATM    6  O   UNL     2     -10.992   5.947  68.857  1.00  0.00    -0.314 OA 
HETATM    7  O   UNL     3     -11.715  16.642  68.308  1.00  0.00    -0.024 OA 
ENDROOT
BRANCH   2   8
HETATM    8  C   UNL     2      -9.352   4.378  69.526  1.00  0.00    -0.156 C  
HETATM    9  H   UNL     2      -9.527   2.621  68.628  1.00  0.00     0.000 HD 
HETATM   10  O   UNL     2      -9.697   3.538  68.448  1.00  0.00    -0.127 OA 
ENDBRANCH   2   8
BRANCH   2  11
HETATM   11  C   UNL     2      -9.375   6.851  70.443  1.00  0.00    -0.159 C  
HETATM   12  H   UNL     2     -10.440   7.785  71.819  1.00  0.00     0.000 HD 
HETATM   13  O   UNL     2     -10.591   7.193  71.091  1.00  0.00    -0.221 OA 
BRANCH  11  14
HETATM   14  C   UNL     2      -8.395   6.341  71.549  1.00  0.00    -0.126 C  
HETATM   15  H   UNL     2      -8.384   6.310  73.472  1.00  0.00     0.000 HD 
HETATM   16  O   UNL     2      -8.979   6.619  72.799  1.00  0.00    -0.124 OA 
BRANCH  14  17
HETATM   17  C   UNL     2      -6.980   6.968  71.528  1.00  0.00    -0.065 C  
HETATM   18  C   UNL     2      -7.033   8.468  71.755  1.00  0.00    -0.093 C  
HETATM   19  H   UNL     2      -5.512   7.104  70.269  1.00  0.00     0.000 HD 
HETATM   20  O   UNL     2      -6.381   6.719  70.282  1.00  0.00    -0.037 OA 
HETATM   21  O   UNL     2      -5.893   9.177  71.812  1.00  0.00    -0.068 OA 
HETATM   22  O   UNL     2      -8.098   9.047  71.967  1.00  0.00    -0.360 OA 
ENDBRANCH  14  17
ENDBRANCH  11  14
ENDBRANCH   2  11
BRANCH   3  23
HETATM   23  C   UNL     3      -9.835  15.646  67.223  1.00  0.00    -0.225 C  
HETATM   24  O   UNL     3     -10.097  15.929  65.868  1.00  0.00    -0.304 OA 
HETATM   25  H   UNL     3      -9.241  16.090  65.488  1.00  0.00     0.000 HD 
BRANCH  23  26
HETATM   26  C   UNL     3      -8.689  16.667  67.662  1.00  0.00    -0.202 C  
HETATM   27  O   UNL     3      -9.092  17.109  68.935  1.00  0.00    -0.260 OA 
HETATM   28  H   UNL     3      -8.410  17.717  69.196  1.00  0.00     0.000 HD 
BRANCH  26  29
HETATM   29  C   UNL     3      -8.266  18.018  66.905  1.00  0.00    -0.242 C  
HETATM   30  C   UNL     3      -9.305  19.035  66.523  1.00  0.00    -0.340 C  
HETATM   31  O   UNL     3      -7.574  17.738  65.706  1.00  0.00    -0.536 OA 
HETATM   32  O   UNL     3     -10.247  18.737  65.611  1.00  0.00    -0.519 OA 
HETATM   33  O   UNL     3      -9.201  20.185  66.922  1.00  0.00    -0.351 OA 
HETATM   34  H   UNL     3      -7.325  18.537  65.258  1.00  0.00     0.000 HD 
ENDBRANCH  26  29
ENDBRANCH  23  26
ENDBRANCH   3  23
BRANCH   3  35
HETATM   35  C   UNL     3     -11.381  14.354  69.036  1.00  0.00    -0.269 C  
HETATM   36  O   UNL     3     -10.794  14.824  70.214  1.00  0.00    -0.448 OA 
HETATM   37  H   UNL     3     -10.868  14.203  70.929  1.00  0.00     0.000 HD 
ENDBRANCH   3  35
TORSDOF 8
ENDMDL
MODEL      276
REMARK 921   NORMALIZED FREE ENERGY PREDICTED BY IDOCK:   -3.58 KCAL/MOL
REMARK 922        TOTAL FREE ENERGY PREDICTED BY IDOCK:   -6.93 KCAL/MOL
REMARK 923 INTER-LIGAND FREE ENERGY PREDICTED BY IDOCK:   -6.53 KCAL/MOL
REMARK 924 INTRA-LIGAND FREE ENERGY PREDICTED BY IDOCK:   -0.41 KCAL/MOL
REMARK 927      BINDING AFFINITY PREDICTED BY RF-SCORE:    0.00 PKD
ROOT
HETATM    1 MN   UNL     1      -8.278   7.151  70.649  1.00  0.00    -0.101 Mn 
HETATM    2  C   UNL     2     -10.976  11.579  64.890  1.00  0.00    -0.254 C  
HETATM    3  C   UNL     3      -8.210   7.352  73.228  1.00  0.00    -0.116 C  
HETATM    4  H   UNL     3      -7.606   6.533  74.881  1.00  0.00     0.000 HD 
HETATM    5  H   UNL     2      -9.283  10.992  65.562  1.00  0.00     0.000 HD 
HETATM    6  O   UNL     2      -9.569  11.441  64.775  1.00  0.00    -0.236 OA 
HETATM    7  O   UNL     3      -7.702   7.419  74.550  1.00  0.00    -0.128 OA 
ENDROOT
BRANCH   2   8
HETATM    8  C   UNL     2     -11.440  12.308  63.613  1.00  0.00    -0.490 C  
HETATM    9  H   UNL     2     -13.104  13.043  62.832  1.00  0.00     0.000 HD 
HETATM   10  O   UNL     2     -12.819  12.594  63.619  1.00  0.00    -0.718 OA 
ENDBRANCH   2   8
BRANCH   2  11
HETATM   11  C   UNL     2     -11.304  12.317  66.248  1.00  0.00    -0.345 C  
HETATM   12  H   UNL     2     -12.101  11.878  68.000  1.00  0.00     0.000 HD 
HETATM   13  O   UNL     2     -11.904  11.434  67.183  1.00  0.00    -0.566 OA 
BRANCH  11  14
HETATM   14  C   UNL     2     -10.093  12.994  66.970  1.00  0.00    -0.243 C  
HETATM   15  H   UNL     2      -9.356  12.964  68.745  1.00  0.00     0.000 HD 
HETATM   16  O   UNL     2     -10.091  12.553  68.306  1.00  0.00    -0.219 OA 
BRANCH  14  17
HETATM   17  C   UNL     2     -10.098  14.541  66.973  1.00  0.00    -0.254 C  
HETATM   18  C   UNL     2     -11.040  15.092  68.029  1.00  0.00    -0.308 C  
HETATM   19  H   UNL     2     -10.511  15.957  65.714  1.00  0.00     0.000 HD 
HETATM   20  O   UNL     2     -10.508  15.007  65.713  1.00  0.00    -0.297 OA 
HETATM   21  O   UNL     2     -11.143  16.420  68.207  1.00  0.00    -0.347 OA 
HETATM   22  O   UNL     2     -11.662  14.347  68.785  1.00  0.00    -0.301 OA 
ENDBRANCH  14  17
ENDBRANCH  11  14
ENDBRANCH   2  11
BRANCH   3  23
HETATM   23  C   UNL     3      -9.490   6.428  73.315  1.00  0.00    -0.139 C  
HETATM   24  O   UNL     3     -10.574   7.326  73.370  1.00  0.00    -0.346 OA 
HETATM   25  H   UNL     3     -11.342   6.770  73.422  1.00  0.00     0.000 HD 
BRANCH  23  26
HETATM   26  C   UNL     3      -9.966   5.238  72.362  1.00  0.00    -0.176 C  
HETATM   27  O   UNL     3     -11.359   5.186  72.548  1.00  0.00    -0.209 OA 
HETATM   28  H   UNL     3     -11.643   4.478  71.982  1.00  0.00     0.000 HD 
BRANCH  26  29
HETATM   29  C   UNL     3      -9.511   3.701  72.445  1.00  0.00    -0.128 C  
HETATM   30  C   UNL     3     -10.515   2.624  72.745  1.00  0.00    -0.137 C  
HETATM   31  O   UNL     3      -8.489   3.521  73.402  1.00  0.00    -0.081 OA 
HETATM   32  O   UNL     3     -11.130   2.579  73.941  1.00  0.00    -0.191 OA 
HETATM   33  O   UNL     3     -10.660   1.697  71.963  1.00  0.00    -0.123 OA 
HETATM   34  H   UNL     3      -8.220   2.611  73.452  1.00  0.00     0.000 HD 
ENDBRANCH  26  29
ENDBRANCH  23  26
ENDBRANCH   3  23
BRANCH   3  35
HETATM   35  C   UNL     3      -8.368   8.812  72.681  1.00  0.00     0.180 C  
HETATM   36  O   UNL     3      -9.262   8.886  71.610  1.00  0.00    -0.253 OA 
HETATM   37  H   UNL     3      -9.358   9.771  71.278  1.00  0.00     0.000 HD 
ENDBRANCH   3  35
TORSDOF 8
ENDMDL
MODEL      277
REMARK 921   NORMALIZED FREE ENERGY PREDICTED BY IDOCK:   -3.56 KCAL/MOL
REMARK 922        TOTAL FREE ENERGY PREDICTED BY IDOCK:   -6.90 KCAL/MOL
REMARK 923 INTER-LIGAND FREE ENERGY PREDICTED BY IDOCK:   -6.18 KCAL/MOL
REMARK 924 INTRA-LIGAND FREE ENERGY PREDICTED BY IDOCK:   -0.72 KCAL/MOL
REMARK 927      BINDING AFFINITY PREDICTED BY RF-SCORE:    0.00 PKD
ROOT
HETATM    1 MN   UNL     1      -9.381  12.190  68.813  1.00  0.00    -0.172 Mn 
HETATM    2  C   UNL     2      -7.805   4.968  71.140  1.00  0.00    -0.093 C  
HETATM    3  C   UNL     3     -10.054  13.277  66.564  1.00  0.00    -0.275 C  
HETATM    4  H   UNL     3     -10.444  14.942  65.645  1.00  0.00     0.000 HD 
HETATM    5  H   UNL     2      -6.871   6.619  70.890  1.00  0.00     0.000 HD 
HETATM    6  O   UNL     2      -6.657   5.786  71.294  1.00  0.00    -0.043 OA 
HETATM    7  O   UNL     3     -10.020  14.121  65.425  1.00  0.00    -0.336 OA 
ENDROOT
BRANCH   2   8
HETATM    8  C   UNL     2      -7.457   3.617  71.796  1.00  0.00    -0.056 C  
HETATM    9  H   UNL     2      -6.942   1.782  71.257  1.00  0.00     0.000 HD 
HETATM   10  O   UNL     2      -7.157   2.614  70.853  1.00  0.00    -0.032 OA 
ENDBRANCH   2   8
BRANCH   2  11
HETATM   11  C   UNL     2      -8.178   4.900  69.606  1.00  0.00    -0.080 C  
HETATM   12  H   UNL     2      -9.192   3.714  68.395  1.00  0.00     0.000 HD 
HETATM   13  O   UNL     2      -8.967   3.755  69.317  1.00  0.00    -0.090 OA 
BRANCH  11  14
HETATM   14  C   UNL     2      -8.942   6.138  69.031  1.00  0.00    -0.125 C  
HETATM   15  H   UNL     2      -9.030   7.034  67.332  1.00  0.00     0.000 HD 
HETATM   16  O   UNL     2      -8.567   6.282  67.682  1.00  0.00    -0.115 OA 
BRANCH  14  17
HETATM   17  C   UNL     2      -8.675   7.480  69.752  1.00  0.00    -0.140 C  
HETATM   18  C   UNL     2      -9.970   8.213  70.059  1.00  0.00    -0.192 C  
HETATM   19  H   UNL     2      -7.712   9.121  69.377  1.00  0.00     0.000 HD 
HETATM   20  O   UNL     2      -7.876   8.296  68.935  1.00  0.00    -0.107 OA 
HETATM   21  O   UNL     2      -9.937   9.381  70.723  1.00  0.00    -0.264 OA 
HETATM   22  O   UNL     2     -11.064   7.725  69.780  1.00  0.00    -0.204 OA 
ENDBRANCH  14  17
ENDBRANCH  11  14
ENDBRANCH   2  11
BRANCH   3  23
HETATM   23  C   UNL     3     -11.566  13.254  67.027  1.00  0.00    -0.359 C  
HETATM   24  O   UNL     3     -11.896  11.886  67.090  1.00  0.00    -0.588 OA 
HETATM   25  H   UNL     3     -12.805  11.873  67.368  1.00  0.00     0.000 HD 
BRANCH  23  26
HETATM   26  C   UNL     3     -12.262  13.924  68.298  1.00  0.00    -0.150 C  
HETATM   27  O   UNL     3     -12.284  15.297  67.994  1.00  0.00    -0.455 OA 
HETATM   28  H   UNL     3     -12.699  15.695  68.750  1.00  0.00     0.000 HD 
BRANCH  26  29
HETATM   29  C   UNL     3     -11.739  13.876  69.814  1.00  0.00    -0.309 C  
HETATM   30  C   UNL     3     -12.493  14.586  70.904  1.00  0.00    -0.345 C  
HETATM   31  O   UNL     3     -10.416  14.357  69.915  1.00  0.00    -0.442 OA 
HETATM   32  O   UNL     3     -12.585  15.928  70.904  1.00  0.00    -0.427 OA 
HETATM   33  O   UNL     3     -12.889  13.959  71.874  1.00  0.00    -0.331 OA 
HETATM   34  H   UNL     3     -10.107  14.329  70.813  1.00  0.00     0.000 HD 
ENDBRANCH  26  29
ENDBRANCH  23  26
ENDBRANCH   3  23
BRANCH   3  35
HETATM   35  C   UNL     3      -9.354  11.922  66.201  1.00  0.00    -0.219 C  
HETATM   36  O   UNL     3      -9.976  11.270  65.134  1.00  0.00    -0.236 OA 
HETATM   37  H   UNL     3      -9.552  10.448  64.914  1.00  0.00     0.000 HD 
ENDBRANCH   3  35
TORSDOF 8
ENDMDL
MODEL      278
REMARK 921   NORMALIZED FREE ENERGY PREDICTED BY IDOCK:   -3.54 KCAL/MOL
REMARK 922        TOTAL FREE ENERGY PREDICTED BY IDOCK:   -6.87 KCAL/MOL
REMARK 923 INTER-LIGAND FREE ENERGY PREDICTED BY IDOCK:   -5.58 KCAL/MOL
REMARK 924 INTRA-LIGAND FREE ENERGY PREDICTED BY IDOCK:   -1.29 KCAL/MOL
REMARK 927      BINDING AFFINITY PREDICTED BY RF-SCORE:    0.00 PKD
ROOT
HETATM    1 MN   UNL     1      -9.318  15.346  69.315  1.00  0.00    -0.156 Mn 
HETATM    2  C   UNL     2     -10.465   7.831  67.808  1.00  0.00    -0.211 C  
HETATM    3  C   UNL     3      -7.310  16.964  69.105  1.00  0.00    -0.197 C  
HETATM    4  H   UNL     3      -6.671  18.770  69.419  1.00  0.00     0.000 HD 
HETATM    5  H   UNL     2     -10.368   8.978  69.337  1.00  0.00     0.000 HD 
HETATM    6  O   UNL     2     -10.631   8.076  69.196  1.00  0.00    -0.219 OA 
HETATM    7  O   UNL     3      -6.302  17.895  69.460  1.00  0.00    -0.244 OA 
ENDROOT
BRANCH   2   8
HETATM    8  C   UNL     2     -10.893   6.368  67.579  1.00  0.00    -0.354 C  
HETATM    9  H   UNL     2     -10.138   4.544  67.754  1.00  0.00     0.000 HD 
HETATM   10  O   UNL     2      -9.875   5.446  67.895  1.00  0.00    -0.130 OA 
ENDBRANCH   2   8
BRANCH   2  11
HETATM   11  C   UNL     2      -8.976   8.172  67.407  1.00  0.00    -0.137 C  
HETATM   12  H   UNL     2      -7.909   8.366  65.757  1.00  0.00     0.000 HD 
HETATM   13  O   UNL     2      -8.805   8.161  65.998  1.00  0.00    -0.157 OA 
BRANCH  11  14
HETATM   14  C   UNL     2      -8.423   9.540  67.925  1.00  0.00    -0.119 C  
HETATM   15  H   UNL     2      -8.232  11.311  67.200  1.00  0.00     0.000 HD 
HETATM   16  O   UNL     2      -8.568  10.479  66.886  1.00  0.00    -0.124 OA 
BRANCH  14  17
HETATM   17  C   UNL     2      -6.941   9.537  68.368  1.00  0.00    -0.066 C  
HETATM   18  C   UNL     2      -6.810   9.706  69.872  1.00  0.00    -0.075 C  
HETATM   19  H   UNL     2      -5.353  10.588  68.005  1.00  0.00     0.000 HD 
HETATM   20  O   UNL     2      -6.262  10.590  67.733  1.00  0.00    -0.054 OA 
HETATM   21  O   UNL     2      -5.595   9.684  70.445  1.00  0.00    -0.038 OA 
HETATM   22  O   UNL     2      -7.802   9.789  70.596  1.00  0.00    -0.277 OA 
ENDBRANCH  14  17
ENDBRANCH  11  14
ENDBRANCH   2  11
BRANCH   3  23
HETATM   23  C   UNL     3      -7.895  17.480  67.729  1.00  0.00    -0.207 C  
HETATM   24  O   UNL     3      -7.458  16.535  66.780  1.00  0.00    -0.198 OA 
HETATM   25  H   UNL     3      -7.810  16.846  65.954  1.00  0.00     0.000 HD 
BRANCH  23  26
HETATM   26  C   UNL     3      -9.396  17.837  67.319  1.00  0.00    -0.254 C  
HETATM   27  O   UNL     3      -9.997  18.236  68.527  1.00  0.00    -0.357 OA 
HETATM   28  H   UNL     3     -10.890  18.448  68.283  1.00  0.00     0.000 HD 
BRANCH  26  29
HETATM   29  C   UNL     3     -10.475  16.843  66.667  1.00  0.00    -0.257 C  
HETATM   30  C   UNL     3     -10.547  15.405  67.099  1.00  0.00    -0.305 C  
HETATM   31  O   UNL     3     -10.342  16.794  65.262  1.00  0.00    -0.622 OA 
HETATM   32  O   UNL     3      -9.523  14.568  66.852  1.00  0.00    -0.231 OA 
HETATM   33  O   UNL     3     -11.595  14.956  67.534  1.00  0.00    -0.349 OA 
HETATM   34  H   UNL     3     -10.980  16.205  64.876  1.00  0.00     0.000 HD 
ENDBRANCH  26  29
ENDBRANCH  23  26
ENDBRANCH   3  23
BRANCH   3  35
HETATM   35  C   UNL     3      -6.702  15.520  69.172  1.00  0.00    -0.145 C  
HETATM   36  O   UNL     3      -5.686  15.325  68.233  1.00  0.00    -0.103 OA 
HETATM   37  H   UNL     3      -5.318  14.450  68.275  1.00  0.00     0.000 HD 
ENDBRANCH   3  35
TORSDOF 8
ENDMDL
MODEL      279
REMARK 921   NORMALIZED FREE ENERGY PREDICTED BY IDOCK:   -3.54 KCAL/MOL
REMARK 922        TOTAL FREE ENERGY PREDICTED BY IDOCK:   -6.87 KCAL/MOL
REMARK 923 INTER-LIGAND FREE ENERGY PREDICTED BY IDOCK:   -6.04 KCAL/MOL
REMARK 924 INTRA-LIGAND FREE ENERGY PREDICTED BY IDOCK:   -0.83 KCAL/MOL
REMARK 927      BINDING AFFINITY PREDICTED BY RF-SCORE:    0.00 PKD
ROOT
HETATM    1 MN   UNL     1     -11.274  10.227  69.911  1.00  0.00    -0.197 Mn 
HETATM    2  C   UNL     2      -9.957  17.560  67.776  1.00  0.00    -0.312 C  
HETATM    3  C   UNL     3     -10.547   7.909  69.022  1.00  0.00    -0.162 C  
HETATM    4  H   UNL     3     -10.715   5.987  69.240  1.00  0.00     0.000 HD 
HETATM    5  H   UNL     2     -11.425  16.334  67.828  1.00  0.00     0.000 HD 
HETATM    6  O   UNL     2     -11.341  17.266  67.668  1.00  0.00     0.012 OA 
HETATM    7  O   UNL     3     -10.628   6.589  68.510  1.00  0.00    -0.197 OA 
ENDROOT
BRANCH   2   8
HETATM    8  C   UNL     2      -9.820  19.073  67.516  1.00  0.00    -0.324 C  
HETATM    9  H   UNL     2     -10.200  20.788  68.431  1.00  0.00     0.000 HD 
HETATM   10  O   UNL     2     -10.285  19.856  68.591  1.00  0.00    -0.447 OA 
ENDBRANCH   2   8
BRANCH   2  11
HETATM   11  C   UNL     2      -9.161  16.627  66.780  1.00  0.00    -0.238 C  
HETATM   12  H   UNL     2      -7.931  16.829  65.249  1.00  0.00     0.000 HD 
HETATM   13  O   UNL     2      -8.410  17.390  65.848  1.00  0.00    -0.535 OA 
BRANCH  11  14
HETATM   14  C   UNL     2      -8.174  15.607  67.437  1.00  0.00    -0.175 C  
HETATM   15  H   UNL     2      -6.314  15.166  67.237  1.00  0.00     0.000 HD 
HETATM   16  O   UNL     2      -6.913  15.786  66.838  1.00  0.00    -0.225 OA 
BRANCH  14  17
HETATM   17  C   UNL     2      -8.566  14.116  67.300  1.00  0.00    -0.218 C  
HETATM   18  C   UNL     2      -7.343  13.235  67.114  1.00  0.00     0.094 C  
HETATM   19  H   UNL     2      -9.652  13.043  66.105  1.00  0.00     0.000 HD 
HETATM   20  O   UNL     2      -9.412  13.958  66.190  1.00  0.00    -0.255 OA 
HETATM   21  O   UNL     2      -7.487  11.902  67.020  1.00  0.00    -0.148 OA 
HETATM   22  O   UNL     2      -6.206  13.705  67.122  1.00  0.00    -0.229 OA 
ENDBRANCH  14  17
ENDBRANCH  11  14
ENDBRANCH   2  11
BRANCH   3  23
HETATM   23  C   UNL     3      -9.407   7.868  70.117  1.00  0.00    -0.156 C  
HETATM   24  O   UNL     3      -9.505   9.107  70.778  1.00  0.00    -0.229 OA 
HETATM   25  H   UNL     3      -8.820   9.082  71.436  1.00  0.00     0.000 HD 
BRANCH  23  26
HETATM   26  C   UNL     3      -9.118   6.792  71.261  1.00  0.00    -0.150 C  
HETATM   27  O   UNL     3      -9.133   5.559  70.585  1.00  0.00    -0.141 OA 
HETATM   28  H   UNL     3      -8.961   4.919  71.265  1.00  0.00     0.000 HD 
BRANCH  26  29
HETATM   29  C   UNL     3     -10.006   6.522  72.570  1.00  0.00    -0.170 C  
HETATM   30  C   UNL     3     -11.423   6.036  72.443  1.00  0.00    -0.308 C  
HETATM   31  O   UNL     3     -10.088   7.675  73.380  1.00  0.00    -0.311 OA 
HETATM   32  O   UNL     3     -12.363   6.818  71.882  1.00  0.00    -0.339 OA 
HETATM   33  O   UNL     3     -11.758   4.997  72.989  1.00  0.00    -0.297 OA 
HETATM   34  H   UNL     3     -10.614   7.514  74.155  1.00  0.00     0.000 HD 
ENDBRANCH  26  29
ENDBRANCH  23  26
ENDBRANCH   3  23
BRANCH   3  35
HETATM   35  C   UNL     3     -10.403   8.903  67.818  1.00  0.00    -0.242 C  
HETATM   36  O   UNL     3      -9.533   9.959  68.100  1.00  0.00    -0.138 OA 
HETATM   37  H   UNL     3      -9.446  10.561  67.370  1.00  0.00     0.000 HD 
ENDBRANCH   3  35
TORSDOF 8
ENDMDL
MODEL      280
REMARK 921   NORMALIZED FREE ENERGY PREDICTED BY IDOCK:   -3.54 KCAL/MOL
REMARK 922        TOTAL FREE ENERGY PREDICTED BY IDOCK:   -6.87 KCAL/MOL
REMARK 923 INTER-LIGAND FREE ENERGY PREDICTED BY IDOCK:   -6.24 KCAL/MOL
REMARK 924 INTRA-LIGAND FREE ENERGY PREDICTED BY IDOCK:   -0.63 KCAL/MOL
REMARK 927      BINDING AFFINITY PREDICTED BY RF-SCORE:    0.00 PKD
ROOT
HETATM    1 MN   UNL     1      -8.878  13.305  69.172  1.00  0.00    -0.318 Mn 
HETATM    2  C   UNL     2      -9.391   5.578  69.457  1.00  0.00    -0.130 C  
HETATM    3  C   UNL     3      -7.512  14.993  67.766  1.00  0.00    -0.159 C  
HETATM    4  H   UNL     3      -7.099  16.867  67.473  1.00  0.00     0.000 HD 
HETATM    5  H   UNL     2      -8.752   7.004  70.561  1.00  0.00     0.000 HD 
HETATM    6  O   UNL     2      -8.902   6.075  70.692  1.00  0.00    -0.139 OA 
HETATM    7  O   UNL     3      -6.622  16.046  67.438  1.00  0.00    -0.162 OA 
ENDROOT
BRANCH   2   8
HETATM    8  C   UNL     2      -9.635   4.071  69.670  1.00  0.00    -0.200 C  
HETATM    9  H   UNL     2     -10.209   2.838  71.111  1.00  0.00     0.000 HD 
HETATM   10  O   UNL     2     -10.058   3.767  70.979  1.00  0.00    -0.119 OA 
ENDBRANCH   2   8
BRANCH   2  11
HETATM   11  C   UNL     2      -8.358   5.941  68.318  1.00  0.00    -0.112 C  
HETATM   12  H   UNL     2      -6.640   5.257  67.624  1.00  0.00     0.000 HD 
HETATM   13  O   UNL     2      -7.262   5.039  68.309  1.00  0.00    -0.061 OA 
BRANCH  11  14
HETATM   14  C   UNL     2      -8.928   5.983  66.863  1.00  0.00    -0.117 C  
HETATM   15  H   UNL     2      -8.219   6.361  65.116  1.00  0.00     0.000 HD 
HETATM   16  O   UNL     2      -7.873   6.335  66.000  1.00  0.00    -0.100 OA 
BRANCH  14  17
HETATM   17  C   UNL     2     -10.092   6.975  66.631  1.00  0.00    -0.148 C  
HETATM   18  C   UNL     2      -9.786   8.340  67.222  1.00  0.00    -0.197 C  
HETATM   19  H   UNL     2     -11.973   7.081  67.089  1.00  0.00     0.000 HD 
HETATM   20  O   UNL     2     -11.258   6.473  67.231  1.00  0.00    -0.376 OA 
HETATM   21  O   UNL     2     -10.667   9.344  67.080  1.00  0.00    -0.249 OA 
HETATM   22  O   UNL     2      -8.709   8.575  67.770  1.00  0.00    -0.135 OA 
ENDBRANCH  14  17
ENDBRANCH  11  14
ENDBRANCH   2  11
BRANCH   3  23
HETATM   23  C   UNL     3      -8.763  15.189  66.820  1.00  0.00    -0.273 C  
HETATM   24  O   UNL     3      -9.816  14.528  67.483  1.00  0.00    -0.220 OA 
HETATM   25  H   UNL     3     -10.568  14.646  66.914  1.00  0.00     0.000 HD 
BRANCH  23  26
HETATM   26  C   UNL     3      -9.403  16.524  66.222  1.00  0.00    -0.302 C  
HETATM   27  O   UNL     3      -8.310  17.204  65.654  1.00  0.00    -0.450 OA 
HETATM   28  H   UNL     3      -8.691  17.999  65.299  1.00  0.00     0.000 HD 
BRANCH  26  29
HETATM   29  C   UNL     3     -10.180  17.665  67.041  1.00  0.00    -0.332 C  
HETATM   30  C   UNL     3      -9.958  19.117  66.722  1.00  0.00    -0.361 C  
HETATM   31  O   UNL     3      -9.936  17.556  68.427  1.00  0.00    -0.296 OA 
HETATM   32  O   UNL     3      -8.758  19.685  66.934  1.00  0.00    -0.296 OA 
HETATM   33  O   UNL     3     -10.909  19.822  66.419  1.00  0.00    -0.440 OA 
HETATM   34  H   UNL     3     -10.396  18.232  68.912  1.00  0.00     0.000 HD 
ENDBRANCH  26  29
ENDBRANCH  23  26
ENDBRANCH   3  23
BRANCH   3  35
HETATM   35  C   UNL     3      -6.725  13.639  67.708  1.00  0.00    -0.170 C  
HETATM   36  O   UNL     3      -7.381  12.673  66.940  1.00  0.00    -0.375 OA 
HETATM   37  H   UNL     3      -6.904  11.852  66.905  1.00  0.00     0.000 HD 
ENDBRANCH   3  35
TORSDOF 8
ENDMDL
MODEL      281
REMARK 921   NORMALIZED FREE ENERGY PREDICTED BY IDOCK:   -3.53 KCAL/MOL
REMARK 922        TOTAL FREE ENERGY PREDICTED BY IDOCK:   -6.85 KCAL/MOL
REMARK 923 INTER-LIGAND FREE ENERGY PREDICTED BY IDOCK:   -5.75 KCAL/MOL
REMARK 924 INTRA-LIGAND FREE ENERGY PREDICTED BY IDOCK:   -1.10 KCAL/MOL
REMARK 927      BINDING AFFINITY PREDICTED BY RF-SCORE:    0.00 PKD
ROOT
HETATM    1 MN   UNL     1      -8.922  16.189  65.349  1.00  0.00    -0.272 Mn 
HETATM    2  C   UNL     2      -7.595   8.563  65.716  1.00  0.00    -0.085 C  
HETATM    3  C   UNL     3     -10.101  17.912  66.878  1.00  0.00    -0.348 C  
HETATM    4  H   UNL     3     -10.647  19.764  67.077  1.00  0.00     0.000 HD 
HETATM    5  H   UNL     2      -8.641   9.777  64.671  1.00  0.00     0.000 HD 
HETATM    6  O   UNL     2      -8.420   8.856  64.599  1.00  0.00    -0.167 OA 
HETATM    7  O   UNL     3     -11.003  18.915  67.313  1.00  0.00    -0.436 OA 
ENDROOT
BRANCH   2   8
HETATM    8  C   UNL     2      -7.235   7.068  65.599  1.00  0.00    -0.073 C  
HETATM    9  H   UNL     2      -6.183   5.703  66.574  1.00  0.00     0.000 HD 
HETATM   10  O   UNL     2      -6.405   6.624  66.646  1.00  0.00    -0.039 OA 
ENDBRANCH   2   8
BRANCH   2  11
HETATM   11  C   UNL     2      -8.362   8.973  67.035  1.00  0.00    -0.116 C  
HETATM   12  H   UNL     2      -9.048  10.621  67.879  1.00  0.00     0.000 HD 
HETATM   13  O   UNL     2      -8.587  10.374  67.086  1.00  0.00    -0.129 OA 
BRANCH  11  14
HETATM   14  C   UNL     2      -9.744   8.279  67.268  1.00  0.00    -0.177 C  
HETATM   15  H   UNL     2     -11.549   8.870  67.566  1.00  0.00     0.000 HD 
HETATM   16  O   UNL     2     -10.709   9.291  67.424  1.00  0.00    -0.279 OA 
BRANCH  14  17
HETATM   17  C   UNL     2      -9.821   7.344  68.498  1.00  0.00    -0.159 C  
HETATM   18  C   UNL     2     -10.138   5.915  68.091  1.00  0.00    -0.166 C  
HETATM   19  H   UNL     2     -10.874   7.226  70.122  1.00  0.00     0.000 HD 
HETATM   20  O   UNL     2     -10.826   7.800  69.367  1.00  0.00    -0.207 OA 
HETATM   21  O   UNL     2     -10.203   4.952  69.025  1.00  0.00    -0.179 OA 
HETATM   22  O   UNL     2     -10.265   5.598  66.908  1.00  0.00    -0.178 OA 
ENDBRANCH  14  17
ENDBRANCH  11  14
ENDBRANCH   2  11
BRANCH   3  23
HETATM   23  C   UNL     3      -8.691  18.334  67.457  1.00  0.00    -0.254 C  
HETATM   24  O   UNL     3      -7.933  17.147  67.447  1.00  0.00    -0.175 OA 
HETATM   25  H   UNL     3      -7.086  17.401  67.795  1.00  0.00     0.000 HD 
BRANCH  23  26
HETATM   26  C   UNL     3      -7.690  19.486  66.987  1.00  0.00    -0.253 C  
HETATM   27  O   UNL     3      -7.285  19.086  65.701  1.00  0.00    -0.411 OA 
HETATM   28  H   UNL     3      -6.689  19.771  65.422  1.00  0.00     0.000 HD 
BRANCH  26  29
HETATM   29  C   UNL     3      -6.318  19.915  67.703  1.00  0.00    -0.213 C  
HETATM   30  C   UNL     3      -6.135  19.717  69.182  1.00  0.00    -0.282 C  
HETATM   31  O   UNL     3      -6.030  21.279  67.480  1.00  0.00    -0.305 OA 
HETATM   32  O   UNL     3      -6.889  20.404  70.059  1.00  0.00    -0.145 OA 
HETATM   33  O   UNL     3      -5.197  19.052  69.591  1.00  0.00    -0.179 OA 
HETATM   34  H   UNL     3      -5.219  21.533  67.904  1.00  0.00     0.000 HD 
ENDBRANCH  26  29
ENDBRANCH  23  26
ENDBRANCH   3  23
BRANCH   3  35
HETATM   35  C   UNL     3     -10.688  16.511  67.266  1.00  0.00    -0.243 C  
HETATM   36  O   UNL     3     -11.001  15.736  66.147  1.00  0.00    -0.280 OA 
HETATM   37  H   UNL     3     -11.356  14.886  66.382  1.00  0.00     0.000 HD 
ENDBRANCH   3  35
TORSDOF 8
ENDMDL
MODEL      282
REMARK 921   NORMALIZED FREE ENERGY PREDICTED BY IDOCK:   -3.52 KCAL/MOL
REMARK 922        TOTAL FREE ENERGY PREDICTED BY IDOCK:   -6.84 KCAL/MOL
REMARK 923 INTER-LIGAND FREE ENERGY PREDICTED BY IDOCK:   -6.09 KCAL/MOL
REMARK 924 INTRA-LIGAND FREE ENERGY PREDICTED BY IDOCK:   -0.75 KCAL/MOL
REMARK 927      BINDING AFFINITY PREDICTED BY RF-SCORE:    0.00 PKD
ROOT
HETATM    1 MN   UNL     1      -8.187  16.296  65.556  1.00  0.00    -0.272 Mn 
HETATM    2  C   UNL     2      -6.906   8.927  67.583  1.00  0.00    -0.070 C  
HETATM    3  C   UNL     3     -10.281  17.808  65.399  1.00  0.00     0.351 C  
HETATM    4  H   UNL     3     -10.955  19.561  64.907  1.00  0.00     0.000 HD 
HETATM    5  H   UNL     2      -6.837  10.001  66.001  1.00  0.00     0.000 HD 
HETATM    6  O   UNL     2      -6.553   9.122  66.223  1.00  0.00    -0.065 OA 
HETATM    7  O   UNL     3     -11.271  18.666  64.858  1.00  0.00    -0.314 OA 
ENDROOT
BRANCH   2   8
HETATM    8  C   UNL     2      -6.445   7.500  67.943  1.00  0.00    -0.054 C  
HETATM    9  H   UNL     2      -5.620   6.534  69.462  1.00  0.00     0.000 HD 
HETATM   10  O   UNL     2      -5.904   7.413  69.240  1.00  0.00    -0.025 OA 
ENDBRANCH   2   8
BRANCH   2  11
HETATM   11  C   UNL     2      -8.453   9.201  67.751  1.00  0.00    -0.117 C  
HETATM   12  H   UNL     2      -9.857   8.899  69.105  1.00  0.00     0.000 HD 
HETATM   13  O   UNL     2      -8.927   8.734  69.004  1.00  0.00    -0.136 OA 
BRANCH  11  14
HETATM   14  C   UNL     2      -8.902  10.694  67.619  1.00  0.00    -0.131 C  
HETATM   15  H   UNL     2      -8.051  12.409  67.794  1.00  0.00     0.000 HD 
HETATM   16  O   UNL     2      -7.778  11.502  67.873  1.00  0.00    -0.109 OA 
BRANCH  14  17
HETATM   17  C   UNL     2     -10.039  11.134  68.571  1.00  0.00    -0.201 C  
HETATM   18  C   UNL     2     -11.404  10.773  68.011  1.00  0.00    -0.307 C  
HETATM   19  H   UNL     2     -10.677  12.796  69.339  1.00  0.00     0.000 HD 
HETATM   20  O   UNL     2      -9.979  12.525  68.755  1.00  0.00    -0.145 OA 
HETATM   21  O   UNL     2     -12.512  11.041  68.723  1.00  0.00    -0.468 OA 
HETATM   22  O   UNL     2     -11.521  10.167  66.947  1.00  0.00     0.052 OA 
ENDBRANCH  14  17
ENDBRANCH  11  14
ENDBRANCH   2  11
BRANCH   3  23
HETATM   23  C   UNL     3      -9.926  18.414  66.815  1.00  0.00    -0.360 C  
HETATM   24  O   UNL     3     -10.636  17.613  67.732  1.00  0.00    -0.374 OA 
HETATM   25  H   UNL     3     -10.423  17.977  68.583  1.00  0.00     0.000 HD 
BRANCH  23  26
HETATM   26  C   UNL     3      -8.506  18.684  67.492  1.00  0.00    -0.265 C  
HETATM   27  O   UNL     3      -8.784  19.608  68.516  1.00  0.00    -0.348 OA 
HETATM   28  H   UNL     3      -7.939  19.770  68.919  1.00  0.00     0.000 HD 
BRANCH  26  29
HETATM   29  C   UNL     3      -7.202  19.287  66.777  1.00  0.00    -0.210 C  
HETATM   30  C   UNL     3      -6.527  18.537  65.662  1.00  0.00    -0.284 C  
HETATM   31  O   UNL     3      -6.177  19.545  67.713  1.00  0.00    -0.204 OA 
HETATM   32  O   UNL     3      -5.935  17.353  65.900  1.00  0.00    -0.164 OA 
HETATM   33  O   UNL     3      -6.380  19.073  64.575  1.00  0.00    -0.480 OA 
HETATM   34  H   UNL     3      -5.405  19.902  67.289  1.00  0.00     0.000 HD 
ENDBRANCH  26  29
ENDBRANCH  23  26
ENDBRANCH   3  23
BRANCH   3  35
HETATM   35  C   UNL     3     -10.802  16.332  65.317  1.00  0.00    -0.297 C  
HETATM   36  O   UNL     3     -11.356  16.030  64.070  1.00  0.00    -1.093 OA 
HETATM   37  H   UNL     3     -11.671  15.135  64.021  1.00  0.00     0.000 HD 
ENDBRANCH   3  35
TORSDOF 8
ENDMDL
MODEL      283
REMARK 921   NORMALIZED FREE ENERGY PREDICTED BY IDOCK:   -3.50 KCAL/MOL
REMARK 922        TOTAL FREE ENERGY PREDICTED BY IDOCK:   -6.81 KCAL/MOL
REMARK 923 INTER-LIGAND FREE ENERGY PREDICTED BY IDOCK:   -5.29 KCAL/MOL
REMARK 924 INTRA-LIGAND FREE ENERGY PREDICTED BY IDOCK:   -1.52 KCAL/MOL
REMARK 927      BINDING AFFINITY PREDICTED BY RF-SCORE:    0.00 PKD
ROOT
HETATM    1 MN   UNL     1      -9.130  10.951  68.774  1.00  0.00    -0.127 Mn 
HETATM    2  C   UNL     2      -9.387  18.349  66.481  1.00  0.00    -0.309 C  
HETATM    3  C   UNL     3      -7.352   9.073  68.685  1.00  0.00    -0.077 C  
HETATM    4  H   UNL     3      -6.972   7.209  69.074  1.00  0.00     0.000 HD 
HETATM    5  H   UNL     2     -10.198  16.682  66.007  1.00  0.00     0.000 HD 
HETATM    6  O   UNL     2     -10.353  17.590  65.772  1.00  0.00    -0.560 OA 
HETATM    7  O   UNL     3      -6.735   7.830  68.395  1.00  0.00    -0.058 OA 
ENDROOT
BRANCH   2   8
HETATM    8  C   UNL     2      -9.638  19.821  66.100  1.00  0.00    -0.398 C  
HETATM    9  H   UNL     2      -9.582  21.614  66.941  1.00  0.00     0.000 HD 
HETATM   10  O   UNL     2      -9.427  20.706  67.175  1.00  0.00    -0.415 OA 
ENDBRANCH   2   8
BRANCH   2  11
HETATM   11  C   UNL     2      -7.949  17.795  66.131  1.00  0.00    -0.202 C  
HETATM   12  H   UNL     2      -6.261  18.477  65.366  1.00  0.00     0.000 HD 
HETATM   13  O   UNL     2      -7.126  18.810  65.576  1.00  0.00    -0.470 OA 
BRANCH  11  14
HETATM   14  C   UNL     2      -7.153  17.157  67.316  1.00  0.00    -0.165 C  
HETATM   15  H   UNL     2      -7.028  15.410  68.109  1.00  0.00     0.000 HD 
HETATM   16  O   UNL     2      -7.511  15.798  67.389  1.00  0.00    -0.156 OA 
BRANCH  14  17
HETATM   17  C   UNL     2      -7.396  17.796  68.704  1.00  0.00    -0.269 C  
HETATM   18  C   UNL     2      -6.247  18.702  69.108  1.00  0.00    -0.255 C  
HETATM   19  H   UNL     2      -7.682  17.173  70.517  1.00  0.00     0.000 HD 
HETATM   20  O   UNL     2      -7.533  16.781  69.665  1.00  0.00     0.002 OA 
HETATM   21  O   UNL     2      -6.303  19.378  70.268  1.00  0.00    -0.201 OA 
HETATM   22  O   UNL     2      -5.288  18.894  68.360  1.00  0.00    -0.185 OA 
ENDBRANCH  14  17
ENDBRANCH  11  14
ENDBRANCH   2  11
BRANCH   3  23
HETATM   23  C   UNL     3      -6.962   9.397  70.183  1.00  0.00    -0.077 C  
HETATM   24  O   UNL     3      -6.983  10.804  70.259  1.00  0.00    -0.391 OA 
HETATM   25  H   UNL     3      -6.749  10.998  71.159  1.00  0.00     0.000 HD 
BRANCH  23  26
HETATM   26  C   UNL     3      -7.611   8.884  71.548  1.00  0.00    -0.053 C  
HETATM   27  O   UNL     3      -6.527   8.822  72.442  1.00  0.00    -0.150 OA 
HETATM   28  H   UNL     3      -6.913   8.516  73.255  1.00  0.00     0.000 HD 
BRANCH  26  29
HETATM   29  C   UNL     3      -8.380   7.494  71.783  1.00  0.00    -0.107 C  
HETATM   30  C   UNL     3      -8.456   6.887  73.156  1.00  0.00    -0.117 C  
HETATM   31  O   UNL     3      -7.854   6.473  70.962  1.00  0.00    -0.105 OA 
HETATM   32  O   UNL     3      -7.341   6.454  73.771  1.00  0.00    -0.086 OA 
HETATM   33  O   UNL     3      -9.546   6.642  73.649  1.00  0.00    -0.157 OA 
HETATM   34  H   UNL     3      -8.309   5.651  71.101  1.00  0.00     0.000 HD 
ENDBRANCH  26  29
ENDBRANCH  23  26
ENDBRANCH   3  23
BRANCH   3  35
HETATM   35  C   UNL     3      -6.961  10.097  67.565  1.00  0.00    -0.085 C  
HETATM   36  O   UNL     3      -8.013  10.346  66.679  1.00  0.00    -0.113 OA 
HETATM   37  H   UNL     3      -7.776  10.967  66.000  1.00  0.00     0.000 HD 
ENDBRANCH   3  35
TORSDOF 8
ENDMDL
MODEL      284
REMARK 921   NORMALIZED FREE ENERGY PREDICTED BY IDOCK:   -3.50 KCAL/MOL
REMARK 922        TOTAL FREE ENERGY PREDICTED BY IDOCK:   -6.81 KCAL/MOL
REMARK 923 INTER-LIGAND FREE ENERGY PREDICTED BY IDOCK:   -6.18 KCAL/MOL
REMARK 924 INTRA-LIGAND FREE ENERGY PREDICTED BY IDOCK:   -0.63 KCAL/MOL
REMARK 927      BINDING AFFINITY PREDICTED BY RF-SCORE:    0.00 PKD
ROOT
HETATM    1 MN   UNL     1     -11.791  12.701  66.682  1.00  0.00    -0.285 Mn 
HETATM    2  C   UNL     2      -9.115   5.433  66.940  1.00  0.00    -0.114 C  
HETATM    3  C   UNL     3     -11.504  14.806  68.160  1.00  0.00    -0.323 C  
HETATM    4  H   UNL     3     -12.028  16.655  68.430  1.00  0.00     0.000 HD 
HETATM    5  H   UNL     2     -10.787   6.343  67.139  1.00  0.00     0.000 HD 
HETATM    6  O   UNL     2     -10.529   5.432  67.061  1.00  0.00    -0.238 OA 
HETATM    7  O   UNL     3     -11.825  15.912  68.986  1.00  0.00    -0.389 OA 
ENDROOT
BRANCH   2   8
HETATM    8  C   UNL     2      -8.697   3.955  66.813  1.00  0.00    -0.115 C  
HETATM    9  H   UNL     2      -8.854   2.461  65.521  1.00  0.00     0.000 HD 
HETATM   10  O   UNL     2      -9.112   3.372  65.599  1.00  0.00    -0.140 OA 
ENDBRANCH   2   8
BRANCH   2  11
HETATM   11  C   UNL     2      -8.501   6.207  68.172  1.00  0.00    -0.116 C  
HETATM   12  H   UNL     2      -6.717   6.552  68.945  1.00  0.00     0.000 HD 
HETATM   13  O   UNL     2      -7.087   6.086  68.204  1.00  0.00    -0.073 OA 
BRANCH  11  14
HETATM   14  C   UNL     2      -8.831   7.734  68.257  1.00  0.00    -0.129 C  
HETATM   15  H   UNL     2      -9.402   9.089  67.019  1.00  0.00     0.000 HD 
HETATM   16  O   UNL     2      -9.202   8.162  66.968  1.00  0.00    -0.141 OA 
BRANCH  14  17
HETATM   17  C   UNL     2      -7.679   8.639  68.754  1.00  0.00    -0.097 C  
HETATM   18  C   UNL     2      -7.613   8.671  70.271  1.00  0.00    -0.074 C  
HETATM   19  H   UNL     2      -7.172  10.503  68.587  1.00  0.00     0.000 HD 
HETATM   20  O   UNL     2      -7.879   9.947  68.282  1.00  0.00    -0.085 OA 
HETATM   21  O   UNL     2      -6.646   9.374  70.884  1.00  0.00    -0.085 OA 
HETATM   22  O   UNL     2      -8.383   8.003  70.961  1.00  0.00    -0.108 OA 
ENDBRANCH  14  17
ENDBRANCH  11  14
ENDBRANCH   2  11
BRANCH   3  23
HETATM   23  C   UNL     3     -10.399  15.333  67.160  1.00  0.00    -0.265 C  
HETATM   24  O   UNL     3     -10.649  14.643  65.957  1.00  0.00    -0.290 OA 
HETATM   25  H   UNL     3      -9.985  14.961  65.357  1.00  0.00     0.000 HD 
BRANCH  23  26
HETATM   26  C   UNL     3     -10.029  16.826  66.729  1.00  0.00    -0.282 C  
HETATM   27  O   UNL     3      -9.034  16.664  65.749  1.00  0.00    -0.498 OA 
HETATM   28  H   UNL     3      -8.814  17.552  65.493  1.00  0.00     0.000 HD 
BRANCH  26  29
HETATM   29  C   UNL     3      -9.447  17.982  67.678  1.00  0.00    -0.264 C  
HETATM   30  C   UNL     3      -9.666  19.430  67.339  1.00  0.00    -0.328 C  
HETATM   31  O   UNL     3      -8.051  17.854  67.843  1.00  0.00    -0.234 OA 
HETATM   32  O   UNL     3      -9.111  19.961  66.235  1.00  0.00    -0.366 OA 
HETATM   33  O   UNL     3     -10.216  20.164  68.146  1.00  0.00    -0.410 OA 
HETATM   34  H   UNL     3      -7.706  18.539  68.405  1.00  0.00     0.000 HD 
ENDBRANCH  26  29
ENDBRANCH  23  26
ENDBRANCH   3  23
BRANCH   3  35
HETATM   35  C   UNL     3     -11.169  13.579  69.077  1.00  0.00    -0.269 C  
HETATM   36  O   UNL     3     -11.663  13.733  70.375  1.00  0.00    -0.457 OA 
HETATM   37  H   UNL     3     -11.460  12.990  70.931  1.00  0.00     0.000 HD 
ENDBRANCH   3  35
TORSDOF 8
ENDMDL
MODEL      285
REMARK 921   NORMALIZED FREE ENERGY PREDICTED BY IDOCK:   -3.48 KCAL/MOL
REMARK 922        TOTAL FREE ENERGY PREDICTED BY IDOCK:   -6.79 KCAL/MOL
REMARK 923 INTER-LIGAND FREE ENERGY PREDICTED BY IDOCK:   -5.55 KCAL/MOL
REMARK 924 INTRA-LIGAND FREE ENERGY PREDICTED BY IDOCK:   -1.24 KCAL/MOL
REMARK 927      BINDING AFFINITY PREDICTED BY RF-SCORE:    0.00 PKD
ROOT
HETATM    1 MN   UNL     1      -8.160  15.932  65.341  1.00  0.00    -0.063 Mn 
HETATM    2  C   UNL     2      -8.074   8.197  64.873  1.00  0.00    -0.153 C  
HETATM    3  C   UNL     3      -9.890  17.694  66.114  1.00  0.00    -0.242 C  
HETATM    4  H   UNL     3     -10.267  19.589  66.305  1.00  0.00     0.000 HD 
HETATM    5  H   UNL     2      -8.078   9.695  63.683  1.00  0.00     0.000 HD 
HETATM    6  O   UNL     2      -7.946   8.760  63.578  1.00  0.00    -0.142 OA 
HETATM    7  O   UNL     3     -10.764  18.809  66.085  1.00  0.00    -0.393 OA 
ENDROOT
BRANCH   2   8
HETATM    8  C   UNL     2      -7.859   6.680  64.702  1.00  0.00    -0.116 C  
HETATM    9  H   UNL     2      -6.969   5.180  65.641  1.00  0.00     0.000 HD 
HETATM   10  O   UNL     2      -7.102   6.115  65.747  1.00  0.00    -0.069 OA 
ENDBRANCH   2   8
BRANCH   2  11
HETATM   11  C   UNL     2      -9.473   8.619  65.474  1.00  0.00     0.052 C  
HETATM   12  H   UNL     2     -10.625   8.117  66.997  1.00  0.00     0.000 HD 
HETATM   13  O   UNL     2      -9.784   7.863  66.635  1.00  0.00    -0.209 OA 
BRANCH  11  14
HETATM   14  C   UNL     2      -9.628  10.128  65.855  1.00  0.00    -0.218 C  
HETATM   15  H   UNL     2      -8.431  11.572  66.275  1.00  0.00     0.000 HD 
HETATM   16  O   UNL     2      -8.337  10.656  66.043  1.00  0.00    -0.150 OA 
BRANCH  14  17
HETATM   17  C   UNL     2     -10.456  10.412  67.130  1.00  0.00    -0.256 C  
HETATM   18  C   UNL     2     -11.288  11.674  66.983  1.00  0.00    -0.305 C  
HETATM   19  H   UNL     2     -10.097  10.741  69.007  1.00  0.00     0.000 HD 
HETATM   20  O   UNL     2      -9.589  10.567  68.224  1.00  0.00    -0.150 OA 
HETATM   21  O   UNL     2     -12.106  12.057  67.978  1.00  0.00    -0.514 OA 
HETATM   22  O   UNL     2     -11.290  12.322  65.937  1.00  0.00    -0.328 OA 
ENDBRANCH  14  17
ENDBRANCH  11  14
ENDBRANCH   2  11
BRANCH   3  23
HETATM   23  C   UNL     3      -9.162  17.765  67.516  1.00  0.00    -0.244 C  
HETATM   24  O   UNL     3     -10.149  17.385  68.447  1.00  0.00    -0.304 OA 
HETATM   25  H   UNL     3      -9.712  17.427  69.289  1.00  0.00     0.000 HD 
BRANCH  23  26
HETATM   26  C   UNL     3      -7.814  17.069  68.012  1.00  0.00    -0.182 C  
HETATM   27  O   UNL     3      -8.170  15.720  68.194  1.00  0.00    -0.139 OA 
HETATM   28  H   UNL     3      -7.368  15.306  68.489  1.00  0.00     0.000 HD 
BRANCH  26  29
HETATM   29  C   UNL     3      -6.981  17.426  69.337  1.00  0.00    -0.108 C  
HETATM   30  C   UNL     3      -6.222  18.720  69.435  1.00  0.00    -0.270 C  
HETATM   31  O   UNL     3      -6.030  16.424  69.629  1.00  0.00    -0.168 OA 
HETATM   32  O   UNL     3      -5.173  18.956  68.627  1.00  0.00    -0.189 OA 
HETATM   33  O   UNL     3      -6.457  19.491  70.352  1.00  0.00    -0.152 OA 
HETATM   34  H   UNL     3      -5.537  16.636  70.413  1.00  0.00     0.000 HD 
ENDBRANCH  26  29
ENDBRANCH  23  26
ENDBRANCH   3  23
BRANCH   3  35
HETATM   35  C   UNL     3     -10.710  16.408  65.752  1.00  0.00    -0.238 C  
HETATM   36  O   UNL     3     -10.649  15.438  66.755  1.00  0.00    -0.298 OA 
HETATM   37  H   UNL     3     -11.147  14.658  66.536  1.00  0.00     0.000 HD 
ENDBRANCH   3  35
TORSDOF 8
ENDMDL
MODEL      286
REMARK 921   NORMALIZED FREE ENERGY PREDICTED BY IDOCK:   -3.47 KCAL/MOL
REMARK 922        TOTAL FREE ENERGY PREDICTED BY IDOCK:   -6.76 KCAL/MOL
REMARK 923 INTER-LIGAND FREE ENERGY PREDICTED BY IDOCK:   -6.39 KCAL/MOL
REMARK 924 INTRA-LIGAND FREE ENERGY PREDICTED BY IDOCK:   -0.37 KCAL/MOL
REMARK 927      BINDING AFFINITY PREDICTED BY RF-SCORE:    0.00 PKD
ROOT
HETATM    1 MN   UNL     1      -9.910  13.980  69.473  1.00  0.00    -0.354 Mn 
HETATM    2  C   UNL     2      -9.834   6.333  68.220  1.00  0.00    -0.126 C  
HETATM    3  C   UNL     3      -8.470  15.975  68.672  1.00  0.00    -0.208 C  
HETATM    4  H   UNL     3      -8.168  17.888  68.811  1.00  0.00     0.000 HD 
HETATM    5  H   UNL     2      -9.505   7.542  69.666  1.00  0.00     0.000 HD 
HETATM    6  O   UNL     2      -9.599   6.600  69.594  1.00  0.00    -0.151 OA 
HETATM    7  O   UNL     3      -7.626  17.113  68.710  1.00  0.00    -0.243 OA 
ENDROOT
BRANCH   2   8
HETATM    8  C   UNL     2      -9.987   4.803  68.103  1.00  0.00    -0.087 C  
HETATM    9  H   UNL     2     -10.003   3.208  69.276  1.00  0.00     0.000 HD 
HETATM   10  O   UNL     2      -9.908   4.150  69.348  1.00  0.00    -0.197 OA 
ENDBRANCH   2   8
BRANCH   2  11
HETATM   11  C   UNL     2      -8.659   6.963  67.373  1.00  0.00    -0.121 C  
HETATM   12  H   UNL     2      -8.447   8.256  65.896  1.00  0.00     0.000 HD 
HETATM   13  O   UNL     2      -9.153   7.877  66.405  1.00  0.00    -0.162 OA 
BRANCH  11  14
HETATM   14  C   UNL     2      -7.552   7.711  68.186  1.00  0.00    -0.114 C  
HETATM   15  H   UNL     2      -6.655   7.438  69.864  1.00  0.00     0.000 HD 
HETATM   16  O   UNL     2      -7.327   6.984  69.370  1.00  0.00    -0.086 OA 
BRANCH  14  17
HETATM   17  C   UNL     2      -7.881   9.173  68.571  1.00  0.00    -0.101 C  
HETATM   18  C   UNL     2      -6.753  10.115  68.189  1.00  0.00    -0.062 C  
HETATM   19  H   UNL     2      -8.289  10.149  70.195  1.00  0.00     0.000 HD 
HETATM   20  O   UNL     2      -8.087   9.252  69.958  1.00  0.00    -0.102 OA 
HETATM   21  O   UNL     2      -6.880  11.435  68.410  1.00  0.00    -0.062 OA 
HETATM   22  O   UNL     2      -5.747   9.709  67.609  1.00  0.00    -0.040 OA 
ENDBRANCH  14  17
ENDBRANCH  11  14
ENDBRANCH   2  11
BRANCH   3  23
HETATM   23  C   UNL     3      -9.559  16.294  67.570  1.00  0.00    -0.230 C  
HETATM   24  O   UNL     3      -8.966  17.282  66.761  1.00  0.00    -0.231 OA 
HETATM   25  H   UNL     3      -9.620  17.473  66.099  1.00  0.00     0.000 HD 
BRANCH  23  26
HETATM   26  C   UNL     3     -10.321  15.316  66.565  1.00  0.00    -0.286 C  
HETATM   27  O   UNL     3     -10.989  16.183  65.682  1.00  0.00    -0.253 OA 
HETATM   28  H   UNL     3     -11.443  15.602  65.084  1.00  0.00     0.000 HD 
BRANCH  26  29
HETATM   29  C   UNL     3     -11.437  14.227  66.947  1.00  0.00    -0.363 C  
HETATM   30  C   UNL     3     -12.196  13.502  65.870  1.00  0.00    -0.460 C  
HETATM   31  O   UNL     3     -12.431  14.783  67.781  1.00  0.00    -0.533 OA 
HETATM   32  O   UNL     3     -13.031  14.174  65.057  1.00  0.00    -0.721 OA 
HETATM   33  O   UNL     3     -12.177  12.282  65.833  1.00  0.00    -0.634 OA 
HETATM   34  H   UNL     3     -13.091  14.137  68.007  1.00  0.00     0.000 HD 
ENDBRANCH  26  29
ENDBRANCH  23  26
ENDBRANCH   3  23
BRANCH   3  35
HETATM   35  C   UNL     3      -7.577  14.698  68.505  1.00  0.00    -0.120 C  
HETATM   36  O   UNL     3      -7.424  13.994  69.702  1.00  0.00    -0.342 OA 
HETATM   37  H   UNL     3      -6.883  13.219  69.600  1.00  0.00     0.000 HD 
ENDBRANCH   3  35
TORSDOF 8
ENDMDL
MODEL      287
REMARK 921   NORMALIZED FREE ENERGY PREDICTED BY IDOCK:   -3.44 KCAL/MOL
REMARK 922        TOTAL FREE ENERGY PREDICTED BY IDOCK:   -6.73 KCAL/MOL
REMARK 923 INTER-LIGAND FREE ENERGY PREDICTED BY IDOCK:   -6.73 KCAL/MOL
REMARK 924 INTRA-LIGAND FREE ENERGY PREDICTED BY IDOCK:    0.00 KCAL/MOL
REMARK 927      BINDING AFFINITY PREDICTED BY RF-SCORE:    0.00 PKD
ROOT
HETATM    1 MN   UNL     1      -8.425   9.105  66.021  1.00  0.00    -0.108 Mn 
HETATM    2  C   UNL     2      -9.871  16.705  66.474  1.00  0.00    -0.281 C  
HETATM    3  C   UNL     3      -7.976   7.227  67.743  1.00  0.00    -0.115 C  
HETATM    4  H   UNL     3      -7.541   5.350  67.987  1.00  0.00     0.000 HD 
HETATM    5  H   UNL     2      -8.469  15.556  65.859  1.00  0.00     0.000 HD 
HETATM    6  O   UNL     2      -8.651  16.486  65.783  1.00  0.00    -0.442 OA 
HETATM    7  O   UNL     3      -7.327   6.167  68.424  1.00  0.00    -0.082 OA 
ENDROOT
BRANCH   2   8
HETATM    8  C   UNL     2     -10.166  18.213  66.350  1.00  0.00    -0.399 C  
HETATM    9  H   UNL     2     -11.093  19.460  65.121  1.00  0.00     0.000 HD 
HETATM   10  O   UNL     2     -10.911  18.530  65.197  1.00  0.00    -0.588 OA 
ENDBRANCH   2   8
BRANCH   2  11
HETATM   11  C   UNL     2      -9.722  16.163  67.950  1.00  0.00    -0.225 C  
HETATM   12  H   UNL     2      -8.989  16.787  69.674  1.00  0.00     0.000 HD 
HETATM   13  O   UNL     2      -9.078  17.112  68.786  1.00  0.00    -0.270 OA 
BRANCH  11  14
HETATM   14  C   UNL     2     -11.051  15.751  68.666  1.00  0.00    -0.327 C  
HETATM   15  H   UNL     2     -11.582  15.378  70.475  1.00  0.00     0.000 HD 
HETATM   16  O   UNL     2     -10.775  15.628  70.040  1.00  0.00    -0.289 OA 
BRANCH  14  17
HETATM   17  C   UNL     2     -11.688  14.428  68.180  1.00  0.00    -0.342 C  
HETATM   18  C   UNL     2     -10.699  13.278  68.247  1.00  0.00    -0.252 C  
HETATM   19  H   UNL     2     -12.509  13.767  66.553  1.00  0.00     0.000 HD 
HETATM   20  O   UNL     2     -12.118  14.579  66.852  1.00  0.00    -0.399 OA 
HETATM   21  O   UNL     2     -11.089  12.039  67.904  1.00  0.00    -0.209 OA 
HETATM   22  O   UNL     2      -9.559  13.436  68.683  1.00  0.00    -0.172 OA 
ENDBRANCH  14  17
ENDBRANCH  11  14
ENDBRANCH   2  11
BRANCH   3  23
HETATM   23  C   UNL     3      -9.493   6.795  67.639  1.00  0.00    -0.118 C  
HETATM   24  O   UNL     3      -9.462   5.386  67.642  1.00  0.00    -0.116 OA 
HETATM   25  H   UNL     3     -10.374   5.127  67.579  1.00  0.00     0.000 HD 
BRANCH  23  26
HETATM   26  C   UNL     3     -10.742   7.198  68.547  1.00  0.00    -0.152 C  
HETATM   27  O   UNL     3     -11.137   8.454  68.051  1.00  0.00    -0.454 OA 
HETATM   28  H   UNL     3     -11.880   8.694  68.592  1.00  0.00     0.000 HD 
BRANCH  26  29
HETATM   29  C   UNL     3     -10.746   7.398  70.140  1.00  0.00    -0.242 C  
HETATM   30  C   UNL     3      -9.891   6.529  71.020  1.00  0.00    -0.179 C  
HETATM   31  O   UNL     3     -12.050   7.279  70.668  1.00  0.00    -0.489 OA 
HETATM   32  O   UNL     3     -10.135   5.209  71.115  1.00  0.00    -0.201 OA 
HETATM   33  O   UNL     3      -9.076   7.043  71.769  1.00  0.00    -0.138 OA 
HETATM   34  H   UNL     3     -12.051   7.397  71.611  1.00  0.00     0.000 HD 
ENDBRANCH  26  29
ENDBRANCH  23  26
ENDBRANCH   3  23
BRANCH   3  35
HETATM   35  C   UNL     3      -7.621   8.573  68.464  1.00  0.00    -0.095 C  
HETATM   36  O   UNL     3      -6.257   8.686  68.742  1.00  0.00    -0.044 OA 
HETATM   37  H   UNL     3      -6.042   9.502  69.179  1.00  0.00     0.000 HD 
ENDBRANCH   3  35
TORSDOF 8
ENDMDL
MODEL      288
REMARK 921   NORMALIZED FREE ENERGY PREDICTED BY IDOCK:   -3.42 KCAL/MOL
REMARK 922        TOTAL FREE ENERGY PREDICTED BY IDOCK:   -6.70 KCAL/MOL
REMARK 923 INTER-LIGAND FREE ENERGY PREDICTED BY IDOCK:   -6.75 KCAL/MOL
REMARK 924 INTRA-LIGAND FREE ENERGY PREDICTED BY IDOCK:    0.05 KCAL/MOL
REMARK 927      BINDING AFFINITY PREDICTED BY RF-SCORE:    0.00 PKD
ROOT
HETATM    1 MN   UNL     1      -8.543  13.519  65.739  1.00  0.00    -0.402 Mn 
HETATM    2  C   UNL     2      -8.451   7.217  70.249  1.00  0.00    -0.137 C  
HETATM    3  C   UNL     3      -9.900  15.722  65.709  1.00  0.00    -0.348 C  
HETATM    4  H   UNL     3     -10.225  17.388  64.767  1.00  0.00     0.000 HD 
HETATM    5  H   UNL     2      -8.935   7.678  68.456  1.00  0.00     0.000 HD 
HETATM    6  O   UNL     2      -8.829   6.861  68.929  1.00  0.00    -0.130 OA 
HETATM    7  O   UNL     3     -10.749  16.761  65.252  1.00  0.00    -0.576 OA 
ENDROOT
BRANCH   2   8
HETATM    8  C   UNL     2      -8.279   5.891  71.016  1.00  0.00    -0.122 C  
HETATM    9  H   UNL     2      -8.023   3.964  70.633  1.00  0.00     0.000 HD 
HETATM   10  O   UNL     2      -8.129   4.782  70.160  1.00  0.00    -0.067 OA 
ENDBRANCH   2   8
BRANCH   2  11
HETATM   11  C   UNL     2      -9.534   8.205  70.838  1.00  0.00    -0.162 C  
HETATM   12  H   UNL     2      -9.622  10.070  71.480  1.00  0.00     0.000 HD 
HETATM   13  O   UNL     2      -8.971   9.476  71.126  1.00  0.00    -0.249 OA 
BRANCH  11  14
HETATM   14  C   UNL     2     -10.793   8.454  69.944  1.00  0.00    -0.207 C  
HETATM   15  H   UNL     2     -11.823   7.415  68.697  1.00  0.00     0.000 HD 
HETATM   16  O   UNL     2     -11.059   7.265  69.240  1.00  0.00    -0.152 OA 
BRANCH  14  17
HETATM   17  C   UNL     2     -10.666   9.605  68.919  1.00  0.00    -0.206 C  
HETATM   18  C   UNL     2     -11.711  10.680  69.159  1.00  0.00    -0.253 C  
HETATM   19  H   UNL     2     -10.755   9.799  66.992  1.00  0.00     0.000 HD 
HETATM   20  O   UNL     2     -10.833   9.092  67.622  1.00  0.00    -0.234 OA 
HETATM   21  O   UNL     2     -11.727  11.781  68.389  1.00  0.00    -0.302 OA 
HETATM   22  O   UNL     2     -12.505  10.606  70.096  1.00  0.00    -0.322 OA 
ENDBRANCH  14  17
ENDBRANCH  11  14
ENDBRANCH   2  11
BRANCH   3  23
HETATM   23  C   UNL     3      -8.704  16.447  66.446  1.00  0.00    -0.319 C  
HETATM   24  O   UNL     3      -8.549  17.666  65.756  1.00  0.00    -0.516 OA 
HETATM   25  H   UNL     3      -7.830  18.101  66.199  1.00  0.00     0.000 HD 
BRANCH  23  26
HETATM   26  C   UNL     3      -8.510  16.800  67.990  1.00  0.00    -0.205 C  
HETATM   27  O   UNL     3      -9.176  18.028  68.149  1.00  0.00    -0.265 OA 
HETATM   28  H   UNL     3      -9.060  18.239  69.067  1.00  0.00     0.000 HD 
BRANCH  26  29
HETATM   29  C   UNL     3      -7.117  17.019  68.757  1.00  0.00    -0.219 C  
HETATM   30  C   UNL     3      -6.594  18.406  69.009  1.00  0.00    -0.259 C  
HETATM   31  O   UNL     3      -6.062  16.346  68.103  1.00  0.00    -0.110 OA 
HETATM   32  O   UNL     3      -6.232  19.194  67.981  1.00  0.00    -0.208 OA 
HETATM   33  O   UNL     3      -6.350  18.762  70.151  1.00  0.00    -0.135 OA 
HETATM   34  H   UNL     3      -5.237  16.476  68.557  1.00  0.00     0.000 HD 
ENDBRANCH  26  29
ENDBRANCH  23  26
ENDBRANCH   3  23
BRANCH   3  35
HETATM   35  C   UNL     3     -10.765  14.687  66.509  1.00  0.00    -0.312 C  
HETATM   36  O   UNL     3     -11.524  15.292  67.514  1.00  0.00    -0.333 OA 
HETATM   37  H   UNL     3     -12.048  14.665  67.999  1.00  0.00     0.000 HD 
ENDBRANCH   3  35
TORSDOF 8
ENDMDL
MODEL      289
REMARK 921   NORMALIZED FREE ENERGY PREDICTED BY IDOCK:   -3.41 KCAL/MOL
REMARK 922        TOTAL FREE ENERGY PREDICTED BY IDOCK:   -6.68 KCAL/MOL
REMARK 923 INTER-LIGAND FREE ENERGY PREDICTED BY IDOCK:   -6.15 KCAL/MOL
REMARK 924 INTRA-LIGAND FREE ENERGY PREDICTED BY IDOCK:   -0.53 KCAL/MOL
REMARK 927      BINDING AFFINITY PREDICTED BY RF-SCORE:    0.00 PKD
ROOT
HETATM    1 MN   UNL     1      -9.479  14.159  69.990  1.00  0.00    -0.351 Mn 
HETATM    2  C   UNL     2      -9.076   6.683  71.992  1.00  0.00    -0.139 C  
HETATM    3  C   UNL     3      -8.094  15.714  68.453  1.00  0.00    -0.137 C  
HETATM    4  H   UNL     3      -7.868  17.527  67.797  1.00  0.00     0.000 HD 
HETATM    5  H   UNL     2      -8.834   8.393  72.816  1.00  0.00     0.000 HD 
HETATM    6  O   UNL     2      -8.890   7.500  73.136  1.00  0.00    -0.135 OA 
HETATM    7  O   UNL     3      -7.295  16.805  68.028  1.00  0.00    -0.154 OA 
ENDROOT
BRANCH   2   8
HETATM    8  C   UNL     2      -9.168   5.235  72.512  1.00  0.00    -0.136 C  
HETATM    9  H   UNL     2      -8.070   3.940  73.533  1.00  0.00     0.000 HD 
HETATM   10  O   UNL     2      -8.014   4.833  73.212  1.00  0.00    -0.098 OA 
ENDBRANCH   2   8
BRANCH   2  11
HETATM   11  C   UNL     2      -7.903   6.963  70.972  1.00  0.00    -0.097 C  
HETATM   12  H   UNL     2      -7.423   6.477  69.119  1.00  0.00     0.000 HD 
HETATM   13  O   UNL     2      -8.128   6.308  69.733  1.00  0.00    -0.115 OA 
BRANCH  11  14
HETATM   14  C   UNL     2      -7.620   8.467  70.649  1.00  0.00    -0.076 C  
HETATM   15  H   UNL     2      -7.479  10.092  71.667  1.00  0.00     0.000 HD 
HETATM   16  O   UNL     2      -7.651   9.178  71.863  1.00  0.00    -0.340 OA 
BRANCH  14  17
HETATM   17  C   UNL     2      -8.614   9.138  69.671  1.00  0.00    -0.143 C  
HETATM   18  C   UNL     2      -7.947  10.245  68.874  1.00  0.00    -0.113 C  
HETATM   19  H   UNL     2     -10.294  10.096  69.798  1.00  0.00     0.000 HD 
HETATM   20  O   UNL     2      -9.684   9.684  70.398  1.00  0.00    -0.250 OA 
HETATM   21  O   UNL     2      -8.647  10.914  67.942  1.00  0.00    -0.126 OA 
HETATM   22  O   UNL     2      -6.750  10.500  69.006  1.00  0.00    -0.056 OA 
ENDBRANCH  14  17
ENDBRANCH  11  14
ENDBRANCH   2  11
BRANCH   3  23
HETATM   23  C   UNL     3      -9.162  15.502  67.307  1.00  0.00    -0.209 C  
HETATM   24  O   UNL     3      -8.423  15.591  66.112  1.00  0.00    -0.395 OA 
HETATM   25  H   UNL     3      -9.065  15.463  65.424  1.00  0.00     0.000 HD 
BRANCH  23  26
HETATM   26  C   UNL     3     -10.205  14.314  67.080  1.00  0.00    -0.260 C  
HETATM   27  O   UNL     3     -10.591  14.448  65.734  1.00  0.00    -0.295 OA 
HETATM   28  H   UNL     3     -11.211  13.742  65.599  1.00  0.00     0.000 HD 
BRANCH  26  29
HETATM   29  C   UNL     3     -11.593  14.094  67.855  1.00  0.00    -0.338 C  
HETATM   30  C   UNL     3     -11.896  12.780  68.521  1.00  0.00    -0.306 C  
HETATM   31  O   UNL     3     -12.696  14.335  67.008  1.00  0.00    -0.483 OA 
HETATM   32  O   UNL     3     -12.050  11.665  67.785  1.00  0.00    -0.613 OA 
HETATM   33  O   UNL     3     -12.157  12.752  69.713  1.00  0.00    -0.296 OA 
HETATM   34  H   UNL     3     -13.518  14.205  67.467  1.00  0.00     0.000 HD 
ENDBRANCH  26  29
ENDBRANCH  23  26
ENDBRANCH   3  23
BRANCH   3  35
HETATM   35  C   UNL     3      -7.148  14.523  68.835  1.00  0.00    -0.118 C  
HETATM   36  O   UNL     3      -7.286  14.141  70.172  1.00  0.00    -0.374 OA 
HETATM   37  H   UNL     3      -6.712  13.419  70.403  1.00  0.00     0.000 HD 
ENDBRANCH   3  35
TORSDOF 8
ENDMDL
MODEL      290
REMARK 921   NORMALIZED FREE ENERGY PREDICTED BY IDOCK:   -3.37 KCAL/MOL
REMARK 922        TOTAL FREE ENERGY PREDICTED BY IDOCK:   -6.63 KCAL/MOL
REMARK 923 INTER-LIGAND FREE ENERGY PREDICTED BY IDOCK:   -5.63 KCAL/MOL
REMARK 924 INTRA-LIGAND FREE ENERGY PREDICTED BY IDOCK:   -0.99 KCAL/MOL
REMARK 927      BINDING AFFINITY PREDICTED BY RF-SCORE:    0.00 PKD
ROOT
HETATM    1 MN   UNL     1     -12.274   8.760  71.715  1.00  0.00    -0.264 Mn 
HETATM    2  C   UNL     2     -11.405  12.736  65.120  1.00  0.00    -0.311 C  
HETATM    3  C   UNL     3     -11.648   6.377  72.506  1.00  0.00    -0.222 C  
HETATM    4  H   UNL     3     -11.751   5.095  73.960  1.00  0.00     0.000 HD 
HETATM    5  H   UNL     2     -12.829  11.978  66.149  1.00  0.00     0.000 HD 
HETATM    6  O   UNL     2     -12.785  12.563  65.402  1.00  0.00    -0.624 OA 
HETATM    7  O   UNL     3     -11.782   5.059  73.011  1.00  0.00    -0.297 OA 
ENDROOT
BRANCH   2   8
HETATM    8  C   UNL     2     -11.332  13.687  63.909  1.00  0.00    -0.108 C  
HETATM    9  H   UNL     2     -12.544  14.490  62.564  1.00  0.00     0.000 HD 
HETATM   10  O   UNL     2     -12.589  13.904  63.310  1.00  0.00    -0.824 OA 
ENDBRANCH   2   8
BRANCH   2  11
HETATM   11  C   UNL     2     -10.749  11.315  64.906  1.00  0.00    -0.271 C  
HETATM   12  H   UNL     2     -10.551   9.997  63.449  1.00  0.00     0.000 HD 
HETATM   13  O   UNL     2     -10.946  10.851  63.579  1.00  0.00    -0.132 OA 
BRANCH  11  14
HETATM   14  C   UNL     2      -9.216  11.215  65.202  1.00  0.00    -0.189 C  
HETATM   15  H   UNL     2      -7.643  10.778  64.188  1.00  0.00     0.000 HD 
HETATM   16  O   UNL     2      -8.574  10.838  64.009  1.00  0.00    -0.136 OA 
BRANCH  14  17
HETATM   17  C   UNL     2      -8.814  10.209  66.306  1.00  0.00    -0.148 C  
HETATM   18  C   UNL     2      -7.616  10.702  67.099  1.00  0.00    -0.099 C  
HETATM   19  H   UNL     2      -8.244   8.358  66.393  1.00  0.00     0.000 HD 
HETATM   20  O   UNL     2      -8.491   8.976  65.715  1.00  0.00    -0.127 OA 
HETATM   21  O   UNL     2      -7.151   9.976  68.129  1.00  0.00    -0.078 OA 
HETATM   22  O   UNL     2      -7.101  11.795  66.868  1.00  0.00    -0.140 OA 
ENDBRANCH  14  17
ENDBRANCH  11  14
ENDBRANCH   2  11
BRANCH   3  23
HETATM   23  C   UNL     3     -10.359   6.968  73.204  1.00  0.00    -0.281 C  
HETATM   24  O   UNL     3     -10.397   6.451  74.515  1.00  0.00    -0.329 OA 
HETATM   25  H   UNL     3      -9.623   6.807  74.934  1.00  0.00     0.000 HD 
BRANCH  23  26
HETATM   26  C   UNL     3      -8.827   6.902  72.761  1.00  0.00    -0.120 C  
HETATM   27  O   UNL     3      -8.845   6.148  71.574  1.00  0.00    -0.135 OA 
HETATM   28  H   UNL     3      -7.933   6.108  71.310  1.00  0.00     0.000 HD 
BRANCH  26  29
HETATM   29  C   UNL     3      -7.613   6.268  73.598  1.00  0.00    -0.094 C  
HETATM   30  C   UNL     3      -6.192   6.455  73.143  1.00  0.00    -0.062 C  
HETATM   31  O   UNL     3      -7.766   4.872  73.745  1.00  0.00    -0.093 OA 
HETATM   32  O   UNL     3      -5.771   5.911  71.987  1.00  0.00    -0.028 OA 
HETATM   33  O   UNL     3      -5.378   6.967  73.896  1.00  0.00    -0.045 OA 
HETATM   34  H   UNL     3      -7.047   4.497  74.241  1.00  0.00     0.000 HD 
ENDBRANCH  26  29
ENDBRANCH  23  26
ENDBRANCH   3  23
BRANCH   3  35
HETATM   35  C   UNL     3     -11.699   6.318  70.940  1.00  0.00    -0.222 C  
HETATM   36  O   UNL     3     -11.042   7.397  70.344  1.00  0.00    -0.258 OA 
HETATM   37  H   UNL     3     -11.073   7.362  69.395  1.00  0.00     0.000 HD 
ENDBRANCH   3  35
TORSDOF 8
ENDMDL
MODEL      291
REMARK 921   NORMALIZED FREE ENERGY PREDICTED BY IDOCK:   -3.36 KCAL/MOL
REMARK 922        TOTAL FREE ENERGY PREDICTED BY IDOCK:   -6.61 KCAL/MOL
REMARK 923 INTER-LIGAND FREE ENERGY PREDICTED BY IDOCK:   -4.31 KCAL/MOL
REMARK 924 INTRA-LIGAND FREE ENERGY PREDICTED BY IDOCK:   -2.30 KCAL/MOL
REMARK 927      BINDING AFFINITY PREDICTED BY RF-SCORE:    0.00 PKD
ROOT
HETATM    1 MN   UNL     1     -10.870   6.632  68.101  1.00  0.00    -0.159 Mn 
HETATM    2  C   UNL     2     -10.653  14.237  66.626  1.00  0.00    -0.278 C  
HETATM    3  C   UNL     3      -9.153   4.700  67.983  1.00  0.00    -0.120 C  
HETATM    4  H   UNL     3      -8.875   2.791  68.199  1.00  0.00     0.000 HD 
HETATM    5  H   UNL     2     -11.464  12.666  65.892  1.00  0.00     0.000 HD 
HETATM    6  O   UNL     2     -11.565  13.600  65.745  1.00  0.00    -0.319 OA 
HETATM    7  O   UNL     3      -8.549   3.470  67.619  1.00  0.00    -0.093 OA 
ENDROOT
BRANCH   2   8
HETATM    8  C   UNL     2     -10.817  15.751  66.387  1.00  0.00    -0.226 C  
HETATM    9  H   UNL     2     -10.751  17.044  64.888  1.00  0.00     0.000 HD 
HETATM   10  O   UNL     2     -10.650  16.111  65.035  1.00  0.00    -0.588 OA 
ENDBRANCH   2   8
BRANCH   2  11
HETATM   11  C   UNL     2      -9.206  13.662  66.361  1.00  0.00    -0.122 C  
HETATM   12  H   UNL     2      -7.333  14.202  66.680  1.00  0.00     0.000 HD 
HETATM   13  O   UNL     2      -8.204  14.547  66.839  1.00  0.00    -0.171 OA 
BRANCH  11  14
HETATM   14  C   UNL     2      -8.904  12.255  66.974  1.00  0.00    -0.205 C  
HETATM   15  H   UNL     2      -8.984  11.472  68.728  1.00  0.00     0.000 HD 
HETATM   16  O   UNL     2      -9.167  12.326  68.355  1.00  0.00    -0.192 OA 
BRANCH  14  17
HETATM   17  C   UNL     2      -7.457  11.741  66.785  1.00  0.00    -0.057 C  
HETATM   18  C   UNL     2      -7.437  10.290  66.337  1.00  0.00    -0.114 C  
HETATM   19  H   UNL     2      -5.874  11.534  67.884  1.00  0.00     0.000 HD 
HETATM   20  O   UNL     2      -6.762  11.850  68.000  1.00  0.00    -0.063 OA 
HETATM   21  O   UNL     2      -6.265   9.685  66.080  1.00  0.00    -0.065 OA 
HETATM   22  O   UNL     2      -8.479   9.669  66.128  1.00  0.00    -0.118 OA 
ENDBRANCH  14  17
ENDBRANCH  11  14
ENDBRANCH   2  11
BRANCH   3  23
HETATM   23  C   UNL     3      -8.910   4.846  69.538  1.00  0.00    -0.090 C  
HETATM   24  O   UNL     3      -7.688   4.185  69.770  1.00  0.00    -0.053 OA 
HETATM   25  H   UNL     3      -7.543   4.272  70.705  1.00  0.00     0.000 HD 
BRANCH  23  26
HETATM   26  C   UNL     3      -8.873   6.151  70.456  1.00  0.00    -0.146 C  
HETATM   27  O   UNL     3      -9.959   6.921  70.002  1.00  0.00    -0.179 OA 
HETATM   28  H   UNL     3      -9.937   7.699  70.548  1.00  0.00     0.000 HD 
BRANCH  26  29
HETATM   29  C   UNL     3      -7.673   7.212  70.568  1.00  0.00    -0.094 C  
HETATM   30  C   UNL     3      -7.963   8.682  70.680  1.00  0.00    -0.110 C  
HETATM   31  O   UNL     3      -6.786   7.098  69.476  1.00  0.00    -0.048 OA 
HETATM   32  O   UNL     3      -8.542   9.341  69.661  1.00  0.00    -0.129 OA 
HETATM   33  O   UNL     3      -7.531   9.313  71.632  1.00  0.00    -0.339 OA 
HETATM   34  H   UNL     3      -6.076   7.726  69.542  1.00  0.00     0.000 HD 
ENDBRANCH  26  29
ENDBRANCH  23  26
ENDBRANCH   3  23
BRANCH   3  35
HETATM   35  C   UNL     3      -8.616   5.820  67.026  1.00  0.00    -0.110 C  
HETATM   36  O   UNL     3      -8.786   7.101  67.558  1.00  0.00    -0.120 OA 
HETATM   37  H   UNL     3      -8.461   7.780  66.978  1.00  0.00     0.000 HD 
ENDBRANCH   3  35
TORSDOF 8
ENDMDL
MODEL      292
REMARK 921   NORMALIZED FREE ENERGY PREDICTED BY IDOCK:   -3.34 KCAL/MOL
REMARK 922        TOTAL FREE ENERGY PREDICTED BY IDOCK:   -6.58 KCAL/MOL
REMARK 923 INTER-LIGAND FREE ENERGY PREDICTED BY IDOCK:   -5.15 KCAL/MOL
REMARK 924 INTRA-LIGAND FREE ENERGY PREDICTED BY IDOCK:   -1.42 KCAL/MOL
REMARK 927      BINDING AFFINITY PREDICTED BY RF-SCORE:    0.00 PKD
ROOT
HETATM    1 MN   UNL     1      -7.992  12.763  69.890  1.00  0.00    -0.160 Mn 
HETATM    2  C   UNL     2      -9.340   5.234  71.134  1.00  0.00    -0.151 C  
HETATM    3  C   UNL     3      -7.778  14.256  67.787  1.00  0.00    -0.163 C  
HETATM    4  H   UNL     3      -7.409  16.043  67.125  1.00  0.00     0.000 HD 
HETATM    5  H   UNL     2      -7.899   6.475  71.340  1.00  0.00     0.000 HD 
HETATM    6  O   UNL     2      -8.054   5.581  71.621  1.00  0.00    -0.114 OA 
HETATM    7  O   UNL     3      -7.230  15.155  66.838  1.00  0.00    -0.141 OA 
ENDROOT
BRANCH   2   8
HETATM    8  C   UNL     2      -9.591   3.783  71.589  1.00  0.00    -0.157 C  
HETATM    9  H   UNL     2     -10.910   2.756  72.652  1.00  0.00     0.000 HD 
HETATM   10  O   UNL     2     -10.755   3.650  72.372  1.00  0.00    -0.039 OA 
ENDBRANCH   2   8
BRANCH   2  11
HETATM   11  C   UNL     2      -9.372   5.468  69.572  1.00  0.00    -0.130 C  
HETATM   12  H   UNL     2      -9.852   4.454  67.947  1.00  0.00     0.000 HD 
HETATM   13  O   UNL     2      -9.832   4.314  68.886  1.00  0.00    -0.150 OA 
BRANCH  11  14
HETATM   14  C   UNL     2     -10.241   6.671  69.077  1.00  0.00    -0.177 C  
HETATM   15  H   UNL     2     -12.052   6.905  68.475  1.00  0.00     0.000 HD 
HETATM   16  O   UNL     2     -11.524   6.175  68.776  1.00  0.00    -0.259 OA 
BRANCH  14  17
HETATM   17  C   UNL     2      -9.705   7.413  67.830  1.00  0.00    -0.143 C  
HETATM   18  C   UNL     2     -10.189   8.852  67.789  1.00  0.00    -0.228 C  
HETATM   19  H   UNL     2      -9.818   7.209  65.905  1.00  0.00     0.000 HD 
HETATM   20  O   UNL     2     -10.147   6.754  66.671  1.00  0.00    -0.185 OA 
HETATM   21  O   UNL     2      -9.788   9.665  66.797  1.00  0.00    -0.186 OA 
HETATM   22  O   UNL     2     -10.884   9.321  68.689  1.00  0.00    -0.179 OA 
ENDBRANCH  14  17
ENDBRANCH  11  14
ENDBRANCH   2  11
BRANCH   3  23
HETATM   23  C   UNL     3      -9.281  14.708  67.978  1.00  0.00    -0.197 C  
HETATM   24  O   UNL     3      -9.738  14.980  66.674  1.00  0.00    -0.237 OA 
HETATM   25  H   UNL     3     -10.641  15.252  66.789  1.00  0.00     0.000 HD 
BRANCH  23  26
HETATM   26  C   UNL     3     -10.491  13.970  68.712  1.00  0.00    -0.233 C  
HETATM   27  O   UNL     3     -11.607  14.255  67.905  1.00  0.00    -0.299 OA 
HETATM   28  H   UNL     3     -12.328  13.816  68.342  1.00  0.00     0.000 HD 
BRANCH  26  29
HETATM   29  C   UNL     3     -11.019  14.243  70.204  1.00  0.00     0.128 C  
HETATM   30  C   UNL     3     -12.445  14.651  70.446  1.00  0.00    -0.352 C  
HETATM   31  O   UNL     3     -10.243  15.231  70.848  1.00  0.00    -0.358 OA 
HETATM   32  O   UNL     3     -12.900  15.834  69.994  1.00  0.00    -0.225 OA 
HETATM   33  O   UNL     3     -13.148  13.983  71.187  1.00  0.00    -0.329 OA 
HETATM   34  H   UNL     3     -10.555  15.392  71.731  1.00  0.00     0.000 HD 
ENDBRANCH  26  29
ENDBRANCH  23  26
ENDBRANCH   3  23
BRANCH   3  35
HETATM   35  C   UNL     3      -7.483  12.791  67.314  1.00  0.00    -0.097 C  
HETATM   36  O   UNL     3      -8.451  12.313  66.426  1.00  0.00    -0.392 OA 
HETATM   37  H   UNL     3      -8.272  11.425  66.139  1.00  0.00     0.000 HD 
ENDBRANCH   3  35
TORSDOF 8
ENDMDL
MODEL      293
REMARK 921   NORMALIZED FREE ENERGY PREDICTED BY IDOCK:   -3.34 KCAL/MOL
REMARK 922        TOTAL FREE ENERGY PREDICTED BY IDOCK:   -6.58 KCAL/MOL
REMARK 923 INTER-LIGAND FREE ENERGY PREDICTED BY IDOCK:   -5.97 KCAL/MOL
REMARK 924 INTRA-LIGAND FREE ENERGY PREDICTED BY IDOCK:   -0.61 KCAL/MOL
REMARK 927      BINDING AFFINITY PREDICTED BY RF-SCORE:    0.00 PKD
ROOT
HETATM    1 MN   UNL     1     -10.633  10.778  67.879  1.00  0.00    -0.165 Mn 
HETATM    2  C   UNL     2     -10.176  18.364  66.362  1.00  0.00    -0.410 C  
HETATM    3  C   UNL     3      -8.909   8.882  68.239  1.00  0.00    -0.134 C  
HETATM    4  H   UNL     3      -8.663   6.982  68.555  1.00  0.00     0.000 HD 
HETATM    5  H   UNL     2     -10.746  16.766  65.476  1.00  0.00     0.000 HD 
HETATM    6  O   UNL     2     -10.822  17.695  65.290  1.00  0.00    -0.600 OA 
HETATM    7  O   UNL     3      -8.213   7.660  68.064  1.00  0.00    -0.121 OA 
ENDROOT
BRANCH   2   8
HETATM    8  C   UNL     2     -10.299  19.871  66.060  1.00  0.00    -0.486 C  
HETATM    9  H   UNL     2      -9.593  21.594  66.736  1.00  0.00     0.000 HD 
HETATM   10  O   UNL     2      -9.518  20.665  66.922  1.00  0.00    -0.355 OA 
ENDBRANCH   2   8
BRANCH   2  11
HETATM   11  C   UNL     2      -8.699  17.817  66.485  1.00  0.00    -0.257 C  
HETATM   12  H   UNL     2      -7.198  17.924  67.763  1.00  0.00     0.000 HD 
HETATM   13  O   UNL     2      -8.086  18.254  67.689  1.00  0.00    -0.240 OA 
BRANCH  11  14
HETATM   14  C   UNL     2      -8.537  16.262  66.428  1.00  0.00    -0.326 C  
HETATM   15  H   UNL     2      -9.264  14.840  65.357  1.00  0.00     0.000 HD 
HETATM   16  O   UNL     2      -9.362  15.785  65.392  1.00  0.00    -0.290 OA 
BRANCH  14  17
HETATM   17  C   UNL     2      -8.905  15.504  67.726  1.00  0.00    -0.172 C  
HETATM   18  C   UNL     2      -7.680  14.884  68.373  1.00  0.00    -0.115 C  
HETATM   19  H   UNL     2     -10.050  14.020  68.221  1.00  0.00     0.000 HD 
HETATM   20  O   UNL     2      -9.824  14.485  67.425  1.00  0.00    -0.223 OA 
HETATM   21  O   UNL     2      -7.801  14.221  69.536  1.00  0.00     0.076 OA 
HETATM   22  O   UNL     2      -6.556  15.037  67.897  1.00  0.00    -0.128 OA 
ENDBRANCH  14  17
ENDBRANCH  11  14
ENDBRANCH   2  11
BRANCH   3  23
HETATM   23  C   UNL     3      -9.074   9.054  69.802  1.00  0.00    -0.159 C  
HETATM   24  O   UNL     3      -9.483  10.392  69.970  1.00  0.00    -0.398 OA 
HETATM   25  H   UNL     3      -9.582  10.495  70.909  1.00  0.00     0.000 HD 
BRANCH  23  26
HETATM   26  C   UNL     3      -9.937   8.208  70.845  1.00  0.00    -0.187 C  
HETATM   27  O   UNL     3      -9.804   8.914  72.054  1.00  0.00    -0.325 OA 
HETATM   28  H   UNL     3     -10.317   8.410  72.675  1.00  0.00     0.000 HD 
BRANCH  26  29
HETATM   29  C   UNL     3      -9.698   6.678  71.268  1.00  0.00    -0.173 C  
HETATM   30  C   UNL     3      -9.609   6.292  72.718  1.00  0.00    -0.154 C  
HETATM   31  O   UNL     3      -8.523   6.161  70.682  1.00  0.00    -0.130 OA 
HETATM   32  O   UNL     3      -8.591   6.734  73.478  1.00  0.00    -0.120 OA 
HETATM   33  O   UNL     3     -10.372   5.453  73.169  1.00  0.00    -0.180 OA 
HETATM   34  H   UNL     3      -8.382   5.256  70.933  1.00  0.00     0.000 HD 
ENDBRANCH  26  29
ENDBRANCH  23  26
ENDBRANCH   3  23
BRANCH   3  35
HETATM   35  C   UNL     3      -8.165   9.999  67.429  1.00  0.00    -0.118 C  
HETATM   36  O   UNL     3      -7.279  10.732  68.223  1.00  0.00    -0.079 OA 
HETATM   37  H   UNL     3      -6.828  11.409  67.732  1.00  0.00     0.000 HD 
ENDBRANCH   3  35
TORSDOF 8
ENDMDL
MODEL      294
REMARK 921   NORMALIZED FREE ENERGY PREDICTED BY IDOCK:   -3.34 KCAL/MOL
REMARK 922        TOTAL FREE ENERGY PREDICTED BY IDOCK:   -6.57 KCAL/MOL
REMARK 923 INTER-LIGAND FREE ENERGY PREDICTED BY IDOCK:   -5.81 KCAL/MOL
REMARK 924 INTRA-LIGAND FREE ENERGY PREDICTED BY IDOCK:   -0.76 KCAL/MOL
REMARK 927      BINDING AFFINITY PREDICTED BY RF-SCORE:    0.00 PKD
ROOT
HETATM    1 MN   UNL     1     -10.570   5.124  68.815  1.00  0.00    -0.179 Mn 
HETATM    2  C   UNL     2     -11.925  12.603  70.327  1.00  0.00    -0.284 C  
HETATM    3  C   UNL     3      -9.648   3.810  66.785  1.00  0.00    -0.180 C  
HETATM    4  H   UNL     3      -9.251   2.052  66.064  1.00  0.00     0.000 HD 
HETATM    5  H   UNL     2     -12.934  11.000  70.055  1.00  0.00     0.000 HD 
HETATM    6  O   UNL     2     -13.143  11.876  70.358  1.00  0.00     0.227 OA 
HETATM    7  O   UNL     3      -9.573   2.877  65.721  1.00  0.00    -0.041 OA 
ENDROOT
BRANCH   2   8
HETATM    8  C   UNL     2     -12.265  14.024  70.819  1.00  0.00    -0.367 C  
HETATM    9  H   UNL     2     -13.042  14.910  72.411  1.00  0.00     0.000 HD 
HETATM   10  O   UNL     2     -12.833  14.034  72.107  1.00  0.00    -0.340 OA 
ENDBRANCH   2   8
BRANCH   2  11
HETATM   11  C   UNL     2     -11.320  12.517  68.870  1.00  0.00    -0.297 C  
HETATM   12  H   UNL     2     -10.855  11.119  67.555  1.00  0.00     0.000 HD 
HETATM   13  O   UNL     2     -11.219  11.171  68.432  1.00  0.00    -0.218 OA 
BRANCH  11  14
HETATM   14  C   UNL     2     -12.092  13.303  67.760  1.00  0.00    -0.237 C  
HETATM   15  H   UNL     2     -12.847  12.878  66.044  1.00  0.00     0.000 HD 
HETATM   16  O   UNL     2     -12.378  12.401  66.718  1.00  0.00    -0.457 OA 
BRANCH  14  17
HETATM   17  C   UNL     2     -11.343  14.515  67.157  1.00  0.00    -0.350 C  
HETATM   18  C   UNL     2     -10.294  14.075  66.150  1.00  0.00    -0.297 C  
HETATM   19  H   UNL     2     -10.249  15.974  67.816  1.00  0.00     0.000 HD 
HETATM   20  O   UNL     2     -10.709  15.230  68.186  1.00  0.00    -0.245 OA 
HETATM   21  O   UNL     2      -9.572  14.996  65.490  1.00  0.00    -0.313 OA 
HETATM   22  O   UNL     2     -10.139  12.888  65.863  1.00  0.00    -0.281 OA 
ENDBRANCH  14  17
ENDBRANCH  11  14
ENDBRANCH   2  11
BRANCH   3  23
HETATM   23  C   UNL     3      -8.227   3.776  67.477  1.00  0.00    -0.090 C  
HETATM   24  O   UNL     3      -7.439   4.660  66.714  1.00  0.00    -0.083 OA 
HETATM   25  H   UNL     3      -6.585   4.638  67.130  1.00  0.00     0.000 HD 
BRANCH  23  26
HETATM   26  C   UNL     3      -7.817   4.038  68.997  1.00  0.00    -0.056 C  
HETATM   27  O   UNL     3      -8.785   3.340  69.741  1.00  0.00    -0.061 OA 
HETATM   28  H   UNL     3      -8.541   3.496  70.645  1.00  0.00     0.000 HD 
BRANCH  26  29
HETATM   29  C   UNL     3      -7.724   5.462  69.734  1.00  0.00    -0.077 C  
HETATM   30  C   UNL     3      -8.399   5.681  71.059  1.00  0.00    -0.122 C  
HETATM   31  O   UNL     3      -8.204   6.499  68.905  1.00  0.00    -0.116 OA 
HETATM   32  O   UNL     3      -9.740   5.641  71.154  1.00  0.00    -0.164 OA 
HETATM   33  O   UNL     3      -7.741   6.050  72.019  1.00  0.00    -0.096 OA 
HETATM   34  H   UNL     3      -8.149   7.341  69.342  1.00  0.00     0.000 HD 
ENDBRANCH  26  29
ENDBRANCH  23  26
ENDBRANCH   3  23
BRANCH   3  35
HETATM   35  C   UNL     3     -10.180   5.172  66.218  1.00  0.00    -0.253 C  
HETATM   36  O   UNL     3     -11.372   5.023  65.505  1.00  0.00    -0.836 OA 
HETATM   37  H   UNL     3     -11.694   5.849  65.162  1.00  0.00     0.000 HD 
ENDBRANCH   3  35
TORSDOF 8
ENDMDL
MODEL      295
REMARK 921   NORMALIZED FREE ENERGY PREDICTED BY IDOCK:   -3.33 KCAL/MOL
REMARK 922        TOTAL FREE ENERGY PREDICTED BY IDOCK:   -6.57 KCAL/MOL
REMARK 923 INTER-LIGAND FREE ENERGY PREDICTED BY IDOCK:   -5.79 KCAL/MOL
REMARK 924 INTRA-LIGAND FREE ENERGY PREDICTED BY IDOCK:   -0.78 KCAL/MOL
REMARK 927      BINDING AFFINITY PREDICTED BY RF-SCORE:    0.00 PKD
ROOT
HETATM    1 MN   UNL     1     -10.769   6.904  68.919  1.00  0.00    -0.173 Mn 
HETATM    2  C   UNL     2     -10.916  14.632  69.474  1.00  0.00    -0.245 C  
HETATM    3  C   UNL     3      -9.198   5.185  67.792  1.00  0.00    -0.115 C  
HETATM    4  H   UNL     3      -8.892   3.306  67.411  1.00  0.00     0.000 HD 
HETATM    5  H   UNL     2     -11.934  13.245  68.637  1.00  0.00     0.000 HD 
HETATM    6  O   UNL     2     -12.063  14.176  68.774  1.00  0.00    -0.341 OA 
HETATM    7  O   UNL     3      -8.752   4.129  66.957  1.00  0.00    -0.107 OA 
ENDROOT
BRANCH   2   8
HETATM    8  C   UNL     2     -11.125  16.143  69.697  1.00  0.00    -0.344 C  
HETATM    9  H   UNL     2     -11.633  17.383  71.156  1.00  0.00     0.000 HD 
HETATM   10  O   UNL     2     -11.505  16.452  71.018  1.00  0.00    -0.388 OA 
ENDBRANCH   2   8
BRANCH   2  11
HETATM   11  C   UNL     2      -9.628  14.242  68.646  1.00  0.00    -0.192 C  
HETATM   12  H   UNL     2      -8.991  12.725  67.555  1.00  0.00     0.000 HD 
HETATM   13  O   UNL     2      -9.765  12.960  68.054  1.00  0.00    -0.211 OA 
BRANCH  11  14
HETATM   14  C   UNL     2      -9.221  15.232  67.505  1.00  0.00    -0.199 C  
HETATM   15  H   UNL     2      -9.301  15.227  65.584  1.00  0.00     0.000 HD 
HETATM   16  O   UNL     2      -9.548  14.626  66.278  1.00  0.00    -0.282 OA 
BRANCH  14  17
HETATM   17  C   UNL     2      -7.726  15.626  67.466  1.00  0.00    -0.168 C  
HETATM   18  C   UNL     2      -7.474  16.755  66.482  1.00  0.00    -0.287 C  
HETATM   19  H   UNL     2      -6.043  14.754  67.059  1.00  0.00     0.000 HD 
HETATM   20  O   UNL     2      -6.961  14.512  67.083  1.00  0.00    -0.190 OA 
HETATM   21  O   UNL     2      -6.237  17.260  66.344  1.00  0.00    -0.202 OA 
HETATM   22  O   UNL     2      -8.396  17.276  65.855  1.00  0.00    -0.533 OA 
ENDBRANCH  14  17
ENDBRANCH  11  14
ENDBRANCH   2  11
BRANCH   3  23
HETATM   23  C   UNL     3      -8.486   4.951  69.184  1.00  0.00    -0.081 C  
HETATM   24  O   UNL     3      -7.179   5.443  69.001  1.00  0.00    -0.059 OA 
HETATM   25  H   UNL     3      -6.751   5.302  69.838  1.00  0.00     0.000 HD 
BRANCH  23  26
HETATM   26  C   UNL     3      -8.917   5.413  70.650  1.00  0.00    -0.143 C  
HETATM   27  O   UNL     3      -8.220   4.540  71.505  1.00  0.00    -0.096 OA 
HETATM   28  H   UNL     3      -8.476   4.815  72.377  1.00  0.00     0.000 HD 
BRANCH  26  29
HETATM   29  C   UNL     3     -10.405   5.429  71.252  1.00  0.00    -0.228 C  
HETATM   30  C   UNL     3     -11.012   6.710  71.751  1.00  0.00    -0.240 C  
HETATM   31  O   UNL     3     -10.532   4.524  72.328  1.00  0.00    -0.192 OA 
HETATM   32  O   UNL     3     -10.497   7.335  72.825  1.00  0.00    -0.215 OA 
HETATM   33  O   UNL     3     -12.068   7.103  71.280  1.00  0.00    -0.312 OA 
HETATM   34  H   UNL     3     -11.413   4.533  72.684  1.00  0.00     0.000 HD 
ENDBRANCH  26  29
ENDBRANCH  23  26
ENDBRANCH   3  23
BRANCH   3  35
HETATM   35  C   UNL     3      -8.967   6.543  67.043  1.00  0.00    -0.120 C  
HETATM   36  O   UNL     3      -8.644   7.584  67.917  1.00  0.00    -0.122 OA 
HETATM   37  H   UNL     3      -8.504   8.407  67.463  1.00  0.00     0.000 HD 
ENDBRANCH   3  35
TORSDOF 8
ENDMDL
MODEL      296
REMARK 921   NORMALIZED FREE ENERGY PREDICTED BY IDOCK:   -3.31 KCAL/MOL
REMARK 922        TOTAL FREE ENERGY PREDICTED BY IDOCK:   -6.53 KCAL/MOL
REMARK 923 INTER-LIGAND FREE ENERGY PREDICTED BY IDOCK:   -5.67 KCAL/MOL
REMARK 924 INTRA-LIGAND FREE ENERGY PREDICTED BY IDOCK:   -0.85 KCAL/MOL
REMARK 927      BINDING AFFINITY PREDICTED BY RF-SCORE:    0.00 PKD
ROOT
HETATM    1 MN   UNL     1      -9.091   7.342  66.310  1.00  0.00    -0.128 Mn 
HETATM    2  C   UNL     2     -12.347  13.184  70.224  1.00  0.00    -0.249 C  
HETATM    3  C   UNL     3      -8.558   4.865  66.836  1.00  0.00    -0.104 C  
HETATM    4  H   UNL     3      -7.750   3.228  66.177  1.00  0.00     0.000 HD 
HETATM    5  H   UNL     2     -10.622  12.713  69.544  1.00  0.00     0.000 HD 
HETATM    6  O   UNL     2     -10.999  13.501  69.916  1.00  0.00     0.077 OA 
HETATM    7  O   UNL     3      -7.824   3.666  67.017  1.00  0.00    -0.079 OA 
ENDROOT
BRANCH   2   8
HETATM    8  C   UNL     2     -12.960  14.464  70.827  1.00  0.00    -0.326 C  
HETATM    9  H   UNL     2     -12.775  16.429  70.667  1.00  0.00     0.000 HD 
HETATM   10  O   UNL     2     -12.397  15.641  70.296  1.00  0.00    -0.400 OA 
ENDBRANCH   2   8
BRANCH   2  11
HETATM   11  C   UNL     2     -12.368  11.915  71.165  1.00  0.00    -0.198 C  
HETATM   12  H   UNL     2     -13.331  11.299  72.775  1.00  0.00     0.000 HD 
HETATM   13  O   UNL     2     -13.318  12.062  72.209  1.00  0.00    -0.485 OA 
BRANCH  11  14
HETATM   14  C   UNL     2     -12.666  10.548  70.465  1.00  0.00    -0.305 C  
HETATM   15  H   UNL     2     -13.794   9.033  70.826  1.00  0.00     0.000 HD 
HETATM   16  O   UNL     2     -13.612   9.864  71.250  1.00  0.00    -0.324 OA 
BRANCH  14  17
HETATM   17  C   UNL     2     -11.444   9.621  70.265  1.00  0.00    -0.233 C  
HETATM   18  C   UNL     2     -11.076   8.901  71.550  1.00  0.00    -0.326 C  
HETATM   19  H   UNL     2      -9.594   9.817  69.720  1.00  0.00     0.000 HD 
HETATM   20  O   UNL     2     -10.344  10.386  69.843  1.00  0.00    -0.244 OA 
HETATM   21  O   UNL     2     -10.062   8.018  71.557  1.00  0.00    -0.173 OA 
HETATM   22  O   UNL     2     -11.734   9.048  72.579  1.00  0.00    -0.207 OA 
ENDBRANCH  14  17
ENDBRANCH  11  14
ENDBRANCH   2  11
BRANCH   3  23
HETATM   23  C   UNL     3      -9.880   4.440  66.080  1.00  0.00    -0.230 C  
HETATM   24  O   UNL     3     -10.498   5.658  65.733  1.00  0.00    -0.420 OA 
HETATM   25  H   UNL     3     -11.292   5.402  65.279  1.00  0.00     0.000 HD 
BRANCH  23  26
HETATM   26  C   UNL     3     -10.081   3.483  64.818  1.00  0.00    -0.087 C  
HETATM   27  O   UNL     3      -9.590   2.237  65.250  1.00  0.00    -0.342 OA 
HETATM   28  H   UNL     3      -9.709   1.668  64.500  1.00  0.00     0.000 HD 
BRANCH  26  29
HETATM   29  C   UNL     3      -9.430   3.665  63.362  1.00  0.00    -0.125 C  
HETATM   30  C   UNL     3      -7.955   3.907  63.211  1.00  0.00    -0.079 C  
HETATM   31  O   UNL     3     -10.046   4.721  62.655  1.00  0.00    -0.374 OA 
HETATM   32  O   UNL     3      -7.400   5.041  63.677  1.00  0.00    -0.048 OA 
HETATM   33  O   UNL     3      -7.284   3.150  62.527  1.00  0.00    -0.038 OA 
HETATM   34  H   UNL     3      -9.661   4.828  61.793  1.00  0.00     0.000 HD 
ENDBRANCH  26  29
ENDBRANCH  23  26
ENDBRANCH   3  23
BRANCH   3  35
HETATM   35  C   UNL     3      -8.679   5.589  68.221  1.00  0.00    -0.098 C  
HETATM   36  O   UNL     3      -9.798   6.423  68.290  1.00  0.00    -0.125 OA 
HETATM   37  H   UNL     3      -9.871   6.862  69.130  1.00  0.00     0.000 HD 
ENDBRANCH   3  35
TORSDOF 8
ENDMDL
MODEL      297
REMARK 921   NORMALIZED FREE ENERGY PREDICTED BY IDOCK:   -3.29 KCAL/MOL
REMARK 922        TOTAL FREE ENERGY PREDICTED BY IDOCK:   -6.50 KCAL/MOL
REMARK 923 INTER-LIGAND FREE ENERGY PREDICTED BY IDOCK:   -7.64 KCAL/MOL
REMARK 924 INTRA-LIGAND FREE ENERGY PREDICTED BY IDOCK:    1.14 KCAL/MOL
REMARK 927      BINDING AFFINITY PREDICTED BY RF-SCORE:    0.00 PKD
ROOT
HETATM    1 MN   UNL     1      -9.067  11.042  70.299  1.00  0.00    -0.319 Mn 
HETATM    2  C   UNL     2      -8.650  18.395  67.887  1.00  0.00    -0.272 C  
HETATM    3  C   UNL     3     -10.971   9.306  70.541  1.00  0.00    -0.265 C  
HETATM    4  H   UNL     3     -11.437   7.514  71.125  1.00  0.00     0.000 HD 
HETATM    5  H   UNL     2      -8.461  17.420  69.522  1.00  0.00     0.000 HD 
HETATM    6  O   UNL     2      -8.282  18.314  69.254  1.00  0.00     0.012 OA 
HETATM    7  O   UNL     3     -11.855   8.368  71.129  1.00  0.00    -0.285 OA 
ENDROOT
BRANCH   2   8
HETATM    8  C   UNL     2      -8.358  19.845  67.452  1.00  0.00    -0.322 C  
HETATM    9  H   UNL     2      -7.550  20.815  65.926  1.00  0.00     0.000 HD 
HETATM   10  O   UNL     2      -7.729  19.921  66.194  1.00  0.00    -0.306 OA 
ENDBRANCH   2   8
BRANCH   2  11
HETATM   11  C   UNL     2     -10.154  17.933  67.738  1.00  0.00    -0.348 C  
HETATM   12  H   UNL     2     -11.793  18.548  66.825  1.00  0.00     0.000 HD 
HETATM   13  O   UNL     2     -10.889  18.826  66.915  1.00  0.00    -0.379 OA 
BRANCH  11  14
HETATM   14  C   UNL     2     -10.375  16.495  67.165  1.00  0.00    -0.298 C  
HETATM   15  H   UNL     2     -10.913  14.794  67.883  1.00  0.00     0.000 HD 
HETATM   16  O   UNL     2     -10.778  15.668  68.230  1.00  0.00    -0.263 OA 
BRANCH  14  17
HETATM   17  C   UNL     2      -9.142  15.848  66.491  1.00  0.00    -0.286 C  
HETATM   18  C   UNL     2      -8.187  15.268  67.520  1.00  0.00    -0.173 C  
HETATM   19  H   UNL     2      -7.705  16.420  65.323  1.00  0.00     0.000 HD 
HETATM   20  O   UNL     2      -8.462  16.817  65.737  1.00  0.00    -0.472 OA 
HETATM   21  O   UNL     2      -7.078  14.627  67.117  1.00  0.00    -0.180 OA 
HETATM   22  O   UNL     2      -8.441  15.305  68.724  1.00  0.00    -0.157 OA 
ENDBRANCH  14  17
ENDBRANCH  11  14
ENDBRANCH   2  11
BRANCH   3  23
HETATM   23  C   UNL     3     -10.543   8.673  69.157  1.00  0.00    -0.178 C  
HETATM   24  O   UNL     3     -11.044   7.357  69.198  1.00  0.00    -0.421 OA 
HETATM   25  H   UNL     3     -10.787   6.977  68.367  1.00  0.00     0.000 HD 
BRANCH  23  26
HETATM   26  C   UNL     3     -10.804   9.184  67.667  1.00  0.00    -0.089 C  
HETATM   27  O   UNL     3     -10.309   8.148  66.856  1.00  0.00    -0.303 OA 
HETATM   28  H   UNL     3     -10.464   8.452  65.969  1.00  0.00     0.000 HD 
BRANCH  26  29
HETATM   29  C   UNL     3     -10.210  10.514  66.992  1.00  0.00    -0.226 C  
HETATM   30  C   UNL     3     -10.852  11.850  67.244  1.00  0.00    -0.247 C  
HETATM   31  O   UNL     3     -10.159  10.395  65.586  1.00  0.00    -0.259 OA 
HETATM   32  O   UNL     3     -12.099  12.099  66.804  1.00  0.00    -0.609 OA 
HETATM   33  O   UNL     3     -10.188  12.762  67.709  1.00  0.00    -0.214 OA 
HETATM   34  H   UNL     3      -9.808  11.183  65.186  1.00  0.00     0.000 HD 
ENDBRANCH  26  29
ENDBRANCH  23  26
ENDBRANCH   3  23
BRANCH   3  35
HETATM   35  C   UNL     3     -11.661  10.714  70.547  1.00  0.00    -0.350 C  
HETATM   36  O   UNL     3     -12.943  10.681  69.993  1.00  0.00    -0.425 OA 
HETATM   37  H   UNL     3     -13.362  11.534  69.997  1.00  0.00     0.000 HD 
ENDBRANCH   3  35
TORSDOF 8
ENDMDL
MODEL      298
REMARK 921   NORMALIZED FREE ENERGY PREDICTED BY IDOCK:   -3.27 KCAL/MOL
REMARK 922        TOTAL FREE ENERGY PREDICTED BY IDOCK:   -6.48 KCAL/MOL
REMARK 923 INTER-LIGAND FREE ENERGY PREDICTED BY IDOCK:   -5.31 KCAL/MOL
REMARK 924 INTRA-LIGAND FREE ENERGY PREDICTED BY IDOCK:   -1.17 KCAL/MOL
REMARK 927      BINDING AFFINITY PREDICTED BY RF-SCORE:    0.00 PKD
ROOT
HETATM    1 MN   UNL     1      -7.078  14.001  71.308  1.00  0.00    -0.407 Mn 
HETATM    2  C   UNL     2      -7.756   6.713  73.853  1.00  0.00    -0.085 C  
HETATM    3  C   UNL     3      -7.058  15.127  68.978  1.00  0.00    -0.140 C  
HETATM    4  H   UNL     3      -6.861  16.798  68.010  1.00  0.00     0.000 HD 
HETATM    5  H   UNL     2      -6.416   8.077  73.781  1.00  0.00     0.000 HD 
HETATM    6  O   UNL     2      -6.487   7.235  74.214  1.00  0.00    -0.077 OA 
HETATM    7  O   UNL     3      -6.619  15.890  67.868  1.00  0.00    -0.119 OA 
ENDROOT
BRANCH   2   8
HETATM    8  C   UNL     2      -7.870   5.346  74.556  1.00  0.00    -0.098 C  
HETATM    9  H   UNL     2      -6.791   3.707  74.824  1.00  0.00     0.000 HD 
HETATM   10  O   UNL     2      -6.720   4.549  74.391  1.00  0.00    -0.061 OA 
ENDBRANCH   2   8
BRANCH   2  11
HETATM   11  C   UNL     2      -7.859   6.675  72.277  1.00  0.00    -0.096 C  
HETATM   12  H   UNL     2      -8.774   5.605  70.893  1.00  0.00     0.000 HD 
HETATM   13  O   UNL     2      -8.711   5.627  71.841  1.00  0.00    -0.134 OA 
BRANCH  11  14
HETATM   14  C   UNL     2      -8.361   7.988  71.591  1.00  0.00    -0.124 C  
HETATM   15  H   UNL     2      -8.571   9.825  72.120  1.00  0.00     0.000 HD 
HETATM   16  O   UNL     2      -8.266   9.027  72.536  1.00  0.00    -0.331 OA 
BRANCH  14  17
HETATM   17  C   UNL     2      -9.813   7.951  71.060  1.00  0.00    -0.170 C  
HETATM   18  C   UNL     2     -10.032   8.981  69.966  1.00  0.00    -0.188 C  
HETATM   19  H   UNL     2     -11.593   8.192  71.789  1.00  0.00     0.000 HD 
HETATM   20  O   UNL     2     -10.701   8.215  72.115  1.00  0.00    -0.248 OA 
HETATM   21  O   UNL     2     -11.225   9.065  69.354  1.00  0.00    -0.060 OA 
HETATM   22  O   UNL     2      -9.114   9.699  69.568  1.00  0.00    -0.170 OA 
ENDBRANCH  14  17
ENDBRANCH  11  14
ENDBRANCH   2  11
BRANCH   3  23
HETATM   23  C   UNL     3      -8.586  15.489  69.162  1.00  0.00    -0.246 C  
HETATM   24  O   UNL     3      -8.642  16.887  68.992  1.00  0.00    -0.238 OA 
HETATM   25  H   UNL     3      -9.561  17.104  69.103  1.00  0.00     0.000 HD 
BRANCH  23  26
HETATM   26  C   UNL     3      -9.876  14.914  68.417  1.00  0.00    -0.216 C  
HETATM   27  O   UNL     3     -10.321  13.875  69.253  1.00  0.00    -0.427 OA 
HETATM   28  H   UNL     3     -11.088  13.532  68.810  1.00  0.00     0.000 HD 
BRANCH  26  29
HETATM   29  C   UNL     3      -9.928  14.271  66.947  1.00  0.00    -0.263 C  
HETATM   30  C   UNL     3      -9.979  12.779  66.769  1.00  0.00    -0.237 C  
HETATM   31  O   UNL     3      -8.832  14.694  66.164  1.00  0.00    -0.476 OA 
HETATM   32  O   UNL     3      -8.938  12.014  67.142  1.00  0.00    -0.173 OA 
HETATM   33  O   UNL     3     -10.898  12.276  66.141  1.00  0.00    -0.261 OA 
HETATM   34  H   UNL     3      -8.863  14.313  65.294  1.00  0.00     0.000 HD 
ENDBRANCH  26  29
ENDBRANCH  23  26
ENDBRANCH   3  23
BRANCH   3  35
HETATM   35  C   UNL     3      -6.659  13.629  68.743  1.00  0.00    -0.101 C  
HETATM   36  O   UNL     3      -5.612  13.494  67.828  1.00  0.00    -0.170 OA 
HETATM   37  H   UNL     3      -5.370  12.586  67.685  1.00  0.00     0.000 HD 
ENDBRANCH   3  35
TORSDOF 8
ENDMDL
MODEL      299
REMARK 921   NORMALIZED FREE ENERGY PREDICTED BY IDOCK:   -3.27 KCAL/MOL
REMARK 922        TOTAL FREE ENERGY PREDICTED BY IDOCK:   -6.47 KCAL/MOL
REMARK 923 INTER-LIGAND FREE ENERGY PREDICTED BY IDOCK:   -6.67 KCAL/MOL
REMARK 924 INTRA-LIGAND FREE ENERGY PREDICTED BY IDOCK:    0.19 KCAL/MOL
REMARK 927      BINDING AFFINITY PREDICTED BY RF-SCORE:    0.00 PKD
ROOT
HETATM    1 MN   UNL     1      -9.775  10.810  66.951  1.00  0.00    -0.160 Mn 
HETATM    2  C   UNL     2      -6.542   4.885  70.759  1.00  0.00    -0.031 C  
HETATM    3  C   UNL     3     -11.393  12.726  67.591  1.00  0.00    -0.310 C  
HETATM    4  H   UNL     3     -12.401  14.252  66.941  1.00  0.00     0.000 HD 
HETATM    5  H   UNL     2      -7.840   5.152  69.379  1.00  0.00     0.000 HD 
HETATM    6  O   UNL     2      -7.388   4.395  69.731  1.00  0.00    -0.049 OA 
HETATM    7  O   UNL     3     -12.533  13.569  67.588  1.00  0.00    -0.125 OA 
ENDROOT
BRANCH   2   8
HETATM    8  C   UNL     2      -5.808   3.656  71.330  1.00  0.00    -0.013 C  
HETATM    9  H   UNL     2      -5.677   2.649  73.030  1.00  0.00     0.000 HD 
HETATM   10  O   UNL     2      -6.129   3.406  72.678  1.00  0.00    -0.008 OA 
ENDBRANCH   2   8
BRANCH   2  11
HETATM   11  C   UNL     2      -7.420   5.692  71.796  1.00  0.00    -0.094 C  
HETATM   12  H   UNL     2      -7.912   7.570  72.152  1.00  0.00     0.000 HD 
HETATM   13  O   UNL     2      -7.384   7.085  71.529  1.00  0.00    -0.078 OA 
BRANCH  11  14
HETATM   14  C   UNL     2      -8.927   5.281  71.884  1.00  0.00    -0.135 C  
HETATM   15  H   UNL     2      -9.968   3.747  71.378  1.00  0.00     0.000 HD 
HETATM   16  O   UNL     2      -9.053   3.996  71.325  1.00  0.00    -0.105 OA 
BRANCH  14  17
HETATM   17  C   UNL     2      -9.918   6.223  71.160  1.00  0.00    -0.181 C  
HETATM   18  C   UNL     2     -11.063   6.631  72.070  1.00  0.00    -0.255 C  
HETATM   19  H   UNL     2     -11.053   6.145  69.591  1.00  0.00     0.000 HD 
HETATM   20  O   UNL     2     -10.445   5.567  70.035  1.00  0.00    -0.260 OA 
HETATM   21  O   UNL     2     -12.002   7.483  71.625  1.00  0.00    -0.279 OA 
HETATM   22  O   UNL     2     -11.115   6.257  73.242  1.00  0.00    -0.227 OA 
ENDBRANCH  14  17
ENDBRANCH  11  14
ENDBRANCH   2  11
BRANCH   3  23
HETATM   23  C   UNL     3     -10.153  13.695  67.747  1.00  0.00    -0.242 C  
HETATM   24  O   UNL     3      -9.166  12.910  68.375  1.00  0.00    -0.264 OA 
HETATM   25  H   UNL     3      -8.421  13.493  68.469  1.00  0.00     0.000 HD 
BRANCH  23  26
HETATM   26  C   UNL     3      -9.379  14.561  66.651  1.00  0.00    -0.281 C  
HETATM   27  O   UNL     3      -9.305  15.846  67.217  1.00  0.00    -0.207 OA 
HETATM   28  H   UNL     3      -8.845  16.361  66.565  1.00  0.00     0.000 HD 
BRANCH  26  29
HETATM   29  C   UNL     3      -9.847  14.835  65.140  1.00  0.00    -0.129 C  
HETATM   30  C   UNL     3     -11.166  15.498  64.859  1.00  0.00    -0.389 C  
HETATM   31  O   UNL     3      -9.872  13.641  64.387  1.00  0.00    -0.672 OA 
HETATM   32  O   UNL     3     -12.319  14.883  65.177  1.00  0.00    -0.212 OA 
HETATM   33  O   UNL     3     -11.198  16.525  64.199  1.00  0.00    -1.004 OA 
HETATM   34  H   UNL     3     -10.149  13.804  63.493  1.00  0.00     0.000 HD 
ENDBRANCH  26  29
ENDBRANCH  23  26
ENDBRANCH   3  23
BRANCH   3  35
HETATM   35  C   UNL     3     -11.609  11.598  68.658  1.00  0.00    -0.312 C  
HETATM   36  O   UNL     3     -11.587  10.320  68.094  1.00  0.00    -0.644 OA 
HETATM   37  H   UNL     3     -11.718   9.636  68.741  1.00  0.00     0.000 HD 
ENDBRANCH   3  35
TORSDOF 8
ENDMDL
MODEL      300
REMARK 921   NORMALIZED FREE ENERGY PREDICTED BY IDOCK:   -3.24 KCAL/MOL
REMARK 922        TOTAL FREE ENERGY PREDICTED BY IDOCK:   -6.43 KCAL/MOL
REMARK 923 INTER-LIGAND FREE ENERGY PREDICTED BY IDOCK:   -5.90 KCAL/MOL
REMARK 924 INTRA-LIGAND FREE ENERGY PREDICTED BY IDOCK:   -0.53 KCAL/MOL
REMARK 927      BINDING AFFINITY PREDICTED BY RF-SCORE:    0.00 PKD
ROOT
HETATM    1 MN   UNL     1     -11.249   7.200  69.619  1.00  0.00    -0.227 Mn 
HETATM    2  C   UNL     2     -11.825  14.759  71.229  1.00  0.00    -0.335 C  
HETATM    3  C   UNL     3     -10.194   5.817  67.703  1.00  0.00    -0.193 C  
HETATM    4  H   UNL     3      -9.922   4.038  66.976  1.00  0.00     0.000 HD 
HETATM    5  H   UNL     2     -12.980  13.317  70.732  1.00  0.00     0.000 HD 
HETATM    6  O   UNL     2     -13.117  14.206  71.036  1.00  0.00    -0.338 OA 
HETATM    7  O   UNL     3     -10.072   4.907  66.623  1.00  0.00    -0.201 OA 
ENDROOT
BRANCH   2   8
HETATM    8  C   UNL     2     -12.047  16.202  71.724  1.00  0.00    -0.451 C  
HETATM    9  H   UNL     2     -11.888  17.250  73.397  1.00  0.00     0.000 HD 
HETATM   10  O   UNL     2     -11.752  16.361  73.092  1.00  0.00    -0.394 OA 
ENDBRANCH   2   8
BRANCH   2  11
HETATM   11  C   UNL     2     -11.009  14.623  69.883  1.00  0.00    -0.160 C  
HETATM   12  H   UNL     2     -11.004  13.468  68.282  1.00  0.00     0.000 HD 
HETATM   13  O   UNL     2     -11.495  13.549  69.091  1.00  0.00    -0.261 OA 
BRANCH  11  14
HETATM   14  C   UNL     2     -10.982  15.891  68.968  1.00  0.00    -0.277 C  
HETATM   15  H   UNL     2     -11.665  16.349  67.230  1.00  0.00     0.000 HD 
HETATM   16  O   UNL     2     -11.682  15.580  67.787  1.00  0.00    -0.260 OA 
BRANCH  14  17
HETATM   17  C   UNL     2      -9.575  16.400  68.575  1.00  0.00    -0.229 C  
HETATM   18  C   UNL     2      -9.623  17.831  68.069  1.00  0.00    -0.291 C  
HETATM   19  H   UNL     2      -8.185  15.891  67.323  1.00  0.00     0.000 HD 
HETATM   20  O   UNL     2      -9.048  15.579  67.564  1.00  0.00    -0.189 OA 
HETATM   21  O   UNL     2      -8.486  18.456  67.720  1.00  0.00    -0.253 OA 
HETATM   22  O   UNL     2     -10.677  18.465  68.039  1.00  0.00    -0.357 OA 
ENDBRANCH  14  17
ENDBRANCH  11  14
ENDBRANCH   2  11
BRANCH   3  23
HETATM   23  C   UNL     3      -8.920   5.571  68.607  1.00  0.00    -0.114 C  
HETATM   24  O   UNL     3      -8.586   4.220  68.389  1.00  0.00    -0.091 OA 
HETATM   25  H   UNL     3      -7.821   4.073  68.933  1.00  0.00     0.000 HD 
BRANCH  23  26
HETATM   26  C   UNL     3      -7.530   6.354  68.662  1.00  0.00    -0.088 C  
HETATM   27  O   UNL     3      -6.600   5.376  69.054  1.00  0.00    -0.047 OA 
HETATM   28  H   UNL     3      -5.772   5.842  69.087  1.00  0.00     0.000 HD 
BRANCH  26  29
HETATM   29  C   UNL     3      -7.175   7.614  69.591  1.00  0.00    -0.079 C  
HETATM   30  C   UNL     3      -7.637   8.994  69.214  1.00  0.00    -0.079 C  
HETATM   31  O   UNL     3      -5.780   7.736  69.776  1.00  0.00    -0.023 OA 
HETATM   32  O   UNL     3      -7.166   9.591  68.105  1.00  0.00    -0.079 OA 
HETATM   33  O   UNL     3      -8.320   9.637  69.996  1.00  0.00    -0.151 OA 
HETATM   34  H   UNL     3      -5.570   8.482  70.326  1.00  0.00     0.000 HD 
ENDBRANCH  26  29
ENDBRANCH  23  26
ENDBRANCH   3  23
BRANCH   3  35
HETATM   35  C   UNL     3     -10.441   7.252  67.121  1.00  0.00    -0.324 C  
HETATM   36  O   UNL     3      -9.765   7.462  65.916  1.00  0.00    -0.411 OA 
HETATM   37  H   UNL     3      -9.915   8.331  65.563  1.00  0.00     0.000 HD 
ENDBRANCH   3  35
TORSDOF 8
ENDMDL
MODEL      301
REMARK 921   NORMALIZED FREE ENERGY PREDICTED BY IDOCK:   -3.23 KCAL/MOL
REMARK 922        TOTAL FREE ENERGY PREDICTED BY IDOCK:   -6.42 KCAL/MOL
REMARK 923 INTER-LIGAND FREE ENERGY PREDICTED BY IDOCK:   -7.13 KCAL/MOL
REMARK 924 INTRA-LIGAND FREE ENERGY PREDICTED BY IDOCK:    0.71 KCAL/MOL
REMARK 927      BINDING AFFINITY PREDICTED BY RF-SCORE:    0.00 PKD
ROOT
HETATM    1 MN   UNL     1     -11.181  11.094  68.883  1.00  0.00    -0.168 Mn 
HETATM    2  C   UNL     2      -9.884  18.308  66.369  1.00  0.00    -0.357 C  
HETATM    3  C   UNL     3      -9.678   9.090  69.536  1.00  0.00    -0.170 C  
HETATM    4  H   UNL     3      -9.644   7.237  70.111  1.00  0.00     0.000 HD 
HETATM    5  H   UNL     2     -10.617  16.675  65.693  1.00  0.00     0.000 HD 
HETATM    6  O   UNL     2     -10.589  17.572  65.382  1.00  0.00    -0.648 OA 
HETATM    7  O   UNL     3      -9.118   7.789  69.545  1.00  0.00    -0.146 OA 
ENDROOT
BRANCH   2   8
HETATM    8  C   UNL     2      -9.839  19.764  65.864  1.00  0.00    -0.332 C  
HETATM    9  H   UNL     2     -11.026  21.076  64.974  1.00  0.00     0.000 HD 
HETATM   10  O   UNL     2     -11.054  20.179  65.284  1.00  0.00    -0.221 OA 
ENDBRANCH   2   8
BRANCH   2  11
HETATM   11  C   UNL     2      -8.477  17.628  66.600  1.00  0.00    -0.259 C  
HETATM   12  H   UNL     2      -6.641  17.777  65.887  1.00  0.00     0.000 HD 
HETATM   13  O   UNL     2      -7.488  18.186  65.748  1.00  0.00    -0.505 OA 
BRANCH  11  14
HETATM   14  C   UNL     2      -7.914  17.695  68.058  1.00  0.00    -0.241 C  
HETATM   15  H   UNL     2      -6.959  16.500  69.222  1.00  0.00     0.000 HD 
HETATM   16  O   UNL     2      -7.300  16.460  68.337  1.00  0.00    -0.155 OA 
BRANCH  14  17
HETATM   17  C   UNL     2      -8.959  17.975  69.164  1.00  0.00     0.115 C  
HETATM   18  C   UNL     2     -10.035  16.903  69.197  1.00  0.00    -0.239 C  
HETATM   19  H   UNL     2     -10.208  19.391  69.605  1.00  0.00     0.000 HD 
HETATM   20  O   UNL     2      -9.567  19.219  68.926  1.00  0.00    -0.396 OA 
HETATM   21  O   UNL     2     -11.006  16.957  70.124  1.00  0.00    -0.163 OA 
HETATM   22  O   UNL     2      -9.998  15.935  68.438  1.00  0.00    -0.217 OA 
ENDBRANCH  14  17
ENDBRANCH  11  14
ENDBRANCH   2  11
BRANCH   3  23
HETATM   23  C   UNL     3      -9.837   9.491  71.057  1.00  0.00    -0.166 C  
HETATM   24  O   UNL     3     -10.926  10.386  71.076  1.00  0.00    -0.300 OA 
HETATM   25  H   UNL     3     -11.021  10.627  71.990  1.00  0.00     0.000 HD 
BRANCH  23  26
HETATM   26  C   UNL     3     -10.015   8.572  72.350  1.00  0.00    -0.295 C  
HETATM   27  O   UNL     3      -9.017   7.591  72.213  1.00  0.00    -0.127 OA 
HETATM   28  H   UNL     3      -9.122   7.043  72.983  1.00  0.00     0.000 HD 
BRANCH  26  29
HETATM   29  C   UNL     3     -11.321   7.734  72.760  1.00  0.00    -0.389 C  
HETATM   30  C   UNL     3     -11.616   6.413  72.106  1.00  0.00    -0.313 C  
HETATM   31  O   UNL     3     -12.495   8.498  72.583  1.00  0.00    -0.527 OA 
HETATM   32  O   UNL     3     -11.904   6.352  70.794  1.00  0.00    -0.361 OA 
HETATM   33  O   UNL     3     -11.749   5.414  72.795  1.00  0.00    -0.295 OA 
HETATM   34  H   UNL     3     -13.268   8.001  72.825  1.00  0.00     0.000 HD 
ENDBRANCH  26  29
ENDBRANCH  23  26
ENDBRANCH   3  23
BRANCH   3  35
HETATM   35  C   UNL     3      -8.809  10.001  68.601  1.00  0.00    -0.132 C  
HETATM   36  O   UNL     3      -8.632   9.446  67.332  1.00  0.00    -0.124 OA 
HETATM   37  H   UNL     3      -8.105   9.998  66.765  1.00  0.00     0.000 HD 
ENDBRANCH   3  35
TORSDOF 8
ENDMDL
MODEL      302
REMARK 921   NORMALIZED FREE ENERGY PREDICTED BY IDOCK:   -3.20 KCAL/MOL
REMARK 922        TOTAL FREE ENERGY PREDICTED BY IDOCK:   -6.38 KCAL/MOL
REMARK 923 INTER-LIGAND FREE ENERGY PREDICTED BY IDOCK:   -5.24 KCAL/MOL
REMARK 924 INTRA-LIGAND FREE ENERGY PREDICTED BY IDOCK:   -1.14 KCAL/MOL
REMARK 927      BINDING AFFINITY PREDICTED BY RF-SCORE:    0.00 PKD
ROOT
HETATM    1 MN   UNL     1      -9.480   4.582  67.167  1.00  0.00    -0.115 Mn 
HETATM    2  C   UNL     2     -11.381  12.046  68.022  1.00  0.00    -0.296 C  
HETATM    3  C   UNL     3      -9.058   3.027  65.143  1.00  0.00    -0.148 C  
HETATM    4  H   UNL     3      -8.651   1.216  64.574  1.00  0.00     0.000 HD 
HETATM    5  H   UNL     2     -12.176  10.332  68.320  1.00  0.00     0.000 HD 
HETATM    6  O   UNL     2     -12.406  11.223  68.554  1.00  0.00    -0.543 OA 
HETATM    7  O   UNL     3      -9.183   1.933  64.250  1.00  0.00    -0.114 OA 
ENDROOT
BRANCH   2   8
HETATM    8  C   UNL     2     -11.755  13.493  68.402  1.00  0.00    -0.358 C  
HETATM    9  H   UNL     2     -12.169  14.553  70.023  1.00  0.00     0.000 HD 
HETATM   10  O   UNL     2     -11.939  13.662  69.788  1.00  0.00    -0.305 OA 
ENDBRANCH   2   8
BRANCH   2  11
HETATM   11  C   UNL     2     -11.257  11.765  66.472  1.00  0.00    -0.321 C  
HETATM   12  H   UNL     2     -12.232  12.220  64.817  1.00  0.00     0.000 HD 
HETATM   13  O   UNL     2     -12.306  12.389  65.749  1.00  0.00    -0.644 OA 
BRANCH  11  14
HETATM   14  C   UNL     2      -9.914  12.204  65.801  1.00  0.00    -0.249 C  
HETATM   15  H   UNL     2      -9.271  12.386  63.998  1.00  0.00     0.000 HD 
HETATM   16  O   UNL     2     -10.086  12.119  64.407  1.00  0.00    -0.290 OA 
BRANCH  14  17
HETATM   17  C   UNL     2      -8.670  11.369  66.186  1.00  0.00    -0.153 C  
HETATM   18  C   UNL     2      -8.999   9.889  66.269  1.00  0.00    -0.145 C  
HETATM   19  H   UNL     2      -7.428  11.285  67.672  1.00  0.00     0.000 HD 
HETATM   20  O   UNL     2      -8.191  11.797  67.435  1.00  0.00    -0.145 OA 
HETATM   21  O   UNL     2      -8.029   9.002  66.551  1.00  0.00    -0.102 OA 
HETATM   22  O   UNL     2     -10.126   9.466  66.010  1.00  0.00    -0.300 OA 
ENDBRANCH  14  17
ENDBRANCH  11  14
ENDBRANCH   2  11
BRANCH   3  23
HETATM   23  C   UNL     3      -7.502   3.250  65.320  1.00  0.00    -0.076 C  
HETATM   24  O   UNL     3      -6.915   2.491  64.289  1.00  0.00    -0.042 OA 
HETATM   25  H   UNL     3      -5.981   2.625  64.396  1.00  0.00     0.000 HD 
BRANCH  23  26
HETATM   26  C   UNL     3      -6.659   4.604  65.390  1.00  0.00    -0.044 C  
HETATM   27  O   UNL     3      -7.461   5.469  66.155  1.00  0.00    -0.080 OA 
HETATM   28  H   UNL     3      -6.959   6.275  66.197  1.00  0.00     0.000 HD 
BRANCH  26  29
HETATM   29  C   UNL     3      -6.195   5.510  64.149  1.00  0.00    -0.022 C  
HETATM   30  C   UNL     3      -6.669   6.931  64.023  1.00  0.00    -0.049 C  
HETATM   31  O   UNL     3      -6.531   4.904  62.919  1.00  0.00    -0.025 OA 
HETATM   32  O   UNL     3      -7.971   7.199  63.821  1.00  0.00    -0.128 OA 
HETATM   33  O   UNL     3      -5.853   7.836  63.946  1.00  0.00    -0.051 OA 
HETATM   34  H   UNL     3      -6.257   5.441  62.184  1.00  0.00     0.000 HD 
ENDBRANCH  26  29
ENDBRANCH  23  26
ENDBRANCH   3  23
BRANCH   3  35
HETATM   35  C   UNL     3      -9.935   4.211  64.607  1.00  0.00    -0.173 C  
HETATM   36  O   UNL     3      -9.501   4.675  63.363  1.00  0.00    -0.323 OA 
HETATM   37  H   UNL     3     -10.033   5.392  63.038  1.00  0.00     0.000 HD 
ENDBRANCH   3  35
TORSDOF 8
ENDMDL
MODEL      303
REMARK 921   NORMALIZED FREE ENERGY PREDICTED BY IDOCK:   -3.20 KCAL/MOL
REMARK 922        TOTAL FREE ENERGY PREDICTED BY IDOCK:   -6.37 KCAL/MOL
REMARK 923 INTER-LIGAND FREE ENERGY PREDICTED BY IDOCK:   -5.36 KCAL/MOL
REMARK 924 INTRA-LIGAND FREE ENERGY PREDICTED BY IDOCK:   -1.01 KCAL/MOL
REMARK 927      BINDING AFFINITY PREDICTED BY RF-SCORE:    0.00 PKD
ROOT
HETATM    1 MN   UNL     1      -9.651  14.642  65.852  1.00  0.00    -0.231 Mn 
HETATM    2  C   UNL     2      -7.504   7.197  65.782  1.00  0.00    -0.081 C  
HETATM    3  C   UNL     3     -10.545  16.267  67.656  1.00  0.00    -0.311 C  
HETATM    4  H   UNL     3     -11.204  18.059  68.011  1.00  0.00     0.000 HD 
HETATM    5  H   UNL     2      -8.910   8.280  65.067  1.00  0.00     0.000 HD 
HETATM    6  O   UNL     2      -8.623   7.384  64.931  1.00  0.00    -0.006 OA 
HETATM    7  O   UNL     3     -11.395  17.183  68.326  1.00  0.00    -0.121 OA 
ENDROOT
BRANCH   2   8
HETATM    8  C   UNL     2      -7.038   5.744  65.559  1.00  0.00    -0.069 C  
HETATM    9  H   UNL     2      -5.409   4.765  65.001  1.00  0.00     0.000 HD 
HETATM   10  O   UNL     2      -5.696   5.660  65.138  1.00  0.00    -0.016 OA 
ENDBRANCH   2   8
BRANCH   2  11
HETATM   11  C   UNL     2      -7.926   7.553  67.262  1.00  0.00    -0.118 C  
HETATM   12  H   UNL     2      -7.187   7.364  69.083  1.00  0.00     0.000 HD 
HETATM   13  O   UNL     2      -6.933   7.150  68.193  1.00  0.00    -0.071 OA 
BRANCH  11  14
HETATM   14  C   UNL     2      -8.231   9.061  67.543  1.00  0.00    -0.109 C  
HETATM   15  H   UNL     2      -7.562  10.399  68.751  1.00  0.00     0.000 HD 
HETATM   16  O   UNL     2      -7.377   9.483  68.580  1.00  0.00    -0.077 OA 
BRANCH  14  17
HETATM   17  C   UNL     2      -9.687   9.382  67.956  1.00  0.00    -0.145 C  
HETATM   18  C   UNL     2     -10.235  10.569  67.182  1.00  0.00    -0.223 C  
HETATM   19  H   UNL     2     -10.620   9.876  69.581  1.00  0.00     0.000 HD 
HETATM   20  O   UNL     2      -9.727   9.679  69.328  1.00  0.00    -0.168 OA 
HETATM   21  O   UNL     2     -11.503  10.967  67.378  1.00  0.00    -0.475 OA 
HETATM   22  O   UNL     2      -9.566  11.135  66.318  1.00  0.00    -0.194 OA 
ENDBRANCH  14  17
ENDBRANCH  11  14
ENDBRANCH   2  11
BRANCH   3  23
HETATM   23  C   UNL     3      -9.082  16.840  67.837  1.00  0.00    -0.224 C  
HETATM   24  O   UNL     3      -8.247  15.707  67.777  1.00  0.00    -0.138 OA 
HETATM   25  H   UNL     3      -7.369  16.052  67.886  1.00  0.00     0.000 HD 
BRANCH  23  26
HETATM   26  C   UNL     3      -8.317  17.981  67.025  1.00  0.00    -0.236 C  
HETATM   27  O   UNL     3      -8.275  17.496  65.706  1.00  0.00    -0.545 OA 
HETATM   28  H   UNL     3      -7.820  18.175  65.223  1.00  0.00     0.000 HD 
BRANCH  26  29
HETATM   29  C   UNL     3      -6.822  18.506  67.286  1.00  0.00    -0.202 C  
HETATM   30  C   UNL     3      -6.197  18.383  68.647  1.00  0.00    -0.208 C  
HETATM   31  O   UNL     3      -6.693  19.871  66.949  1.00  0.00    -0.202 OA 
HETATM   32  O   UNL     3      -6.695  19.072  69.690  1.00  0.00    -0.248 OA 
HETATM   33  O   UNL     3      -5.143  17.781  68.777  1.00  0.00    -0.148 OA 
HETATM   34  H   UNL     3      -5.808  20.182  67.103  1.00  0.00     0.000 HD 
ENDBRANCH  26  29
ENDBRANCH  23  26
ENDBRANCH   3  23
BRANCH   3  35
HETATM   35  C   UNL     3     -10.860  14.822  68.176  1.00  0.00    -0.254 C  
HETATM   36  O   UNL     3     -12.110  14.364  67.751  1.00  0.00    -0.542 OA 
HETATM   37  H   UNL     3     -12.301  13.488  68.066  1.00  0.00     0.000 HD 
ENDBRANCH   3  35
TORSDOF 8
ENDMDL
MODEL      304
REMARK 921   NORMALIZED FREE ENERGY PREDICTED BY IDOCK:   -3.18 KCAL/MOL
REMARK 922        TOTAL FREE ENERGY PREDICTED BY IDOCK:   -6.35 KCAL/MOL
REMARK 923 INTER-LIGAND FREE ENERGY PREDICTED BY IDOCK:   -5.75 KCAL/MOL
REMARK 924 INTRA-LIGAND FREE ENERGY PREDICTED BY IDOCK:   -0.60 KCAL/MOL
REMARK 927      BINDING AFFINITY PREDICTED BY RF-SCORE:    0.00 PKD
ROOT
HETATM    1 MN   UNL     1      -7.285  11.676  68.052  1.00  0.00    -0.067 Mn 
HETATM    2  C   UNL     2     -12.289  15.229  72.783  1.00  0.00    -0.396 C  
HETATM    3  C   UNL     3      -7.297   9.463  66.711  1.00  0.00    -0.086 C  
HETATM    4  H   UNL     3      -6.276   8.291  65.548  1.00  0.00     0.000 HD 
HETATM    5  H   UNL     2     -10.585  14.368  72.901  1.00  0.00     0.000 HD 
HETATM    6  O   UNL     2     -11.107  14.897  73.493  1.00  0.00     0.570 OA 
HETATM    7  O   UNL     3      -6.911   8.181  66.247  1.00  0.00    -0.057 OA 
ENDROOT
BRANCH   2   8
HETATM    8  C   UNL     2     -13.136  16.088  73.744  1.00  0.00    -0.409 C  
HETATM    9  H   UNL     2     -12.941  17.707  74.868  1.00  0.00     0.000 HD 
HETATM   10  O   UNL     2     -12.419  17.178  74.277  1.00  0.00    -0.421 OA 
ENDBRANCH   2   8
BRANCH   2  11
HETATM   11  C   UNL     2     -12.975  13.896  72.285  1.00  0.00    -0.358 C  
HETATM   12  H   UNL     2     -14.800  13.225  71.943  1.00  0.00     0.000 HD 
HETATM   13  O   UNL     2     -14.388  14.026  72.243  1.00  0.00    -0.549 OA 
BRANCH  11  14
HETATM   14  C   UNL     2     -12.521  13.375  70.882  1.00  0.00    -0.359 C  
HETATM   15  H   UNL     2     -11.963  11.685  70.154  1.00  0.00     0.000 HD 
HETATM   16  O   UNL     2     -12.239  12.002  71.007  1.00  0.00    -0.311 OA 
BRANCH  14  17
HETATM   17  C   UNL     2     -11.277  14.071  70.281  1.00  0.00     0.119 C  
HETATM   18  C   UNL     2     -11.642  15.392  69.626  1.00  0.00    -0.331 C  
HETATM   19  H   UNL     2      -9.931  13.660  68.949  1.00  0.00     0.000 HD 
HETATM   20  O   UNL     2     -10.695  13.232  69.317  1.00  0.00    -0.109 OA 
HETATM   21  O   UNL     2     -10.680  16.159  69.086  1.00  0.00    -0.250 OA 
HETATM   22  O   UNL     2     -12.796  15.818  69.641  1.00  0.00    -0.001 OA 
ENDBRANCH  14  17
ENDBRANCH  11  14
ENDBRANCH   2  11
BRANCH   3  23
HETATM   23  C   UNL     3      -7.719  10.271  65.419  1.00  0.00    -0.146 C  
HETATM   24  O   UNL     3      -6.621  10.139  64.545  1.00  0.00    -0.126 OA 
HETATM   25  H   UNL     3      -6.875  10.625  63.769  1.00  0.00     0.000 HD 
BRANCH  23  26
HETATM   26  C   UNL     3      -9.017  10.137  64.500  1.00  0.00    -0.221 C  
HETATM   27  O   UNL     3      -8.744   9.028  63.678  1.00  0.00    -0.361 OA 
HETATM   28  H   UNL     3      -9.517   8.948  63.131  1.00  0.00     0.000 HD 
BRANCH  26  29
HETATM   29  C   UNL     3      -9.588  11.237  63.480  1.00  0.00    -0.303 C  
HETATM   30  C   UNL     3     -10.440  12.370  63.979  1.00  0.00    -0.416 C  
HETATM   31  O   UNL     3     -10.347  10.636  62.452  1.00  0.00    -0.716 OA 
HETATM   32  O   UNL     3     -11.654  12.128  64.506  1.00  0.00    -0.330 OA 
HETATM   33  O   UNL     3     -10.100  13.523  63.763  1.00  0.00     0.131 OA 
HETATM   34  H   UNL     3     -10.685  11.288  61.848  1.00  0.00     0.000 HD 
ENDBRANCH  26  29
ENDBRANCH  23  26
ENDBRANCH   3  23
BRANCH   3  35
HETATM   35  C   UNL     3      -8.345   9.281  67.863  1.00  0.00    -0.116 C  
HETATM   36  O   UNL     3      -9.235  10.354  67.948  1.00  0.00    -0.137 OA 
HETATM   37  H   UNL     3      -9.870  10.244  68.647  1.00  0.00     0.000 HD 
ENDBRANCH   3  35
TORSDOF 8
ENDMDL
MODEL      305
REMARK 921   NORMALIZED FREE ENERGY PREDICTED BY IDOCK:   -3.18 KCAL/MOL
REMARK 922        TOTAL FREE ENERGY PREDICTED BY IDOCK:   -6.34 KCAL/MOL
REMARK 923 INTER-LIGAND FREE ENERGY PREDICTED BY IDOCK:   -5.49 KCAL/MOL
REMARK 924 INTRA-LIGAND FREE ENERGY PREDICTED BY IDOCK:   -0.85 KCAL/MOL
REMARK 927      BINDING AFFINITY PREDICTED BY RF-SCORE:    0.00 PKD
ROOT
HETATM    1 MN   UNL     1      -6.843   8.493  66.714  1.00  0.00    -0.058 Mn 
HETATM    2  C   UNL     2     -11.457  14.333  64.557  1.00  0.00    -0.355 C  
HETATM    3  C   UNL     3      -7.029   6.552  68.415  1.00  0.00    -0.080 C  
HETATM    4  H   UNL     3      -6.120   5.038  69.221  1.00  0.00     0.000 HD 
HETATM    5  H   UNL     2      -9.800  14.096  65.484  1.00  0.00     0.000 HD 
HETATM    6  O   UNL     2     -10.269  14.846  65.137  1.00  0.00    -0.383 OA 
HETATM    7  O   UNL     3      -6.732   5.704  69.511  1.00  0.00    -0.054 OA 
ENDROOT
BRANCH   2   8
HETATM    8  C   UNL     2     -12.217  15.551  63.995  1.00  0.00     0.108 C  
HETATM    9  H   UNL     2     -11.894  17.465  63.603  1.00  0.00     0.000 HD 
HETATM   10  O   UNL     2     -11.425  16.715  63.949  1.00  0.00    -1.186 OA 
ENDBRANCH   2   8
BRANCH   2  11
HETATM   11  C   UNL     2     -12.234  13.495  65.647  1.00  0.00    -0.458 C  
HETATM   12  H   UNL     2     -13.487  11.970  65.706  1.00  0.00     0.000 HD 
HETATM   13  O   UNL     2     -13.020  12.474  65.051  1.00  0.00    -0.779 OA 
BRANCH  11  14
HETATM   14  C   UNL     2     -11.352  12.811  66.743  1.00  0.00    -0.313 C  
HETATM   15  H   UNL     2     -10.204  11.271  66.822  1.00  0.00     0.000 HD 
HETATM   16  O   UNL     2     -10.740  11.687  66.157  1.00  0.00    -0.260 OA 
BRANCH  14  17
HETATM   17  C   UNL     2     -12.105  12.345  68.011  1.00  0.00    -0.028 C  
HETATM   18  C   UNL     2     -11.376  12.764  69.276  1.00  0.00    -0.247 C  
HETATM   19  H   UNL     2     -12.680  10.658  68.776  1.00  0.00     0.000 HD 
HETATM   20  O   UNL     2     -12.218  10.945  67.997  1.00  0.00    -0.422 OA 
HETATM   21  O   UNL     2     -11.906  12.483  70.478  1.00  0.00    -0.265 OA 
HETATM   22  O   UNL     2     -10.341  13.428  69.229  1.00  0.00     0.033 OA 
ENDBRANCH  14  17
ENDBRANCH  11  14
ENDBRANCH   2  11
BRANCH   3  23
HETATM   23  C   UNL     3      -7.454   5.586  67.237  1.00  0.00    -0.084 C  
HETATM   24  O   UNL     3      -8.547   6.231  66.626  1.00  0.00    -0.114 OA 
HETATM   25  H   UNL     3      -8.803   5.651  65.919  1.00  0.00     0.000 HD 
BRANCH  23  26
HETATM   26  C   UNL     3      -6.589   4.982  66.039  1.00  0.00    -0.045 C  
HETATM   27  O   UNL     3      -5.514   4.341  66.681  1.00  0.00    -0.012 OA 
HETATM   28  H   UNL     3      -4.998   3.982  65.969  1.00  0.00     0.000 HD 
BRANCH  26  29
HETATM   29  C   UNL     3      -5.889   5.804  64.851  1.00  0.00    -0.024 C  
HETATM   30  C   UNL     3      -6.613   6.937  64.178  1.00  0.00    -0.042 C  
HETATM   31  O   UNL     3      -5.495   4.948  63.800  1.00  0.00    -0.012 OA 
HETATM   32  O   UNL     3      -7.722   6.701  63.455  1.00  0.00    -0.100 OA 
HETATM   33  O   UNL     3      -6.108   8.049  64.155  1.00  0.00    -0.056 OA 
HETATM   34  H   UNL     3      -5.081   5.435  63.096  1.00  0.00     0.000 HD 
ENDBRANCH  26  29
ENDBRANCH  23  26
ENDBRANCH   3  23
BRANCH   3  35
HETATM   35  C   UNL     3      -8.040   7.650  68.894  1.00  0.00    -0.127 C  
HETATM   36  O   UNL     3      -8.459   8.480  67.851  1.00  0.00    -0.128 OA 
HETATM   37  H   UNL     3      -9.072   9.146  68.141  1.00  0.00     0.000 HD 
ENDBRANCH   3  35
TORSDOF 8
ENDMDL
MODEL      306
REMARK 921   NORMALIZED FREE ENERGY PREDICTED BY IDOCK:   -3.17 KCAL/MOL
REMARK 922        TOTAL FREE ENERGY PREDICTED BY IDOCK:   -6.32 KCAL/MOL
REMARK 923 INTER-LIGAND FREE ENERGY PREDICTED BY IDOCK:   -5.42 KCAL/MOL
REMARK 924 INTRA-LIGAND FREE ENERGY PREDICTED BY IDOCK:   -0.90 KCAL/MOL
REMARK 927      BINDING AFFINITY PREDICTED BY RF-SCORE:    0.00 PKD
ROOT
HETATM    1 MN   UNL     1      -6.877   6.771  69.603  1.00  0.00    -0.041 Mn 
HETATM    2  C   UNL     2      -9.749  13.447  66.911  1.00  0.00    -0.253 C  
HETATM    3  C   UNL     3      -7.030   5.491  71.846  1.00  0.00    -0.076 C  
HETATM    4  H   UNL     3      -6.439   3.934  72.843  1.00  0.00     0.000 HD 
HETATM    5  H   UNL     2      -8.044  12.717  67.382  1.00  0.00     0.000 HD 
HETATM    6  O   UNL     2      -8.332  13.508  66.940  1.00  0.00    -0.124 OA 
HETATM    7  O   UNL     3      -6.636   4.842  73.043  1.00  0.00    -0.051 OA 
ENDROOT
BRANCH   2   8
HETATM    8  C   UNL     2     -10.216  14.729  66.195  1.00  0.00    -0.297 C  
HETATM    9  H   UNL     2     -11.753  15.366  65.120  1.00  0.00     0.000 HD 
HETATM   10  O   UNL     2     -11.465  14.576  65.561  1.00  0.00    -0.332 OA 
ENDBRANCH   2   8
BRANCH   2  11
HETATM   11  C   UNL     2     -10.280  13.265  68.388  1.00  0.00    -0.249 C  
HETATM   12  H   UNL     2     -10.425  14.342  70.037  1.00  0.00     0.000 HD 
HETATM   13  O   UNL     2     -10.105  14.451  69.149  1.00  0.00    -0.197 OA 
BRANCH  11  14
HETATM   14  C   UNL     2     -11.780  12.847  68.531  1.00  0.00    -0.339 C  
HETATM   15  H   UNL     2     -13.329  13.556  69.422  1.00  0.00     0.000 HD 
HETATM   16  O   UNL     2     -12.418  13.810  69.335  1.00  0.00    -0.255 OA 
BRANCH  14  17
HETATM   17  C   UNL     2     -12.028  11.454  69.158  1.00  0.00    -0.328 C  
HETATM   18  C   UNL     2     -12.365  11.562  70.635  1.00  0.00    -0.364 C  
HETATM   19  H   UNL     2     -11.026   9.812  69.397  1.00  0.00     0.000 HD 
HETATM   20  O   UNL     2     -10.874  10.667  69.013  1.00  0.00    -0.203 OA 
HETATM   21  O   UNL     2     -12.654  10.454  71.337  1.00  0.00    -0.362 OA 
HETATM   22  O   UNL     2     -12.455  12.654  71.194  1.00  0.00    -0.348 OA 
ENDBRANCH  14  17
ENDBRANCH  11  14
ENDBRANCH   2  11
BRANCH   3  23
HETATM   23  C   UNL     3      -8.167   4.582  71.228  1.00  0.00    -0.095 C  
HETATM   24  O   UNL     3      -8.627   3.804  72.309  1.00  0.00    -0.090 OA 
HETATM   25  H   UNL     3      -9.309   3.258  71.937  1.00  0.00     0.000 HD 
BRANCH  23  26
HETATM   26  C   UNL     3      -9.473   4.987  70.404  1.00  0.00    -0.169 C  
HETATM   27  O   UNL     3      -9.047   6.046  69.583  1.00  0.00    -0.133 OA 
HETATM   28  H   UNL     3      -9.824   6.287  69.093  1.00  0.00     0.000 HD 
BRANCH  26  29
HETATM   29  C   UNL     3     -10.865   5.508  71.009  1.00  0.00    -0.173 C  
HETATM   30  C   UNL     3     -11.379   6.880  70.669  1.00  0.00    -0.320 C  
HETATM   31  O   UNL     3     -10.860   5.462  72.420  1.00  0.00    -0.225 OA 
HETATM   32  O   UNL     3     -10.712   7.975  71.075  1.00  0.00    -0.216 OA 
HETATM   33  O   UNL     3     -12.482   7.004  70.161  1.00  0.00     0.015 OA 
HETATM   34  H   UNL     3     -11.685   5.771  72.778  1.00  0.00     0.000 HD 
ENDBRANCH  26  29
ENDBRANCH  23  26
ENDBRANCH   3  23
BRANCH   3  35
HETATM   35  C   UNL     3      -7.356   6.989  72.175  1.00  0.00    -0.082 C  
HETATM   36  O   UNL     3      -8.523   7.127  72.930  1.00  0.00    -0.112 OA 
HETATM   37  H   UNL     3      -8.720   8.035  73.130  1.00  0.00     0.000 HD 
ENDBRANCH   3  35
TORSDOF 8
ENDMDL
MODEL      307
REMARK 921   NORMALIZED FREE ENERGY PREDICTED BY IDOCK:   -3.09 KCAL/MOL
REMARK 922        TOTAL FREE ENERGY PREDICTED BY IDOCK:   -6.21 KCAL/MOL
REMARK 923 INTER-LIGAND FREE ENERGY PREDICTED BY IDOCK:   -5.34 KCAL/MOL
REMARK 924 INTRA-LIGAND FREE ENERGY PREDICTED BY IDOCK:   -0.87 KCAL/MOL
REMARK 927      BINDING AFFINITY PREDICTED BY RF-SCORE:    0.00 PKD
ROOT
HETATM    1 MN   UNL     1      -8.374  16.801  66.120  1.00  0.00    -0.182 Mn 
HETATM    2  C   UNL     2      -7.419   9.123  65.695  1.00  0.00    -0.093 C  
HETATM    3  C   UNL     3      -9.790  18.386  67.598  1.00  0.00    -0.313 C  
HETATM    4  H   UNL     3     -10.302  20.228  67.934  1.00  0.00     0.000 HD 
HETATM    5  H   UNL     2      -8.178  10.524  64.635  1.00  0.00     0.000 HD 
HETATM    6  O   UNL     2      -7.978   9.608  64.484  1.00  0.00    -0.125 OA 
HETATM    7  O   UNL     3     -10.729  19.379  67.971  1.00  0.00    -0.377 OA 
ENDROOT
BRANCH   2   8
HETATM    8  C   UNL     2      -7.095   7.636  65.449  1.00  0.00    -0.063 C  
HETATM    9  H   UNL     2      -5.510   6.459  65.282  1.00  0.00     0.000 HD 
HETATM   10  O   UNL     2      -5.710   7.375  65.433  1.00  0.00    -0.035 OA 
ENDBRANCH   2   8
BRANCH   2  11
HETATM   11  C   UNL     2      -8.433   9.409  66.872  1.00  0.00    -0.127 C  
HETATM   12  H   UNL     2     -10.388   9.512  67.130  1.00  0.00     0.000 HD 
HETATM   13  O   UNL     2      -9.778   9.341  66.422  1.00  0.00    -0.214 OA 
BRANCH  11  14
HETATM   14  C   UNL     2      -8.320   8.469  68.117  1.00  0.00    -0.127 C  
HETATM   15  H   UNL     2      -9.310   6.973  68.808  1.00  0.00     0.000 HD 
HETATM   16  O   UNL     2      -9.378   7.544  68.052  1.00  0.00    -0.139 OA 
BRANCH  14  17
HETATM   17  C   UNL     2      -8.380   9.175  69.493  1.00  0.00    -0.126 C  
HETATM   18  C   UNL     2      -7.040   9.117  70.206  1.00  0.00    -0.063 C  
HETATM   19  H   UNL     2      -9.384   8.981  71.140  1.00  0.00     0.000 HD 
HETATM   20  O   UNL     2      -9.347   8.548  70.295  1.00  0.00    -0.156 OA 
HETATM   21  O   UNL     2      -6.890   9.716  71.399  1.00  0.00    -0.320 OA 
HETATM   22  O   UNL     2      -6.056   8.595  69.682  1.00  0.00    -0.032 OA 
ENDBRANCH  14  17
ENDBRANCH  11  14
ENDBRANCH   2  11
BRANCH   3  23
HETATM   23  C   UNL     3      -8.521  18.641  68.506  1.00  0.00    -0.338 C  
HETATM   24  O   UNL     3      -8.148  17.362  68.963  1.00  0.00    -0.212 OA 
HETATM   25  H   UNL     3      -7.386  17.516  69.508  1.00  0.00     0.000 HD 
BRANCH  23  26
HETATM   26  C   UNL     3      -7.153  19.394  68.173  1.00  0.00    -0.275 C  
HETATM   27  O   UNL     3      -6.585  18.632  67.136  1.00  0.00    -0.193 OA 
HETATM   28  H   UNL     3      -5.771  19.080  66.938  1.00  0.00     0.000 HD 
BRANCH  26  29
HETATM   29  C   UNL     3      -5.927  19.645  69.179  1.00  0.00    -0.262 C  
HETATM   30  C   UNL     3      -6.150  19.661  70.665  1.00  0.00    -0.163 C  
HETATM   31  O   UNL     3      -5.274  20.864  68.896  1.00  0.00    -0.288 OA 
HETATM   32  O   UNL     3      -6.901  20.624  71.230  1.00  0.00    -0.203 OA 
HETATM   33  O   UNL     3      -5.524  18.894  71.379  1.00  0.00    -0.269 OA 
HETATM   34  H   UNL     3      -4.548  21.012  69.491  1.00  0.00     0.000 HD 
ENDBRANCH  26  29
ENDBRANCH  23  26
ENDBRANCH   3  23
BRANCH   3  35
HETATM   35  C   UNL     3     -10.494  16.986  67.660  1.00  0.00    -0.343 C  
HETATM   36  O   UNL     3     -10.603  16.388  66.402  1.00  0.00    -0.301 OA 
HETATM   37  H   UNL     3     -11.029  15.540  66.439  1.00  0.00     0.000 HD 
ENDBRANCH   3  35
TORSDOF 8
ENDMDL
MODEL      308
REMARK 921   NORMALIZED FREE ENERGY PREDICTED BY IDOCK:   -3.09 KCAL/MOL
REMARK 922        TOTAL FREE ENERGY PREDICTED BY IDOCK:   -6.21 KCAL/MOL
REMARK 923 INTER-LIGAND FREE ENERGY PREDICTED BY IDOCK:   -6.93 KCAL/MOL
REMARK 924 INTRA-LIGAND FREE ENERGY PREDICTED BY IDOCK:    0.72 KCAL/MOL
REMARK 927      BINDING AFFINITY PREDICTED BY RF-SCORE:    0.00 PKD
ROOT
HETATM    1 MN   UNL     1      -7.636   9.342  68.204  1.00  0.00    -0.076 Mn 
HETATM    2  C   UNL     2      -6.849  16.925  66.812  1.00  0.00    -0.232 C  
HETATM    3  C   UNL     3      -9.110   7.920  69.786  1.00  0.00    -0.146 C  
HETATM    4  H   UNL     3      -9.515   6.128  70.415  1.00  0.00     0.000 HD 
HETATM    5  H   UNL     2      -5.825  15.505  67.584  1.00  0.00     0.000 HD 
HETATM    6  O   UNL     2      -5.636  16.399  67.326  1.00  0.00    -0.146 OA 
HETATM    7  O   UNL     3      -9.480   6.998  70.797  1.00  0.00    -0.161 OA 
ENDROOT
BRANCH   2   8
HETATM    8  C   UNL     2      -6.543  18.376  66.394  1.00  0.00    -0.205 C  
HETATM    9  H   UNL     2      -6.332  19.443  64.738  1.00  0.00     0.000 HD 
HETATM   10  O   UNL     2      -6.521  18.548  64.996  1.00  0.00    -0.464 OA 
ENDBRANCH   2   8
BRANCH   2  11
HETATM   11  C   UNL     2      -7.977  16.759  67.906  1.00  0.00    -0.177 C  
HETATM   12  H   UNL     2      -8.644  17.740  69.485  1.00  0.00     0.000 HD 
HETATM   13  O   UNL     2      -7.965  17.839  68.827  1.00  0.00    -0.285 OA 
BRANCH  11  14
HETATM   14  C   UNL     2      -9.440  16.633  67.369  1.00  0.00    -0.232 C  
HETATM   15  H   UNL     2     -10.292  16.766  65.650  1.00  0.00     0.000 HD 
HETATM   16  O   UNL     2      -9.404  16.843  65.977  1.00  0.00    -0.430 OA 
BRANCH  14  17
HETATM   17  C   UNL     2     -10.463  17.620  67.979  1.00  0.00    -0.394 C  
HETATM   18  C   UNL     2     -10.487  18.936  67.219  1.00  0.00    -0.439 C  
HETATM   19  H   UNL     2     -10.749  18.482  69.692  1.00  0.00     0.000 HD 
HETATM   20  O   UNL     2     -10.121  17.876  69.317  1.00  0.00    -0.281 OA 
HETATM   21  O   UNL     2     -11.348  19.902  67.581  1.00  0.00     0.060 OA 
HETATM   22  O   UNL     2      -9.785  19.115  66.225  1.00  0.00    -0.351 OA 
ENDBRANCH  14  17
ENDBRANCH  11  14
ENDBRANCH   2  11
BRANCH   3  23
HETATM   23  C   UNL     3     -10.106   7.653  68.586  1.00  0.00    -0.190 C  
HETATM   24  O   UNL     3     -11.345   7.395  69.205  1.00  0.00    -0.436 OA 
HETATM   25  H   UNL     3     -11.943   7.235  68.484  1.00  0.00     0.000 HD 
BRANCH  23  26
HETATM   26  C   UNL     3     -10.442   8.550  67.309  1.00  0.00    -0.296 C  
HETATM   27  O   UNL     3      -9.193   8.754  66.695  1.00  0.00    -0.156 OA 
HETATM   28  H   UNL     3      -9.393   9.288  65.935  1.00  0.00     0.000 HD 
BRANCH  26  29
HETATM   29  C   UNL     3     -11.110  10.009  67.311  1.00  0.00    -0.044 C  
HETATM   30  C   UNL     3     -10.256  11.240  67.180  1.00  0.00    -0.201 C  
HETATM   31  O   UNL     3     -11.875  10.220  68.478  1.00  0.00    -0.682 OA 
HETATM   32  O   UNL     3      -9.378  11.564  68.147  1.00  0.00    -0.171 OA 
HETATM   33  O   UNL     3     -10.468  12.030  66.274  1.00  0.00    -0.228 OA 
HETATM   34  H   UNL     3     -12.271  11.085  68.479  1.00  0.00     0.000 HD 
ENDBRANCH  26  29
ENDBRANCH  23  26
ENDBRANCH   3  23
BRANCH   3  35
HETATM   35  C   UNL     3      -9.053   9.354  70.415  1.00  0.00    -0.256 C  
HETATM   36  O   UNL     3      -7.755   9.727  70.774  1.00  0.00    -0.308 OA 
HETATM   37  H   UNL     3      -7.721  10.597  71.156  1.00  0.00     0.000 HD 
ENDBRANCH   3  35
TORSDOF 8
ENDMDL
MODEL      309
REMARK 921   NORMALIZED FREE ENERGY PREDICTED BY IDOCK:   -3.08 KCAL/MOL
REMARK 922        TOTAL FREE ENERGY PREDICTED BY IDOCK:   -6.20 KCAL/MOL
REMARK 923 INTER-LIGAND FREE ENERGY PREDICTED BY IDOCK:   -5.12 KCAL/MOL
REMARK 924 INTRA-LIGAND FREE ENERGY PREDICTED BY IDOCK:   -1.08 KCAL/MOL
REMARK 927      BINDING AFFINITY PREDICTED BY RF-SCORE:    0.00 PKD
ROOT
HETATM    1 MN   UNL     1      -9.750  10.700  66.884  1.00  0.00    -0.158 Mn 
HETATM    2  C   UNL     2      -7.160   4.106  70.026  1.00  0.00    -0.042 C  
HETATM    3  C   UNL     3     -11.216  12.664  67.713  1.00  0.00    -0.274 C  
HETATM    4  H   UNL     3     -12.069  14.340  67.229  1.00  0.00     0.000 HD 
HETATM    5  H   UNL     2      -8.386   4.647  68.660  1.00  0.00     0.000 HD 
HETATM    6  O   UNL     2      -8.012   3.816  68.928  1.00  0.00    -0.059 OA 
HETATM    7  O   UNL     3     -12.279  13.599  67.787  1.00  0.00    -0.321 OA 
ENDROOT
BRANCH   2   8
HETATM    8  C   UNL     2      -6.553   2.758  70.461  1.00  0.00    -0.032 C  
HETATM    9  H   UNL     2      -6.978   1.246  71.669  1.00  0.00     0.000 HD 
HETATM   10  O   UNL     2      -7.352   2.077  71.401  1.00  0.00    -0.032 OA 
ENDBRANCH   2   8
BRANCH   2  11
HETATM   11  C   UNL     2      -7.998   4.860  71.133  1.00  0.00    -0.092 C  
HETATM   12  H   UNL     2      -8.459   6.720  71.609  1.00  0.00     0.000 HD 
HETATM   13  O   UNL     2      -7.955   6.266  70.944  1.00  0.00    -0.108 OA 
BRANCH  11  14
HETATM   14  C   UNL     2      -9.506   4.459  71.243  1.00  0.00    -0.157 C  
HETATM   15  H   UNL     2     -11.178   5.219  70.673  1.00  0.00     0.000 HD 
HETATM   16  O   UNL     2     -10.262   5.462  70.606  1.00  0.00    -0.219 OA 
BRANCH  14  17
HETATM   17  C   UNL     2     -10.047   4.287  72.682  1.00  0.00    -0.164 C  
HETATM   18  C   UNL     2     -10.547   2.873  72.922  1.00  0.00    -0.123 C  
HETATM   19  H   UNL     2     -11.440   5.079  73.773  1.00  0.00     0.000 HD 
HETATM   20  O   UNL     2     -11.108   5.184  72.890  1.00  0.00    -0.259 OA 
HETATM   21  O   UNL     2     -11.015   2.526  74.133  1.00  0.00    -0.173 OA 
HETATM   22  O   UNL     2     -10.465   2.007  72.052  1.00  0.00    -0.118 OA 
ENDBRANCH  14  17
ENDBRANCH  11  14
ENDBRANCH   2  11
BRANCH   3  23
HETATM   23  C   UNL     3      -9.903  13.494  68.011  1.00  0.00    -0.238 C  
HETATM   24  O   UNL     3      -8.992  12.547  68.518  1.00  0.00    -0.321 OA 
HETATM   25  H   UNL     3      -8.204  13.045  68.697  1.00  0.00     0.000 HD 
BRANCH  23  26
HETATM   26  C   UNL     3      -9.047  14.442  67.054  1.00  0.00    -0.236 C  
HETATM   27  O   UNL     3      -8.012  13.614  66.585  1.00  0.00    -0.316 OA 
HETATM   28  H   UNL     3      -7.502  14.178  66.015  1.00  0.00     0.000 HD 
BRANCH  26  29
HETATM   29  C   UNL     3      -8.293  15.797  67.470  1.00  0.00    -0.166 C  
HETATM   30  C   UNL     3      -6.801  15.915  67.328  1.00  0.00    -0.197 C  
HETATM   31  O   UNL     3      -8.558  16.138  68.814  1.00  0.00    -0.210 OA 
HETATM   32  O   UNL     3      -5.984  15.149  68.073  1.00  0.00    -0.126 OA 
HETATM   33  O   UNL     3      -6.327  16.814  66.652  1.00  0.00    -0.191 OA 
HETATM   34  H   UNL     3      -8.112  16.939  69.061  1.00  0.00     0.000 HD 
ENDBRANCH  26  29
ENDBRANCH  23  26
ENDBRANCH   3  23
BRANCH   3  35
HETATM   35  C   UNL     3     -11.562  11.443  68.633  1.00  0.00    -0.320 C  
HETATM   36  O   UNL     3     -11.295  11.698  69.981  1.00  0.00    -0.466 OA 
HETATM   37  H   UNL     3     -11.505  10.957  70.538  1.00  0.00     0.000 HD 
ENDBRANCH   3  35
TORSDOF 8
ENDMDL
MODEL      310
REMARK 921   NORMALIZED FREE ENERGY PREDICTED BY IDOCK:   -3.08 KCAL/MOL
REMARK 922        TOTAL FREE ENERGY PREDICTED BY IDOCK:   -6.20 KCAL/MOL
REMARK 923 INTER-LIGAND FREE ENERGY PREDICTED BY IDOCK:   -5.10 KCAL/MOL
REMARK 924 INTRA-LIGAND FREE ENERGY PREDICTED BY IDOCK:   -1.10 KCAL/MOL
REMARK 927      BINDING AFFINITY PREDICTED BY RF-SCORE:    0.00 PKD
ROOT
HETATM    1 MN   UNL     1      -9.006  14.864  66.192  1.00  0.00    -0.217 Mn 
HETATM    2  C   UNL     2      -8.290   7.188  66.981  1.00  0.00    -0.118 C  
HETATM    3  C   UNL     3     -10.466  16.685  67.308  1.00  0.00    -0.313 C  
HETATM    4  H   UNL     3     -10.937  18.569  67.328  1.00  0.00     0.000 HD 
HETATM    5  H   UNL     2      -8.923   8.432  65.672  1.00  0.00     0.000 HD 
HETATM    6  O   UNL     2      -8.745   7.499  65.673  1.00  0.00    -0.144 OA 
HETATM    7  O   UNL     3     -11.394  17.746  67.459  1.00  0.00     0.102 OA 
ENDROOT
BRANCH   2   8
HETATM    8  C   UNL     2      -8.001   5.674  66.983  1.00  0.00    -0.102 C  
HETATM    9  H   UNL     2      -6.602   4.420  67.610  1.00  0.00     0.000 HD 
HETATM   10  O   UNL     2      -6.780   5.353  67.608  1.00  0.00    -0.052 OA 
ENDBRANCH   2   8
BRANCH   2  11
HETATM   11  C   UNL     2      -9.375   7.672  68.023  1.00  0.00    -0.140 C  
HETATM   12  H   UNL     2     -10.722   6.863  69.218  1.00  0.00     0.000 HD 
HETATM   13  O   UNL     2     -10.070   6.572  68.591  1.00  0.00    -0.148 OA 
BRANCH  11  14
HETATM   14  C   UNL     2      -8.844   8.540  69.211  1.00  0.00    -0.142 C  
HETATM   15  H   UNL     2      -9.078   8.554  71.119  1.00  0.00     0.000 HD 
HETATM   16  O   UNL     2      -9.400   8.027  70.397  1.00  0.00    -0.157 OA 
BRANCH  14  17
HETATM   17  C   UNL     2      -9.177  10.049  69.135  1.00  0.00    -0.190 C  
HETATM   18  C   UNL     2     -10.657  10.303  69.361  1.00  0.00    -0.237 C  
HETATM   19  H   UNL     2      -9.025  11.467  67.822  1.00  0.00     0.000 HD 
HETATM   20  O   UNL     2      -8.821  10.541  67.868  1.00  0.00    -0.131 OA 
HETATM   21  O   UNL     2     -11.125  11.563  69.373  1.00  0.00    -0.247 OA 
HETATM   22  O   UNL     2     -11.435   9.383  69.610  1.00  0.00    -0.074 OA 
ENDBRANCH  14  17
ENDBRANCH  11  14
ENDBRANCH   2  11
BRANCH   3  23
HETATM   23  C   UNL     3      -9.256  17.044  68.261  1.00  0.00    -0.255 C  
HETATM   24  O   UNL     3      -8.132  16.468  67.639  1.00  0.00    -0.159 OA 
HETATM   25  H   UNL     3      -7.405  16.683  68.211  1.00  0.00     0.000 HD 
BRANCH  23  26
HETATM   26  C   UNL     3      -8.764  18.460  68.810  1.00  0.00    -0.221 C  
HETATM   27  O   UNL     3      -9.928  19.046  69.341  1.00  0.00    -0.380 OA 
HETATM   28  H   UNL     3      -9.635  19.889  69.667  1.00  0.00     0.000 HD 
BRANCH  26  29
HETATM   29  C   UNL     3      -8.098  19.643  67.953  1.00  0.00    -0.304 C  
HETATM   30  C   UNL     3      -7.994  19.535  66.457  1.00  0.00    -0.301 C  
HETATM   31  O   UNL     3      -6.784  19.914  68.390  1.00  0.00    -0.276 OA 
HETATM   32  O   UNL     3      -7.214  18.595  65.895  1.00  0.00    -0.311 OA 
HETATM   33  O   UNL     3      -8.492  20.399  65.752  1.00  0.00    -0.039 OA 
HETATM   34  H   UNL     3      -6.389  20.614  67.883  1.00  0.00     0.000 HD 
ENDBRANCH  26  29
ENDBRANCH  23  26
ENDBRANCH   3  23
BRANCH   3  35
HETATM   35  C   UNL     3     -11.221  15.328  67.524  1.00  0.00    -0.317 C  
HETATM   36  O   UNL     3     -10.401  14.346  68.086  1.00  0.00    -0.223 OA 
HETATM   37  H   UNL     3     -10.859  13.524  68.216  1.00  0.00     0.000 HD 
ENDBRANCH   3  35
TORSDOF 8
ENDMDL
MODEL      311
REMARK 921   NORMALIZED FREE ENERGY PREDICTED BY IDOCK:   -3.08 KCAL/MOL
REMARK 922        TOTAL FREE ENERGY PREDICTED BY IDOCK:   -6.19 KCAL/MOL
REMARK 923 INTER-LIGAND FREE ENERGY PREDICTED BY IDOCK:   -4.77 KCAL/MOL
REMARK 924 INTRA-LIGAND FREE ENERGY PREDICTED BY IDOCK:   -1.43 KCAL/MOL
REMARK 927      BINDING AFFINITY PREDICTED BY RF-SCORE:    0.00 PKD
ROOT
HETATM    1 MN   UNL     1     -10.280   4.730  67.910  1.00  0.00    -0.155 Mn 
HETATM    2  C   UNL     2     -11.267  12.318  69.133  1.00  0.00    -0.242 C  
HETATM    3  C   UNL     3      -9.254   3.306  66.009  1.00  0.00    -0.148 C  
HETATM    4  H   UNL     3      -8.907   1.507  65.365  1.00  0.00     0.000 HD 
HETATM    5  H   UNL     2     -12.350  10.778  68.793  1.00  0.00     0.000 HD 
HETATM    6  O   UNL     2     -12.528  11.673  69.056  1.00  0.00    -0.243 OA 
HETATM    7  O   UNL     3      -9.137   2.343  64.975  1.00  0.00    -0.126 OA 
ENDROOT
BRANCH   2   8
HETATM    8  C   UNL     2     -11.556  13.771  69.561  1.00  0.00    -0.297 C  
HETATM    9  H   UNL     2     -11.828  15.548  68.730  1.00  0.00     0.000 HD 
HETATM   10  O   UNL     2     -11.650  14.653  68.467  1.00  0.00    -0.287 OA 
ENDBRANCH   2   8
BRANCH   2  11
HETATM   11  C   UNL     2     -10.528  12.155  67.747  1.00  0.00    -0.205 C  
HETATM   12  H   UNL     2      -8.774  11.536  67.084  1.00  0.00     0.000 HD 
HETATM   13  O   UNL     2      -9.218  11.635  67.918  1.00  0.00    -0.160 OA 
BRANCH  11  14
HETATM   14  C   UNL     2     -11.244  11.251  66.690  1.00  0.00    -0.177 C  
HETATM   15  H   UNL     2     -10.919   9.525  65.908  1.00  0.00     0.000 HD 
HETATM   16  O   UNL     2     -10.485  10.075  66.549  1.00  0.00    -0.215 OA 
BRANCH  14  17
HETATM   17  C   UNL     2     -11.427  11.879  65.288  1.00  0.00    -0.253 C  
HETATM   18  C   UNL     2     -10.181  11.709  64.437  1.00  0.00    -0.300 C  
HETATM   19  H   UNL     2     -11.810  13.636  64.564  1.00  0.00     0.000 HD 
HETATM   20  O   UNL     2     -11.698  13.250  65.425  1.00  0.00    -0.320 OA 
HETATM   21  O   UNL     2     -10.169  12.156  63.170  1.00  0.00    -0.391 OA 
HETATM   22  O   UNL     2      -9.196  11.100  64.855  1.00  0.00    -0.209 OA 
ENDBRANCH  14  17
ENDBRANCH  11  14
ENDBRANCH   2  11
BRANCH   3  23
HETATM   23  C   UNL     3      -7.913   3.196  66.840  1.00  0.00    -0.079 C  
HETATM   24  O   UNL     3      -6.889   3.302  65.879  1.00  0.00    -0.050 OA 
HETATM   25  H   UNL     3      -6.084   3.236  66.379  1.00  0.00     0.000 HD 
BRANCH  23  26
HETATM   26  C   UNL     3      -7.411   4.042  68.097  1.00  0.00    -0.059 C  
HETATM   27  O   UNL     3      -8.454   3.921  69.033  1.00  0.00    -0.075 OA 
HETATM   28  H   UNL     3      -8.156   4.424  69.781  1.00  0.00     0.000 HD 
BRANCH  26  29
HETATM   29  C   UNL     3      -7.056   5.607  68.121  1.00  0.00    -0.071 C  
HETATM   30  C   UNL     3      -8.036   6.603  68.675  1.00  0.00    -0.119 C  
HETATM   31  O   UNL     3      -6.749   6.082  66.827  1.00  0.00    -0.054 OA 
HETATM   32  O   UNL     3      -9.217   6.809  68.064  1.00  0.00    -0.120 OA 
HETATM   33  O   UNL     3      -7.699   7.340  69.589  1.00  0.00    -0.100 OA 
HETATM   34  H   UNL     3      -6.539   7.009  66.841  1.00  0.00     0.000 HD 
ENDBRANCH  26  29
ENDBRANCH  23  26
ENDBRANCH   3  23
BRANCH   3  35
HETATM   35  C   UNL     3      -9.633   4.684  65.365  1.00  0.00    -0.168 C  
HETATM   36  O   UNL     3      -8.547   5.293  64.730  1.00  0.00    -0.148 OA 
HETATM   37  H   UNL     3      -8.777   6.128  64.340  1.00  0.00     0.000 HD 
ENDBRANCH   3  35
TORSDOF 8
ENDMDL
MODEL      312
REMARK 921   NORMALIZED FREE ENERGY PREDICTED BY IDOCK:   -3.05 KCAL/MOL
REMARK 922        TOTAL FREE ENERGY PREDICTED BY IDOCK:   -6.16 KCAL/MOL
REMARK 923 INTER-LIGAND FREE ENERGY PREDICTED BY IDOCK:   -5.18 KCAL/MOL
REMARK 924 INTRA-LIGAND FREE ENERGY PREDICTED BY IDOCK:   -0.98 KCAL/MOL
REMARK 927      BINDING AFFINITY PREDICTED BY RF-SCORE:    0.00 PKD
ROOT
HETATM    1 MN   UNL     1     -11.774  10.818  66.959  1.00  0.00    -0.298 Mn 
HETATM    2  C   UNL     2      -8.575   3.781  66.410  1.00  0.00    -0.113 C  
HETATM    3  C   UNL     3     -11.515  12.820  68.578  1.00  0.00    -0.309 C  
HETATM    4  H   UNL     3     -12.146  14.597  69.039  1.00  0.00     0.000 HD 
HETATM    5  H   UNL     2     -10.285   4.541  66.812  1.00  0.00     0.000 HD 
HETATM    6  O   UNL     2      -9.970   3.661  66.640  1.00  0.00    -0.067 OA 
HETATM    7  O   UNL     3     -11.845  13.831  69.514  1.00  0.00    -0.296 OA 
ENDROOT
BRANCH   2   8
HETATM    8  C   UNL     2      -8.065   2.354  66.130  1.00  0.00    -0.085 C  
HETATM    9  H   UNL     2      -6.915   1.406  64.825  1.00  0.00     0.000 HD 
HETATM   10  O   UNL     2      -7.230   2.286  64.998  1.00  0.00    -0.055 OA 
ENDBRANCH   2   8
BRANCH   2  11
HETATM   11  C   UNL     2      -7.917   4.505  67.651  1.00  0.00    -0.096 C  
HETATM   12  H   UNL     2      -6.124   4.692  68.457  1.00  0.00     0.000 HD 
HETATM   13  O   UNL     2      -6.521   4.257  67.711  1.00  0.00    -0.036 OA 
BRANCH  11  14
HETATM   14  C   UNL     2      -8.110   6.055  67.722  1.00  0.00    -0.109 C  
HETATM   15  H   UNL     2      -8.893   7.399  66.592  1.00  0.00     0.000 HD 
HETATM   16  O   UNL     2      -8.775   6.457  66.549  1.00  0.00    -0.123 OA 
BRANCH  14  17
HETATM   17  C   UNL     2      -6.810   6.884  67.849  1.00  0.00    -0.081 C  
HETATM   18  C   UNL     2      -6.832   7.767  69.085  1.00  0.00    -0.049 C  
HETATM   19  H   UNL     2      -5.868   8.208  66.791  1.00  0.00     0.000 HD 
HETATM   20  O   UNL     2      -6.666   7.698  66.714  1.00  0.00    -0.062 OA 
HETATM   21  O   UNL     2      -5.766   8.529  69.382  1.00  0.00    -0.030 OA 
HETATM   22  O   UNL     2      -7.779   7.747  69.870  1.00  0.00    -0.091 OA 
ENDBRANCH  14  17
ENDBRANCH  11  14
ENDBRANCH   2  11
BRANCH   3  23
HETATM   23  C   UNL     3     -10.538  13.507  67.542  1.00  0.00    -0.244 C  
HETATM   24  O   UNL     3      -9.284  12.915  67.791  1.00  0.00    -0.184 OA 
HETATM   25  H   UNL     3      -8.697  13.328  67.169  1.00  0.00     0.000 HD 
BRANCH  23  26
HETATM   26  C   UNL     3     -10.645  13.633  65.955  1.00  0.00    -0.289 C  
HETATM   27  O   UNL     3      -9.404  14.170  65.568  1.00  0.00    -0.513 OA 
HETATM   28  H   UNL     3      -9.468  14.246  64.623  1.00  0.00     0.000 HD 
BRANCH  26  29
HETATM   29  C   UNL     3     -11.712  14.505  65.131  1.00  0.00    -0.376 C  
HETATM   30  C   UNL     3     -11.478  15.971  64.893  1.00  0.00    -0.125 C  
HETATM   31  O   UNL     3     -12.994  14.432  65.718  1.00  0.00    -0.411 OA 
HETATM   32  O   UNL     3     -11.464  16.834  65.924  1.00  0.00     0.526 OA 
HETATM   33  O   UNL     3     -11.457  16.402  63.750  1.00  0.00    -1.002 OA 
HETATM   34  H   UNL     3     -13.625  14.949  65.231  1.00  0.00     0.000 HD 
ENDBRANCH  26  29
ENDBRANCH  23  26
ENDBRANCH   3  23
BRANCH   3  35
HETATM   35  C   UNL     3     -11.019  11.557  69.363  1.00  0.00    -0.176 C  
HETATM   36  O   UNL     3     -11.931  10.500  69.304  1.00  0.00    -0.487 OA 
HETATM   37  H   UNL     3     -11.630   9.735  69.780  1.00  0.00     0.000 HD 
ENDBRANCH   3  35
TORSDOF 8
ENDMDL
MODEL      313
REMARK 921   NORMALIZED FREE ENERGY PREDICTED BY IDOCK:   -3.04 KCAL/MOL
REMARK 922        TOTAL FREE ENERGY PREDICTED BY IDOCK:   -6.14 KCAL/MOL
REMARK 923 INTER-LIGAND FREE ENERGY PREDICTED BY IDOCK:   -6.07 KCAL/MOL
REMARK 924 INTRA-LIGAND FREE ENERGY PREDICTED BY IDOCK:   -0.07 KCAL/MOL
REMARK 927      BINDING AFFINITY PREDICTED BY RF-SCORE:    0.00 PKD
ROOT
HETATM    1 MN   UNL     1      -7.198   9.486  66.404  1.00  0.00    -0.079 Mn 
HETATM    2  C   UNL     2      -9.401  16.882  67.119  1.00  0.00    -0.234 C  
HETATM    3  C   UNL     3      -8.165   7.211  67.171  1.00  0.00    -0.118 C  
HETATM    4  H   UNL     3      -7.884   5.291  67.228  1.00  0.00     0.000 HD 
HETATM    5  H   UNL     2      -8.002  15.744  67.761  1.00  0.00     0.000 HD 
HETATM    6  O   UNL     2      -8.163  16.680  67.782  1.00  0.00    -0.173 OA 
HETATM    7  O   UNL     3      -8.262   5.947  67.803  1.00  0.00    -0.105 OA 
ENDROOT
BRANCH   2   8
HETATM    8  C   UNL     2      -9.660  18.401  67.153  1.00  0.00    -0.295 C  
HETATM    9  H   UNL     2     -11.192  19.655  67.228  1.00  0.00     0.000 HD 
HETATM   10  O   UNL     2     -11.032  18.718  67.207  1.00  0.00    -0.412 OA 
ENDBRANCH   2   8
BRANCH   2  11
HETATM   11  C   UNL     2     -10.502  15.991  67.818  1.00  0.00    -0.298 C  
HETATM   12  H   UNL     2     -11.820  14.614  67.301  1.00  0.00     0.000 HD 
HETATM   13  O   UNL     2     -11.158  15.150  66.881  1.00  0.00    -0.323 OA 
BRANCH  11  14
HETATM   14  C   UNL     2     -10.003  15.074  68.984  1.00  0.00    -0.246 C  
HETATM   15  H   UNL     2      -9.722  13.188  69.228  1.00  0.00     0.000 HD 
HETATM   16  O   UNL     2     -10.025  13.745  68.520  1.00  0.00    -0.230 OA 
BRANCH  14  17
HETATM   17  C   UNL     2     -10.831  15.144  70.289  1.00  0.00    -0.231 C  
HETATM   18  C   UNL     2     -11.940  14.106  70.300  1.00  0.00    -0.334 C  
HETATM   19  H   UNL     2     -11.912  16.464  71.209  1.00  0.00     0.000 HD 
HETATM   20  O   UNL     2     -11.403  16.421  70.408  1.00  0.00    -0.349 OA 
HETATM   21  O   UNL     2     -12.738  13.990  71.375  1.00  0.00    -0.329 OA 
HETATM   22  O   UNL     2     -12.083  13.311  69.372  1.00  0.00    -0.300 OA 
ENDBRANCH  14  17
ENDBRANCH  11  14
ENDBRANCH   2  11
BRANCH   3  23
HETATM   23  C   UNL     3      -8.786   7.012  65.731  1.00  0.00    -0.064 C  
HETATM   24  O   UNL     3      -8.943   8.318  65.228  1.00  0.00    -0.376 OA 
HETATM   25  H   UNL     3      -9.317   8.198  64.363  1.00  0.00     0.000 HD 
BRANCH  23  26
HETATM   26  C   UNL     3      -8.269   6.137  64.500  1.00  0.00    -0.079 C  
HETATM   27  O   UNL     3      -8.653   6.877  63.367  1.00  0.00    -0.328 OA 
HETATM   28  H   UNL     3      -8.346   6.357  62.634  1.00  0.00     0.000 HD 
BRANCH  26  29
HETATM   29  C   UNL     3      -8.705   4.635  64.140  1.00  0.00    -0.145 C  
HETATM   30  C   UNL     3      -9.969   4.051  64.706  1.00  0.00    -0.205 C  
HETATM   31  O   UNL     3      -7.693   3.712  64.483  1.00  0.00    -0.079 OA 
HETATM   32  O   UNL     3     -10.089   3.843  66.030  1.00  0.00    -0.127 OA 
HETATM   33  O   UNL     3     -10.827   3.619  63.952  1.00  0.00    -0.279 OA 
HETATM   34  H   UNL     3      -7.951   2.823  64.270  1.00  0.00     0.000 HD 
ENDBRANCH  26  29
ENDBRANCH  23  26
ENDBRANCH   3  23
BRANCH   3  35
HETATM   35  C   UNL     3      -8.788   8.293  68.120  1.00  0.00    -0.139 C  
HETATM   36  O   UNL     3     -10.166   8.434  67.933  1.00  0.00    -0.196 OA 
HETATM   37  H   UNL     3     -10.544   9.090  68.509  1.00  0.00     0.000 HD 
ENDBRANCH   3  35
TORSDOF 8
ENDMDL
MODEL      314
REMARK 921   NORMALIZED FREE ENERGY PREDICTED BY IDOCK:   -2.98 KCAL/MOL
REMARK 922        TOTAL FREE ENERGY PREDICTED BY IDOCK:   -6.05 KCAL/MOL
REMARK 923 INTER-LIGAND FREE ENERGY PREDICTED BY IDOCK:   -5.27 KCAL/MOL
REMARK 924 INTRA-LIGAND FREE ENERGY PREDICTED BY IDOCK:   -0.78 KCAL/MOL
REMARK 927      BINDING AFFINITY PREDICTED BY RF-SCORE:    0.00 PKD
ROOT
HETATM    1 MN   UNL     1      -9.843  10.784  66.967  1.00  0.00    -0.164 Mn 
HETATM    2  C   UNL     2      -7.564   4.116  70.190  1.00  0.00    -0.045 C  
HETATM    3  C   UNL     3     -11.309  12.775  67.733  1.00  0.00    -0.294 C  
HETATM    4  H   UNL     3     -12.099  14.471  67.217  1.00  0.00     0.000 HD 
HETATM    5  H   UNL     2      -8.705   4.692  68.766  1.00  0.00     0.000 HD 
HETATM    6  O   UNL     2      -8.363   3.852  69.048  1.00  0.00    -0.071 OA 
HETATM    7  O   UNL     3     -12.353  13.732  67.758  1.00  0.00    -0.251 OA 
ENDROOT
BRANCH   2   8
HETATM    8  C   UNL     2      -7.008   2.752  70.646  1.00  0.00    -0.033 C  
HETATM    9  H   UNL     2      -7.138   1.528  72.199  1.00  0.00     0.000 HD 
HETATM   10  O   UNL     2      -7.480   2.369  71.917  1.00  0.00    -0.039 OA 
ENDBRANCH   2   8
BRANCH   2  11
HETATM   11  C   UNL     2      -8.441   4.881  71.257  1.00  0.00    -0.116 C  
HETATM   12  H   UNL     2      -8.157   6.069  72.809  1.00  0.00     0.000 HD 
HETATM   13  O   UNL     2      -7.629   5.608  72.167  1.00  0.00    -0.097 OA 
BRANCH  11  14
HETATM   14  C   UNL     2      -9.497   5.883  70.685  1.00  0.00    -0.171 C  
HETATM   15  H   UNL     2     -10.867   5.819  69.338  1.00  0.00     0.000 HD 
HETATM   16  O   UNL     2     -10.226   5.211  69.686  1.00  0.00    -0.241 OA 
BRANCH  14  17
HETATM   17  C   UNL     2      -8.922   7.182  70.072  1.00  0.00    -0.142 C  
HETATM   18  C   UNL     2      -9.646   8.411  70.594  1.00  0.00    -0.171 C  
HETATM   19  H   UNL     2      -8.703   7.933  68.299  1.00  0.00     0.000 HD 
HETATM   20  O   UNL     2      -9.056   7.136  68.675  1.00  0.00    -0.134 OA 
HETATM   21  O   UNL     2      -9.253   9.635  70.203  1.00  0.00    -0.226 OA 
HETATM   22  O   UNL     2     -10.543   8.319  71.431  1.00  0.00    -0.210 OA 
ENDBRANCH  14  17
ENDBRANCH  11  14
ENDBRANCH   2  11
BRANCH   3  23
HETATM   23  C   UNL     3      -9.995  13.574  68.104  1.00  0.00    -0.240 C  
HETATM   24  O   UNL     3      -9.155  12.616  68.704  1.00  0.00    -0.376 OA 
HETATM   25  H   UNL     3      -8.366  13.096  68.927  1.00  0.00     0.000 HD 
BRANCH  23  26
HETATM   26  C   UNL     3      -9.041  14.467  67.187  1.00  0.00    -0.225 C  
HETATM   27  O   UNL     3      -8.343  13.531  66.403  1.00  0.00    -0.288 OA 
HETATM   28  H   UNL     3      -7.776  14.063  65.857  1.00  0.00     0.000 HD 
BRANCH  26  29
HETATM   29  C   UNL     3      -7.897  15.474  67.689  1.00  0.00    -0.155 C  
HETATM   30  C   UNL     3      -6.741  14.969  68.507  1.00  0.00    -0.098 C  
HETATM   31  O   UNL     3      -8.443  16.533  68.446  1.00  0.00    -0.191 OA 
HETATM   32  O   UNL     3      -6.946  14.476  69.742  1.00  0.00    -0.151 OA 
HETATM   33  O   UNL     3      -5.598  15.149  68.117  1.00  0.00    -0.109 OA 
HETATM   34  H   UNL     3      -7.765  17.129  68.744  1.00  0.00     0.000 HD 
ENDBRANCH  26  29
ENDBRANCH  23  26
ENDBRANCH   3  23
BRANCH   3  35
HETATM   35  C   UNL     3     -11.728  11.555  68.624  1.00  0.00    -0.326 C  
HETATM   36  O   UNL     3     -11.815  10.367  67.895  1.00  0.00    -0.702 OA 
HETATM   37  H   UNL     3     -12.069   9.628  68.436  1.00  0.00     0.000 HD 
ENDBRANCH   3  35
TORSDOF 8
ENDMDL
MODEL      315
REMARK 921   NORMALIZED FREE ENERGY PREDICTED BY IDOCK:   -2.98 KCAL/MOL
REMARK 922        TOTAL FREE ENERGY PREDICTED BY IDOCK:   -6.04 KCAL/MOL
REMARK 923 INTER-LIGAND FREE ENERGY PREDICTED BY IDOCK:   -4.99 KCAL/MOL
REMARK 924 INTRA-LIGAND FREE ENERGY PREDICTED BY IDOCK:   -1.05 KCAL/MOL
REMARK 927      BINDING AFFINITY PREDICTED BY RF-SCORE:    0.00 PKD
ROOT
HETATM    1 MN   UNL     1      -9.217  12.298  68.889  1.00  0.00    -0.194 Mn 
HETATM    2  C   UNL     2      -8.085   6.165  73.489  1.00  0.00    -0.108 C  
HETATM    3  C   UNL     3     -10.112  12.635  66.484  1.00  0.00    -0.248 C  
HETATM    4  H   UNL     3     -10.459  13.922  65.072  1.00  0.00     0.000 HD 
HETATM    5  H   UNL     2      -7.029   7.462  72.559  1.00  0.00     0.000 HD 
HETATM    6  O   UNL     2      -6.845   6.796  73.212  1.00  0.00    -0.074 OA 
HETATM    7  O   UNL     3     -10.165  13.019  65.121  1.00  0.00    -0.293 OA 
ENDROOT
BRANCH   2   8
HETATM    8  C   UNL     2      -7.786   5.086  74.548  1.00  0.00    -0.095 C  
HETATM    9  H   UNL     2      -7.580   3.119  74.662  1.00  0.00     0.000 HD 
HETATM   10  O   UNL     2      -7.764   3.784  74.009  1.00  0.00    -0.075 OA 
ENDBRANCH   2   8
BRANCH   2  11
HETATM   11  C   UNL     2      -8.698   5.633  72.134  1.00  0.00    -0.133 C  
HETATM   12  H   UNL     2     -10.485   5.356  71.342  1.00  0.00     0.000 HD 
HETATM   13  O   UNL     2     -10.116   5.676  72.157  1.00  0.00    -0.178 OA 
BRANCH  11  14
HETATM   14  C   UNL     2      -8.239   6.375  70.836  1.00  0.00    -0.125 C  
HETATM   15  H   UNL     2      -8.445   8.146  70.116  1.00  0.00     0.000 HD 
HETATM   16  O   UNL     2      -8.724   7.694  70.904  1.00  0.00    -0.135 OA 
BRANCH  14  17
HETATM   17  C   UNL     2      -8.720   5.751  69.505  1.00  0.00    -0.111 C  
HETATM   18  C   UNL     2      -7.557   5.464  68.572  1.00  0.00    -0.083 C  
HETATM   19  H   UNL     2      -9.898   6.257  68.050  1.00  0.00     0.000 HD 
HETATM   20  O   UNL     2      -9.603   6.639  68.868  1.00  0.00    -0.131 OA 
HETATM   21  O   UNL     2      -7.780   4.880  67.383  1.00  0.00    -0.089 OA 
HETATM   22  O   UNL     2      -6.394   5.684  68.911  1.00  0.00    -0.034 OA 
ENDBRANCH  14  17
ENDBRANCH  11  14
ENDBRANCH   2  11
BRANCH   3  23
HETATM   23  C   UNL     3     -11.526  13.009  67.084  1.00  0.00    -0.331 C  
HETATM   24  O   UNL     3     -11.968  11.829  67.714  1.00  0.00    -0.586 OA 
HETATM   25  H   UNL     3     -12.818  12.055  68.074  1.00  0.00     0.000 HD 
BRANCH  23  26
HETATM   26  C   UNL     3     -11.947  14.201  68.059  1.00  0.00    -0.337 C  
HETATM   27  O   UNL     3     -11.935  15.340  67.236  1.00  0.00    -0.220 OA 
HETATM   28  H   UNL     3     -12.185  16.049  67.816  1.00  0.00     0.000 HD 
BRANCH  26  29
HETATM   29  C   UNL     3     -11.173  14.677  69.382  1.00  0.00    -0.279 C  
HETATM   30  C   UNL     3      -9.842  15.369  69.280  1.00  0.00    -0.262 C  
HETATM   31  O   UNL     3     -10.953  13.596  70.264  1.00  0.00    -0.291 OA 
HETATM   32  O   UNL     3      -8.769  14.713  68.803  1.00  0.00    -0.174 OA 
HETATM   33  O   UNL     3      -9.696  16.476  69.774  1.00  0.00    -0.026 OA 
HETATM   34  H   UNL     3     -10.494  13.878  71.047  1.00  0.00     0.000 HD 
ENDBRANCH  26  29
ENDBRANCH  23  26
ENDBRANCH   3  23
BRANCH   3  35
HETATM   35  C   UNL     3      -9.627  11.147  66.564  1.00  0.00    -0.197 C  
HETATM   36  O   UNL     3     -10.191  10.460  67.642  1.00  0.00    -0.182 OA 
HETATM   37  H   UNL     3      -9.897   9.557  67.691  1.00  0.00     0.000 HD 
ENDBRANCH   3  35
TORSDOF 8
ENDMDL
MODEL      316
REMARK 921   NORMALIZED FREE ENERGY PREDICTED BY IDOCK:   -2.95 KCAL/MOL
REMARK 922        TOTAL FREE ENERGY PREDICTED BY IDOCK:   -6.00 KCAL/MOL
REMARK 923 INTER-LIGAND FREE ENERGY PREDICTED BY IDOCK:   -5.28 KCAL/MOL
REMARK 924 INTRA-LIGAND FREE ENERGY PREDICTED BY IDOCK:   -0.72 KCAL/MOL
REMARK 927      BINDING AFFINITY PREDICTED BY RF-SCORE:    0.00 PKD
ROOT
HETATM    1 MN   UNL     1      -9.315  12.569  69.068  1.00  0.00    -0.297 Mn 
HETATM    2  C   UNL     2      -8.348   6.290  73.506  1.00  0.00    -0.121 C  
HETATM    3  C   UNL     3      -9.593  12.984  66.529  1.00  0.00    -0.260 C  
HETATM    4  H   UNL     3      -9.784  14.325  65.138  1.00  0.00     0.000 HD 
HETATM    5  H   UNL     2      -7.335   7.821  72.965  1.00  0.00     0.000 HD 
HETATM    6  O   UNL     2      -7.212   7.135  73.610  1.00  0.00    -0.079 OA 
HETATM    7  O   UNL     3      -9.356  13.481  65.223  1.00  0.00     0.235 OA 
ENDROOT
BRANCH   2   8
HETATM    8  C   UNL     2      -8.149   5.177  74.554  1.00  0.00    -0.101 C  
HETATM    9  H   UNL     2      -8.868   3.383  74.985  1.00  0.00     0.000 HD 
HETATM   10  O   UNL     2      -8.991   4.069  74.339  1.00  0.00    -0.094 OA 
ENDBRANCH   2   8
BRANCH   2  11
HETATM   11  C   UNL     2      -8.478   5.797  72.011  1.00  0.00    -0.126 C  
HETATM   12  H   UNL     2      -8.680   4.088  71.044  1.00  0.00     0.000 HD 
HETATM   13  O   UNL     2      -8.601   4.385  71.943  1.00  0.00    -0.108 OA 
BRANCH  11  14
HETATM   14  C   UNL     2      -9.666   6.400  71.191  1.00  0.00    -0.175 C  
HETATM   15  H   UNL     2     -11.514   5.951  70.913  1.00  0.00     0.000 HD 
HETATM   16  O   UNL     2     -10.793   5.586  71.411  1.00  0.00    -0.243 OA 
BRANCH  14  17
HETATM   17  C   UNL     2      -9.437   6.507  69.665  1.00  0.00    -0.145 C  
HETATM   18  C   UNL     2      -9.913   7.844  69.124  1.00  0.00    -0.184 C  
HETATM   19  H   UNL     2     -10.001   5.545  68.079  1.00  0.00     0.000 HD 
HETATM   20  O   UNL     2     -10.141   5.479  69.016  1.00  0.00    -0.170 OA 
HETATM   21  O   UNL     2      -9.755   8.133  67.822  1.00  0.00    -0.148 OA 
HETATM   22  O   UNL     2     -10.375   8.708  69.868  1.00  0.00    -0.199 OA 
ENDBRANCH  14  17
ENDBRANCH  11  14
ENDBRANCH   2  11
BRANCH   3  23
HETATM   23  C   UNL     3     -11.159  13.069  66.734  1.00  0.00    -0.286 C  
HETATM   24  O   UNL     3     -11.606  11.739  66.605  1.00  0.00    -0.490 OA 
HETATM   25  H   UNL     3     -12.547  11.791  66.728  1.00  0.00     0.000 HD 
BRANCH  23  26
HETATM   26  C   UNL     3     -12.007  13.693  67.934  1.00  0.00    -0.347 C  
HETATM   27  O   UNL     3     -12.893  14.583  67.302  1.00  0.00    -0.094 OA 
HETATM   28  H   UNL     3     -13.398  14.955  68.016  1.00  0.00     0.000 HD 
BRANCH  26  29
HETATM   29  C   UNL     3     -11.436  14.537  69.174  1.00  0.00    -0.294 C  
HETATM   30  C   UNL     3     -12.277  14.754  70.401  1.00  0.00    -0.336 C  
HETATM   31  O   UNL     3     -11.039  15.831  68.773  1.00  0.00    -0.280 OA 
HETATM   32  O   UNL     3     -13.405  15.484  70.333  1.00  0.00    -0.296 OA 
HETATM   33  O   UNL     3     -11.858  14.400  71.492  1.00  0.00    -0.306 OA 
HETATM   34  H   UNL     3     -10.701  16.331  69.507  1.00  0.00     0.000 HD 
ENDBRANCH  26  29
ENDBRANCH  23  26
ENDBRANCH   3  23
BRANCH   3  35
HETATM   35  C   UNL     3      -8.888  11.591  66.668  1.00  0.00    -0.187 C  
HETATM   36  O   UNL     3      -9.427  10.821  67.702  1.00  0.00    -0.153 OA 
HETATM   37  H   UNL     3      -8.999   9.977  67.786  1.00  0.00     0.000 HD 
ENDBRANCH   3  35
TORSDOF 8
ENDMDL
MODEL      317
REMARK 921   NORMALIZED FREE ENERGY PREDICTED BY IDOCK:   -2.88 KCAL/MOL
REMARK 922        TOTAL FREE ENERGY PREDICTED BY IDOCK:   -5.90 KCAL/MOL
REMARK 923 INTER-LIGAND FREE ENERGY PREDICTED BY IDOCK:   -4.80 KCAL/MOL
REMARK 924 INTRA-LIGAND FREE ENERGY PREDICTED BY IDOCK:   -1.10 KCAL/MOL
REMARK 927      BINDING AFFINITY PREDICTED BY RF-SCORE:    0.00 PKD
ROOT
HETATM    1 MN   UNL     1     -10.672   4.409  69.080  1.00  0.00    -0.128 Mn 
HETATM    2  C   UNL     2     -11.309  12.130  69.241  1.00  0.00    -0.266 C  
HETATM    3  C   UNL     3      -9.226   2.724  67.752  1.00  0.00    -0.202 C  
HETATM    4  H   UNL     3      -8.856   0.848  67.418  1.00  0.00     0.000 HD 
HETATM    5  H   UNL     2     -12.361  10.626  68.702  1.00  0.00     0.000 HD 
HETATM    6  O   UNL     2     -12.533  11.554  68.813  1.00  0.00    -0.331 OA 
HETATM    7  O   UNL     3      -8.873   1.646  66.902  1.00  0.00    -0.110 OA 
ENDROOT
BRANCH   2   8
HETATM    8  C   UNL     2     -11.587  13.636  69.421  1.00  0.00    -0.312 C  
HETATM    9  H   UNL     2     -12.729  14.825  70.519  1.00  0.00     0.000 HD 
HETATM   10  O   UNL     2     -12.557  13.897  70.408  1.00  0.00    -0.326 OA 
ENDBRANCH   2   8
BRANCH   2  11
HETATM   11  C   UNL     2     -10.184  11.771  68.192  1.00  0.00    -0.203 C  
HETATM   12  H   UNL     2      -8.652  12.662  67.321  1.00  0.00     0.000 HD 
HETATM   13  O   UNL     2      -9.329  12.878  67.951  1.00  0.00    -0.193 OA 
BRANCH  11  14
HETATM   14  C   UNL     2      -9.268  10.557  68.558  1.00  0.00    -0.168 C  
HETATM   15  H   UNL     2      -7.374  10.248  68.678  1.00  0.00     0.000 HD 
HETATM   16  O   UNL     2      -7.931  10.984  68.455  1.00  0.00    -0.121 OA 
BRANCH  14  17
HETATM   17  C   UNL     2      -9.442   9.299  67.675  1.00  0.00    -0.132 C  
HETATM   18  C   UNL     2      -8.908   9.527  66.272  1.00  0.00    -0.149 C  
HETATM   19  H   UNL     2     -10.913   8.200  67.052  1.00  0.00     0.000 HD 
HETATM   20  O   UNL     2     -10.806   8.973  67.594  1.00  0.00    -0.219 OA 
HETATM   21  O   UNL     2      -8.936   8.527  65.374  1.00  0.00    -0.178 OA 
HETATM   22  O   UNL     2      -8.377  10.590  65.952  1.00  0.00    -0.149 OA 
ENDBRANCH  14  17
ENDBRANCH  11  14
ENDBRANCH   2  11
BRANCH   3  23
HETATM   23  C   UNL     3      -8.236   2.633  68.982  1.00  0.00    -0.055 C  
HETATM   24  O   UNL     3      -7.040   3.215  68.519  1.00  0.00    -0.048 OA 
HETATM   25  H   UNL     3      -6.446   3.160  69.258  1.00  0.00     0.000 HD 
BRANCH  23  26
HETATM   26  C   UNL     3      -8.411   3.147  70.483  1.00  0.00    -0.060 C  
HETATM   27  O   UNL     3      -9.718   2.761  70.829  1.00  0.00    -0.141 OA 
HETATM   28  H   UNL     3      -9.823   3.067  71.722  1.00  0.00     0.000 HD 
BRANCH  26  29
HETATM   29  C   UNL     3      -8.314   4.665  70.994  1.00  0.00    -0.095 C  
HETATM   30  C   UNL     3      -9.430   5.273  71.798  1.00  0.00    -0.148 C  
HETATM   31  O   UNL     3      -8.114   5.556  69.918  1.00  0.00    -0.094 OA 
HETATM   32  O   UNL     3     -10.641   5.464  71.244  1.00  0.00    -0.235 OA 
HETATM   33  O   UNL     3      -9.196   5.738  72.903  1.00  0.00    -0.136 OA 
HETATM   34  H   UNL     3      -8.057   6.455  70.221  1.00  0.00     0.000 HD 
ENDBRANCH  26  29
ENDBRANCH  23  26
ENDBRANCH   3  23
BRANCH   3  35
HETATM   35  C   UNL     3      -9.254   4.040  66.901  1.00  0.00    -0.167 C  
HETATM   36  O   UNL     3     -10.324   4.072  66.003  1.00  0.00    -0.435 OA 
HETATM   37  H   UNL     3     -10.341   4.870  65.488  1.00  0.00     0.000 HD 
ENDBRANCH   3  35
TORSDOF 8
ENDMDL
MODEL      318
REMARK 921   NORMALIZED FREE ENERGY PREDICTED BY IDOCK:   -2.88 KCAL/MOL
REMARK 922        TOTAL FREE ENERGY PREDICTED BY IDOCK:   -5.90 KCAL/MOL
REMARK 923 INTER-LIGAND FREE ENERGY PREDICTED BY IDOCK:   -6.46 KCAL/MOL
REMARK 924 INTRA-LIGAND FREE ENERGY PREDICTED BY IDOCK:    0.56 KCAL/MOL
REMARK 927      BINDING AFFINITY PREDICTED BY RF-SCORE:    0.00 PKD
ROOT
HETATM    1 MN   UNL     1      -7.793   9.486  68.139  1.00  0.00    -0.079 Mn 
HETATM    2  C   UNL     2      -6.474  16.953  66.540  1.00  0.00    -0.152 C  
HETATM    3  C   UNL     3      -9.404   8.213  69.714  1.00  0.00    -0.159 C  
HETATM    4  H   UNL     3      -9.943   6.473  70.384  1.00  0.00     0.000 HD 
HETATM    5  H   UNL     2      -5.567  15.497  67.388  1.00  0.00     0.000 HD 
HETATM    6  O   UNL     2      -5.313  16.369  67.110  1.00  0.00    -0.240 OA 
HETATM    7  O   UNL     3      -9.864   7.351  70.740  1.00  0.00    -0.179 OA 
ENDROOT
BRANCH   2   8
HETATM    8  C   UNL     2      -6.061  18.368  66.088  1.00  0.00    -0.186 C  
HETATM    9  H   UNL     2      -6.230  19.538  64.499  1.00  0.00     0.000 HD 
HETATM   10  O   UNL     2      -6.484  18.666  64.778  1.00  0.00    -0.487 OA 
ENDBRANCH   2   8
BRANCH   2  11
HETATM   11  C   UNL     2      -7.643  16.896  67.601  1.00  0.00    -0.164 C  
HETATM   12  H   UNL     2      -8.456  18.084  68.952  1.00  0.00     0.000 HD 
HETATM   13  O   UNL     2      -7.753  18.118  68.314  1.00  0.00    -0.264 OA 
BRANCH  11  14
HETATM   14  C   UNL     2      -9.065  16.567  67.037  1.00  0.00    -0.211 C  
HETATM   15  H   UNL     2      -9.860  16.449  65.290  1.00  0.00     0.000 HD 
HETATM   16  O   UNL     2      -8.997  16.648  65.633  1.00  0.00    -0.463 OA 
BRANCH  14  17
HETATM   17  C   UNL     2     -10.205  17.494  67.519  1.00  0.00    -0.340 C  
HETATM   18  C   UNL     2     -10.223  18.801  66.747  1.00  0.00    -0.393 C  
HETATM   19  H   UNL     2     -10.729  18.345  69.181  1.00  0.00     0.000 HD 
HETATM   20  O   UNL     2     -10.029  17.776  68.884  1.00  0.00    -0.351 OA 
HETATM   21  O   UNL     2     -11.175  19.716  67.001  1.00  0.00    -0.319 OA 
HETATM   22  O   UNL     2      -9.428  19.018  65.834  1.00  0.00    -0.450 OA 
ENDBRANCH  14  17
ENDBRANCH  11  14
ENDBRANCH   2  11
BRANCH   3  23
HETATM   23  C   UNL     3     -10.377   7.971  68.491  1.00  0.00    -0.199 C  
HETATM   24  O   UNL     3      -9.965   8.904  67.519  1.00  0.00    -0.176 OA 
HETATM   25  H   UNL     3     -10.550   8.758  66.785  1.00  0.00     0.000 HD 
BRANCH  23  26
HETATM   26  C   UNL     3     -10.705   6.631  67.688  1.00  0.00    -0.302 C  
HETATM   27  O   UNL     3     -11.437   5.853  68.602  1.00  0.00    -0.033 OA 
HETATM   28  H   UNL     3     -11.633   5.055  68.124  1.00  0.00     0.000 HD 
BRANCH  26  29
HETATM   29  C   UNL     3      -9.643   5.598  67.070  1.00  0.00    -0.136 C  
HETATM   30  C   UNL     3      -9.494   4.219  67.651  1.00  0.00    -0.175 C  
HETATM   31  O   UNL     3      -8.339   6.138  67.078  1.00  0.00    -0.106 OA 
HETATM   32  O   UNL     3      -9.032   4.054  68.903  1.00  0.00    -0.098 OA 
HETATM   33  O   UNL     3      -9.644   3.242  66.934  1.00  0.00    -0.161 OA 
HETATM   34  H   UNL     3      -7.711   5.526  66.713  1.00  0.00     0.000 HD 
ENDBRANCH  26  29
ENDBRANCH  23  26
ENDBRANCH   3  23
BRANCH   3  35
HETATM   35  C   UNL     3      -9.274   9.661  70.300  1.00  0.00    -0.236 C  
HETATM   36  O   UNL     3      -7.944  10.025  70.530  1.00  0.00    -0.399 OA 
HETATM   37  H   UNL     3      -7.866  10.903  70.886  1.00  0.00     0.000 HD 
ENDBRANCH   3  35
TORSDOF 8
ENDMDL
MODEL      319
REMARK 921   NORMALIZED FREE ENERGY PREDICTED BY IDOCK:   -2.84 KCAL/MOL
REMARK 922        TOTAL FREE ENERGY PREDICTED BY IDOCK:   -5.84 KCAL/MOL
REMARK 923 INTER-LIGAND FREE ENERGY PREDICTED BY IDOCK:   -5.00 KCAL/MOL
REMARK 924 INTRA-LIGAND FREE ENERGY PREDICTED BY IDOCK:   -0.84 KCAL/MOL
REMARK 927      BINDING AFFINITY PREDICTED BY RF-SCORE:    0.00 PKD
ROOT
HETATM    1 MN   UNL     1     -10.700   7.537  70.525  1.00  0.00    -0.208 Mn 
HETATM    2  C   UNL     2     -11.903  15.102  71.706  1.00  0.00    -0.405 C  
HETATM    3  C   UNL     3      -9.427   6.146  68.753  1.00  0.00    -0.121 C  
HETATM    4  H   UNL     3      -8.985   4.359  68.137  1.00  0.00     0.000 HD 
HETATM    5  H   UNL     2     -12.920  13.558  71.211  1.00  0.00     0.000 HD 
HETATM    6  O   UNL     2     -13.138  14.449  71.460  1.00  0.00    -0.309 OA 
HETATM    7  O   UNL     3      -9.171   5.198  67.732  1.00  0.00    -0.110 OA 
ENDROOT
BRANCH   2   8
HETATM    8  C   UNL     2     -12.257  16.546  72.111  1.00  0.00    -0.051 C  
HETATM    9  H   UNL     2     -12.328  17.667  73.742  1.00  0.00     0.000 HD 
HETATM   10  O   UNL     2     -12.110  16.777  73.493  1.00  0.00    -0.426 OA 
ENDBRANCH   2   8
BRANCH   2  11
HETATM   11  C   UNL     2     -10.991  14.962  70.423  1.00  0.00    -0.125 C  
HETATM   12  H   UNL     2     -10.810  13.746  68.878  1.00  0.00     0.000 HD 
HETATM   13  O   UNL     2     -11.358  13.830  69.650  1.00  0.00    -0.243 OA 
BRANCH  11  14
HETATM   14  C   UNL     2     -10.977  16.191  69.456  1.00  0.00    -0.341 C  
HETATM   15  H   UNL     2     -11.606  16.549  67.674  1.00  0.00     0.000 HD 
HETATM   16  O   UNL     2     -11.614  15.803  68.262  1.00  0.00    -0.361 OA 
BRANCH  14  17
HETATM   17  C   UNL     2      -9.577  16.743  69.098  1.00  0.00    -0.185 C  
HETATM   18  C   UNL     2      -9.664  18.140  68.509  1.00  0.00    -0.362 C  
HETATM   19  H   UNL     2      -8.108  16.231  67.940  1.00  0.00     0.000 HD 
HETATM   20  O   UNL     2      -8.968  15.893  68.160  1.00  0.00    -0.178 OA 
HETATM   21  O   UNL     2      -8.540  18.797  68.176  1.00  0.00    -0.291 OA 
HETATM   22  O   UNL     2     -10.742  18.722  68.395  1.00  0.00    -0.168 OA 
ENDBRANCH  14  17
ENDBRANCH  11  14
ENDBRANCH   2  11
BRANCH   3  23
HETATM   23  C   UNL     3      -8.203   6.035  69.748  1.00  0.00    -0.118 C  
HETATM   24  O   UNL     3      -8.365   7.119  70.633  1.00  0.00    -0.123 OA 
HETATM   25  H   UNL     3      -7.630   7.052  71.230  1.00  0.00     0.000 HD 
BRANCH  23  26
HETATM   26  C   UNL     3      -7.720   4.812  70.652  1.00  0.00    -0.065 C  
HETATM   27  O   UNL     3      -7.101   5.424  71.757  1.00  0.00    -0.071 OA 
HETATM   28  H   UNL     3      -6.814   4.696  72.295  1.00  0.00     0.000 HD 
BRANCH  26  29
HETATM   29  C   UNL     3      -6.690   3.655  70.231  1.00  0.00    -0.033 C  
HETATM   30  C   UNL     3      -7.144   2.505  69.374  1.00  0.00    -0.044 C  
HETATM   31  O   UNL     3      -6.103   3.053  71.365  1.00  0.00    -0.013 OA 
HETATM   32  O   UNL     3      -8.049   1.626  69.839  1.00  0.00    -0.041 OA 
HETATM   33  O   UNL     3      -6.576   2.277  68.317  1.00  0.00    -0.029 OA 
HETATM   34  H   UNL     3      -5.494   2.368  71.115  1.00  0.00     0.000 HD 
ENDBRANCH  26  29
ENDBRANCH  23  26
ENDBRANCH   3  23
BRANCH   3  35
HETATM   35  C   UNL     3      -9.733   7.530  68.084  1.00  0.00    -0.154 C  
HETATM   36  O   UNL     3     -11.065   7.919  68.249  1.00  0.00    -0.424 OA 
HETATM   37  H   UNL     3     -11.251   8.758  67.843  1.00  0.00     0.000 HD 
ENDBRANCH   3  35
TORSDOF 8
ENDMDL
MODEL      320
REMARK 921   NORMALIZED FREE ENERGY PREDICTED BY IDOCK:   -2.76 KCAL/MOL
REMARK 922        TOTAL FREE ENERGY PREDICTED BY IDOCK:   -5.73 KCAL/MOL
REMARK 923 INTER-LIGAND FREE ENERGY PREDICTED BY IDOCK:   -4.54 KCAL/MOL
REMARK 924 INTRA-LIGAND FREE ENERGY PREDICTED BY IDOCK:   -1.19 KCAL/MOL
REMARK 927      BINDING AFFINITY PREDICTED BY RF-SCORE:    0.00 PKD
ROOT
HETATM    1 MN   UNL     1      -6.387  10.661  69.980  1.00  0.00    -0.044 Mn 
HETATM    2  C   UNL     2      -8.468   4.155  73.641  1.00  0.00    -0.092 C  
HETATM    3  C   UNL     3      -6.526  11.506  67.538  1.00  0.00    -0.079 C  
HETATM    4  H   UNL     3      -6.085  12.949  66.317  1.00  0.00     0.000 HD 
HETATM    5  H   UNL     2      -6.854   5.061  73.154  1.00  0.00     0.000 HD 
HETATM    6  O   UNL     2      -7.060   4.320  73.711  1.00  0.00    -0.063 OA 
HETATM    7  O   UNL     3      -6.126  12.000  66.272  1.00  0.00     0.007 OA 
ENDROOT
BRANCH   2   8
HETATM    8  C   UNL     2      -8.802   2.952  74.545  1.00  0.00    -0.078 C  
HETATM    9  H   UNL     2      -7.988   1.240  75.118  1.00  0.00     0.000 HD 
HETATM   10  O   UNL     2      -7.782   1.981  74.561  1.00  0.00    -0.039 OA 
ENDBRANCH   2   8
BRANCH   2  11
HETATM   11  C   UNL     2      -8.884   3.999  72.125  1.00  0.00    -0.106 C  
HETATM   12  H   UNL     2      -9.828   2.685  70.992  1.00  0.00     0.000 HD 
HETATM   13  O   UNL     2      -9.577   2.779  71.903  1.00  0.00    -0.119 OA 
BRANCH  11  14
HETATM   14  C   UNL     2      -9.774   5.143  71.537  1.00  0.00    -0.166 C  
HETATM   15  H   UNL     2     -10.814   5.397  69.940  1.00  0.00     0.000 HD 
HETATM   16  O   UNL     2     -10.274   4.702  70.298  1.00  0.00    -0.233 OA 
BRANCH  14  17
HETATM   17  C   UNL     2      -9.059   6.497  71.316  1.00  0.00    -0.148 C  
HETATM   18  C   UNL     2      -9.282   7.441  72.484  1.00  0.00    -0.142 C  
HETATM   19  H   UNL     2      -9.115   7.929  70.010  1.00  0.00     0.000 HD 
HETATM   20  O   UNL     2      -9.554   7.098  70.146  1.00  0.00    -0.168 OA 
HETATM   21  O   UNL     2      -8.700   8.652  72.487  1.00  0.00    -0.360 OA 
HETATM   22  O   UNL     2      -9.928   7.096  73.473  1.00  0.00    -0.235 OA 
ENDBRANCH  14  17
ENDBRANCH  11  14
ENDBRANCH   2  11
BRANCH   3  23
HETATM   23  C   UNL     3      -7.836  12.309  67.911  1.00  0.00    -0.146 C  
HETATM   24  O   UNL     3      -7.459  13.113  69.005  1.00  0.00    -0.276 OA 
HETATM   25  H   UNL     3      -8.246  13.596  69.229  1.00  0.00     0.000 HD 
BRANCH  23  26
HETATM   26  C   UNL     3      -8.771  13.231  67.003  1.00  0.00    -0.186 C  
HETATM   27  O   UNL     3      -9.439  14.056  67.925  1.00  0.00    -0.197 OA 
HETATM   28  H   UNL     3      -9.996  14.605  67.384  1.00  0.00     0.000 HD 
BRANCH  26  29
HETATM   29  C   UNL     3      -9.937  12.737  66.017  1.00  0.00    -0.271 C  
HETATM   30  C   UNL     3     -11.363  13.150  66.254  1.00  0.00    -0.315 C  
HETATM   31  O   UNL     3      -9.975  11.328  65.934  1.00  0.00    -0.216 OA 
HETATM   32  O   UNL     3     -12.018  12.731  67.351  1.00  0.00    -0.360 OA 
HETATM   33  O   UNL     3     -11.977  13.735  65.376  1.00  0.00    -0.343 OA 
HETATM   34  H   UNL     3     -10.666  11.036  65.350  1.00  0.00     0.000 HD 
ENDBRANCH  26  29
ENDBRANCH  23  26
ENDBRANCH   3  23
BRANCH   3  35
HETATM   35  C   UNL     3      -6.595   9.941  67.463  1.00  0.00    -0.069 C  
HETATM   36  O   UNL     3      -7.699   9.491  66.735  1.00  0.00    -0.097 OA 
HETATM   37  H   UNL     3      -7.741   8.543  66.689  1.00  0.00     0.000 HD 
ENDBRANCH   3  35
TORSDOF 8
ENDMDL
MODEL      321
REMARK 921   NORMALIZED FREE ENERGY PREDICTED BY IDOCK:   -2.67 KCAL/MOL
REMARK 922        TOTAL FREE ENERGY PREDICTED BY IDOCK:   -5.60 KCAL/MOL
REMARK 923 INTER-LIGAND FREE ENERGY PREDICTED BY IDOCK:   -5.92 KCAL/MOL
REMARK 924 INTRA-LIGAND FREE ENERGY PREDICTED BY IDOCK:    0.32 KCAL/MOL
REMARK 927      BINDING AFFINITY PREDICTED BY RF-SCORE:    0.00 PKD
ROOT
HETATM    1 MN   UNL     1     -11.409   6.535  69.596  1.00  0.00    -0.224 Mn 
HETATM    2  C   UNL     2     -12.226  14.095  71.089  1.00  0.00    -0.358 C  
HETATM    3  C   UNL     3     -10.376   5.157  67.665  1.00  0.00    -0.110 C  
HETATM    4  H   UNL     3     -10.061   3.376  66.960  1.00  0.00     0.000 HD 
HETATM    5  H   UNL     2     -13.341  12.599  70.665  1.00  0.00     0.000 HD 
HETATM    6  O   UNL     2     -13.501  13.488  70.958  1.00  0.00    -0.091 OA 
HETATM    7  O   UNL     3     -10.260   4.231  66.597  1.00  0.00    -0.186 OA 
ENDROOT
BRANCH   2   8
HETATM    8  C   UNL     2     -12.486  15.538  71.566  1.00  0.00    -0.410 C  
HETATM    9  H   UNL     2     -13.935  16.597  72.406  1.00  0.00     0.000 HD 
HETATM   10  O   UNL     2     -13.774  15.708  72.112  1.00  0.00    -0.474 OA 
ENDBRANCH   2   8
BRANCH   2  11
HETATM   11  C   UNL     2     -11.458  13.965  69.714  1.00  0.00    -0.215 C  
HETATM   12  H   UNL     2     -11.102  12.573  68.360  1.00  0.00     0.000 HD 
HETATM   13  O   UNL     2     -11.563  12.651  69.187  1.00  0.00    -0.282 OA 
BRANCH  11  14
HETATM   14  C   UNL     2     -11.907  14.948  68.583  1.00  0.00    -0.300 C  
HETATM   15  H   UNL     2     -12.545  14.771  66.778  1.00  0.00     0.000 HD 
HETATM   16  O   UNL     2     -12.273  14.175  67.465  1.00  0.00    -0.370 OA 
BRANCH  14  17
HETATM   17  C   UNL     2     -10.843  15.976  68.132  1.00  0.00    -0.322 C  
HETATM   18  C   UNL     2     -10.050  15.469  66.939  1.00  0.00    -0.262 C  
HETATM   19  H   UNL     2      -9.303  16.855  68.915  1.00  0.00     0.000 HD 
HETATM   20  O   UNL     2      -9.956  16.224  69.192  1.00  0.00    -0.235 OA 
HETATM   21  O   UNL     2      -9.108  16.247  66.382  1.00  0.00    -0.248 OA 
HETATM   22  O   UNL     2     -10.302  14.383  66.418  1.00  0.00    -0.276 OA 
ENDBRANCH  14  17
ENDBRANCH  11  14
ENDBRANCH   2  11
BRANCH   3  23
HETATM   23  C   UNL     3      -9.059   4.979  68.522  1.00  0.00    -0.111 C  
HETATM   24  O   UNL     3      -8.123   4.430  67.624  1.00  0.00    -0.097 OA 
HETATM   25  H   UNL     3      -7.332   4.323  68.139  1.00  0.00     0.000 HD 
BRANCH  23  26
HETATM   26  C   UNL     3      -8.246   6.043  69.391  1.00  0.00    -0.115 C  
HETATM   27  O   UNL     3      -6.994   5.437  69.594  1.00  0.00    -0.057 OA 
HETATM   28  H   UNL     3      -6.510   6.070  70.111  1.00  0.00     0.000 HD 
BRANCH  26  29
HETATM   29  C   UNL     3      -8.642   6.597  70.845  1.00  0.00    -0.134 C  
HETATM   30  C   UNL     3      -7.823   7.673  71.501  1.00  0.00    -0.086 C  
HETATM   31  O   UNL     3      -8.696   5.553  71.793  1.00  0.00    -0.133 OA 
HETATM   32  O   UNL     3      -6.549   7.434  71.862  1.00  0.00    -0.046 OA 
HETATM   33  O   UNL     3      -8.358   8.714  71.848  1.00  0.00    -0.211 OA 
HETATM   34  H   UNL     3      -8.930   5.881  72.654  1.00  0.00     0.000 HD 
ENDBRANCH  26  29
ENDBRANCH  23  26
ENDBRANCH   3  23
BRANCH   3  35
HETATM   35  C   UNL     3     -10.703   6.569  67.066  1.00  0.00    -0.364 C  
HETATM   36  O   UNL     3     -10.446   7.603  67.970  1.00  0.00    -0.204 OA 
HETATM   37  H   UNL     3     -10.645   8.459  67.607  1.00  0.00     0.000 HD 
ENDBRANCH   3  35
TORSDOF 8
ENDMDL
MODEL      322
REMARK 921   NORMALIZED FREE ENERGY PREDICTED BY IDOCK:   -2.65 KCAL/MOL
REMARK 922        TOTAL FREE ENERGY PREDICTED BY IDOCK:   -5.56 KCAL/MOL
REMARK 923 INTER-LIGAND FREE ENERGY PREDICTED BY IDOCK:   -4.84 KCAL/MOL
REMARK 924 INTRA-LIGAND FREE ENERGY PREDICTED BY IDOCK:   -0.71 KCAL/MOL
REMARK 927      BINDING AFFINITY PREDICTED BY RF-SCORE:    0.00 PKD
ROOT
HETATM    1 MN   UNL     1      -9.960   4.192  67.495  1.00  0.00    -0.162 Mn 
HETATM    2  C   UNL     2     -11.140  11.756  68.703  1.00  0.00    -0.238 C  
HETATM    3  C   UNL     3      -9.242   2.758  65.464  1.00  0.00    -0.113 C  
HETATM    4  H   UNL     3      -8.922   0.959  64.809  1.00  0.00     0.000 HD 
HETATM    5  H   UNL     2     -12.175  10.148  68.621  1.00  0.00     0.000 HD 
HETATM    6  O   UNL     2     -12.351  11.042  68.892  1.00  0.00    -0.516 OA 
HETATM    7  O   UNL     3      -9.273   1.767  64.452  1.00  0.00    -0.118 OA 
ENDROOT
BRANCH   2   8
HETATM    8  C   UNL     2     -11.426  13.205  69.143  1.00  0.00    -0.305 C  
HETATM    9  H   UNL     2     -12.272  14.170  70.652  1.00  0.00     0.000 HD 
HETATM   10  O   UNL     2     -12.096  13.277  70.380  1.00  0.00    -0.348 OA 
ENDBRANCH   2   8
BRANCH   2  11
HETATM   11  C   UNL     2     -10.678  11.583  67.202  1.00  0.00    -0.254 C  
HETATM   12  H   UNL     2     -10.646  12.656  65.545  1.00  0.00     0.000 HD 
HETATM   13  O   UNL     2     -10.924  12.760  66.448  1.00  0.00    -0.267 OA 
BRANCH  11  14
HETATM   14  C   UNL     2      -9.175  11.208  66.986  1.00  0.00    -0.163 C  
HETATM   15  H   UNL     2      -8.066  10.778  65.476  1.00  0.00     0.000 HD 
HETATM   16  O   UNL     2      -8.978  11.006  65.608  1.00  0.00    -0.197 OA 
BRANCH  14  17
HETATM   17  C   UNL     2      -8.688   9.944  67.734  1.00  0.00    -0.129 C  
HETATM   18  C   UNL     2      -9.627   8.771  67.512  1.00  0.00    -0.152 C  
HETATM   19  H   UNL     2      -8.321   9.439  69.569  1.00  0.00     0.000 HD 
HETATM   20  O   UNL     2      -8.619  10.215  69.110  1.00  0.00    -0.142 OA 
HETATM   21  O   UNL     2      -9.342   7.574  68.051  1.00  0.00    -0.139 OA 
HETATM   22  O   UNL     2     -10.614   8.869  66.783  1.00  0.00    -0.243 OA 
ENDBRANCH  14  17
ENDBRANCH  11  14
ENDBRANCH   2  11
BRANCH   3  23
HETATM   23  C   UNL     3      -7.761   2.751  66.017  1.00  0.00    -0.080 C  
HETATM   24  O   UNL     3      -7.104   1.762  65.259  1.00  0.00    -0.045 OA 
HETATM   25  H   UNL     3      -6.215   1.757  65.591  1.00  0.00     0.000 HD 
BRANCH  23  26
HETATM   26  C   UNL     3      -6.712   3.945  66.166  1.00  0.00    -0.049 C  
HETATM   27  O   UNL     3      -5.564   3.330  66.695  1.00  0.00    -0.020 OA 
HETATM   28  H   UNL     3      -4.940   4.040  66.784  1.00  0.00     0.000 HD 
BRANCH  26  29
HETATM   29  C   UNL     3      -6.884   5.267  67.060  1.00  0.00    -0.063 C  
HETATM   30  C   UNL     3      -5.740   5.783  67.887  1.00  0.00    -0.012 C  
HETATM   31  O   UNL     3      -7.958   5.136  67.967  1.00  0.00    -0.090 OA 
HETATM   32  O   UNL     3      -5.268   5.062  68.920  1.00  0.00     0.000 OA 
HETATM   33  O   UNL     3      -5.341   6.925  67.722  1.00  0.00    -0.014 OA 
HETATM   34  H   UNL     3      -8.060   5.919  68.496  1.00  0.00     0.000 HD 
ENDBRANCH  26  29
ENDBRANCH  23  26
ENDBRANCH   3  23
BRANCH   3  35
HETATM   35  C   UNL     3      -9.822   4.091  64.875  1.00  0.00    -0.200 C  
HETATM   36  O   UNL     3     -11.102   4.374  65.356  1.00  0.00    -0.785 OA 
HETATM   37  H   UNL     3     -11.453   5.182  64.999  1.00  0.00     0.000 HD 
ENDBRANCH   3  35
TORSDOF 8
ENDMDL
MODEL      323
REMARK 921   NORMALIZED FREE ENERGY PREDICTED BY IDOCK:   -2.62 KCAL/MOL
REMARK 922        TOTAL FREE ENERGY PREDICTED BY IDOCK:   -5.52 KCAL/MOL
REMARK 923 INTER-LIGAND FREE ENERGY PREDICTED BY IDOCK:   -4.95 KCAL/MOL
REMARK 924 INTRA-LIGAND FREE ENERGY PREDICTED BY IDOCK:   -0.57 KCAL/MOL
REMARK 927      BINDING AFFINITY PREDICTED BY RF-SCORE:    0.00 PKD
ROOT
HETATM    1 MN   UNL     1      -8.820  16.501  64.977  1.00  0.00     0.080 Mn 
HETATM    2  C   UNL     2      -8.181   8.892  66.301  1.00  0.00    -0.111 C  
HETATM    3  C   UNL     3     -10.070  18.455  66.125  1.00  0.00    -0.360 C  
HETATM    4  H   UNL     3     -10.489  20.349  66.051  1.00  0.00     0.000 HD 
HETATM    5  H   UNL     2      -8.959  10.049  64.990  1.00  0.00     0.000 HD 
HETATM    6  O   UNL     2      -8.804   9.113  65.046  1.00  0.00    -0.190 OA 
HETATM    7  O   UNL     3     -10.943  19.555  66.311  1.00  0.00    -0.353 OA 
ENDROOT
BRANCH   2   8
HETATM    8  C   UNL     2      -7.929   7.374  66.390  1.00  0.00    -0.108 C  
HETATM    9  H   UNL     2      -7.805   5.805  65.188  1.00  0.00     0.000 HD 
HETATM   10  O   UNL     2      -7.961   6.741  65.133  1.00  0.00    -0.116 OA 
ENDBRANCH   2   8
BRANCH   2  11
HETATM   11  C   UNL     2      -9.099   9.494  67.437  1.00  0.00    -0.130 C  
HETATM   12  H   UNL     2      -9.721   8.988  69.241  1.00  0.00     0.000 HD 
HETATM   13  O   UNL     2      -9.169   8.626  68.558  1.00  0.00    -0.138 OA 
BRANCH  11  14
HETATM   14  C   UNL     2      -8.689  10.904  67.975  1.00  0.00    -0.132 C  
HETATM   15  H   UNL     2      -9.619  12.443  68.656  1.00  0.00     0.000 HD 
HETATM   16  O   UNL     2      -9.868  11.586  68.329  1.00  0.00    -0.190 OA 
BRANCH  14  17
HETATM   17  C   UNL     2      -7.897  11.791  66.985  1.00  0.00    -0.161 C  
HETATM   18  C   UNL     2      -6.398  11.645  67.184  1.00  0.00    -0.139 C  
HETATM   19  H   UNL     2      -7.765  13.681  66.574  1.00  0.00     0.000 HD 
HETATM   20  O   UNL     2      -8.251  13.137  67.181  1.00  0.00    -0.176 OA 
HETATM   21  O   UNL     2      -5.549  12.310  66.384  1.00  0.00    -0.118 OA 
HETATM   22  O   UNL     2      -5.935  10.868  68.019  1.00  0.00    -0.049 OA 
ENDBRANCH  14  17
ENDBRANCH  11  14
ENDBRANCH   2  11
BRANCH   3  23
HETATM   23  C   UNL     3      -8.732  18.846  66.871  1.00  0.00    -0.300 C  
HETATM   24  O   UNL     3      -8.244  17.629  67.386  1.00  0.00    -0.208 OA 
HETATM   25  H   UNL     3      -7.440  17.865  67.835  1.00  0.00     0.000 HD 
BRANCH  23  26
HETATM   26  C   UNL     3      -7.449  19.633  66.339  1.00  0.00    -0.275 C  
HETATM   27  O   UNL     3      -6.990  18.853  65.262  1.00  0.00    -0.494 OA 
HETATM   28  H   UNL     3      -6.227  19.321  64.945  1.00  0.00     0.000 HD 
BRANCH  26  29
HETATM   29  C   UNL     3      -6.115  19.965  67.167  1.00  0.00    -0.182 C  
HETATM   30  C   UNL     3      -6.058  19.727  68.650  1.00  0.00    -0.247 C  
HETATM   31  O   UNL     3      -5.731  21.313  67.000  1.00  0.00    -0.248 OA 
HETATM   32  O   UNL     3      -6.836  20.440  69.484  1.00  0.00    -0.132 OA 
HETATM   33  O   UNL     3      -5.195  18.997  69.113  1.00  0.00    -0.190 OA 
HETATM   34  H   UNL     3      -4.941  21.509  67.491  1.00  0.00     0.000 HD 
ENDBRANCH  26  29
ENDBRANCH  23  26
ENDBRANCH   3  23
BRANCH   3  35
HETATM   35  C   UNL     3     -10.819  17.146  66.553  1.00  0.00     0.057 C  
HETATM   36  O   UNL     3     -10.464  16.047  65.767  1.00  0.00    -0.339 OA 
HETATM   37  H   UNL     3     -10.918  15.254  66.027  1.00  0.00     0.000 HD 
ENDBRANCH   3  35
TORSDOF 8
ENDMDL
MODEL      324
REMARK 921   NORMALIZED FREE ENERGY PREDICTED BY IDOCK:   -2.59 KCAL/MOL
REMARK 922        TOTAL FREE ENERGY PREDICTED BY IDOCK:   -5.48 KCAL/MOL
REMARK 923 INTER-LIGAND FREE ENERGY PREDICTED BY IDOCK:   -5.13 KCAL/MOL
REMARK 924 INTRA-LIGAND FREE ENERGY PREDICTED BY IDOCK:   -0.35 KCAL/MOL
REMARK 927      BINDING AFFINITY PREDICTED BY RF-SCORE:    0.00 PKD
ROOT
HETATM    1 MN   UNL     1      -8.720   7.868  69.381  1.00  0.00    -0.123 Mn 
HETATM    2  C   UNL     2     -10.370  15.155  67.321  1.00  0.00    -0.261 C  
HETATM    3  C   UNL     3     -10.118   5.738  69.829  1.00  0.00    -0.209 C  
HETATM    4  H   UNL     3     -10.067   3.878  70.385  1.00  0.00     0.000 HD 
HETATM    5  H   UNL     2      -9.699  14.226  68.853  1.00  0.00     0.000 HD 
HETATM    6  O   UNL     2      -9.771  15.140  68.607  1.00  0.00    -0.202 OA 
HETATM    7  O   UNL     3     -10.660   4.612  70.500  1.00  0.00    -0.037 OA 
ENDROOT
BRANCH   2   8
HETATM    8  C   UNL     2     -10.488  16.639  66.922  1.00  0.00    -0.271 C  
HETATM    9  H   UNL     2     -10.031  17.819  65.398  1.00  0.00     0.000 HD 
HETATM   10  O   UNL     2      -9.958  16.904  65.644  1.00  0.00    -0.552 OA 
ENDBRANCH   2   8
BRANCH   2  11
HETATM   11  C   UNL     2     -11.735  14.362  67.388  1.00  0.00    -0.397 C  
HETATM   12  H   UNL     2     -12.467  12.646  66.741  1.00  0.00     0.000 HD 
HETATM   13  O   UNL     2     -11.646  13.123  66.701  1.00  0.00    -0.321 OA 
BRANCH  11  14
HETATM   14  C   UNL     2     -12.277  14.051  68.822  1.00  0.00    -0.202 C  
HETATM   15  H   UNL     2     -12.807  15.092  70.350  1.00  0.00     0.000 HD 
HETATM   16  O   UNL     2     -12.478  15.280  69.479  1.00  0.00    -0.207 OA 
BRANCH  14  17
HETATM   17  C   UNL     2     -11.360  13.175  69.707  1.00  0.00    -0.049 C  
HETATM   18  C   UNL     2     -11.659  11.697  69.525  1.00  0.00    -0.331 C  
HETATM   19  H   UNL     2     -10.991  12.975  71.600  1.00  0.00     0.000 HD 
HETATM   20  O   UNL     2     -11.554  13.513  71.056  1.00  0.00     0.177 OA 
HETATM   21  O   UNL     2     -10.930  10.780  70.184  1.00  0.00    -0.263 OA 
HETATM   22  O   UNL     2     -12.510  11.308  68.725  1.00  0.00    -0.444 OA 
ENDBRANCH  14  17
ENDBRANCH  11  14
ENDBRANCH   2  11
BRANCH   3  23
HETATM   23  C   UNL     3      -9.795   5.240  68.364  1.00  0.00    -0.153 C  
HETATM   24  O   UNL     3     -11.003   5.408  67.657  1.00  0.00    -0.156 OA 
HETATM   25  H   UNL     3     -10.808   5.109  66.777  1.00  0.00     0.000 HD 
BRANCH  23  26
HETATM   26  C   UNL     3      -8.642   5.690  67.355  1.00  0.00    -0.109 C  
HETATM   27  O   UNL     3      -8.646   4.695  66.362  1.00  0.00    -0.113 OA 
HETATM   28  H   UNL     3      -7.960   4.963  65.762  1.00  0.00     0.000 HD 
BRANCH  26  29
HETATM   29  C   UNL     3      -7.086   5.879  67.700  1.00  0.00    -0.074 C  
HETATM   30  C   UNL     3      -6.181   4.685  67.822  1.00  0.00    -0.036 C  
HETATM   31  O   UNL     3      -6.912   6.591  68.907  1.00  0.00    -0.073 OA 
HETATM   32  O   UNL     3      -6.363   3.791  68.810  1.00  0.00    -0.031 OA 
HETATM   33  O   UNL     3      -5.185   4.607  67.120  1.00  0.00    -0.010 OA 
HETATM   34  H   UNL     3      -5.990   6.703  69.111  1.00  0.00     0.000 HD 
ENDBRANCH  26  29
ENDBRANCH  23  26
ENDBRANCH   3  23
BRANCH   3  35
HETATM   35  C   UNL     3     -11.096   6.948  70.018  1.00  0.00    -0.299 C  
HETATM   36  O   UNL     3     -10.856   7.975  69.101  1.00  0.00    -0.384 OA 
HETATM   37  H   UNL     3     -11.449   8.709  69.216  1.00  0.00     0.000 HD 
ENDBRANCH   3  35
TORSDOF 8
ENDMDL
MODEL      325
REMARK 921   NORMALIZED FREE ENERGY PREDICTED BY IDOCK:   -2.46 KCAL/MOL
REMARK 922        TOTAL FREE ENERGY PREDICTED BY IDOCK:   -5.29 KCAL/MOL
REMARK 923 INTER-LIGAND FREE ENERGY PREDICTED BY IDOCK:   -4.57 KCAL/MOL
REMARK 924 INTRA-LIGAND FREE ENERGY PREDICTED BY IDOCK:   -0.72 KCAL/MOL
REMARK 927      BINDING AFFINITY PREDICTED BY RF-SCORE:    0.00 PKD
ROOT
HETATM    1 MN   UNL     1      -9.897   4.639  68.753  1.00  0.00    -0.121 Mn 
HETATM    2  C   UNL     2     -11.151  12.275  69.172  1.00  0.00    -0.203 C  
HETATM    3  C   UNL     3      -9.266   2.994  66.858  1.00  0.00    -0.152 C  
HETATM    4  H   UNL     3      -8.949   1.136  66.391  1.00  0.00     0.000 HD 
HETATM    5  H   UNL     2     -12.159  10.656  69.330  1.00  0.00     0.000 HD 
HETATM    6  O   UNL     2     -12.336  11.571  69.509  1.00  0.00    -0.237 OA 
HETATM    7  O   UNL     3      -9.335   1.894  65.967  1.00  0.00    -0.018 OA 
ENDROOT
BRANCH   2   8
HETATM    8  C   UNL     2     -11.440  13.761  69.463  1.00  0.00    -0.267 C  
HETATM    9  H   UNL     2     -12.608  15.216  68.797  1.00  0.00     0.000 HD 
HETATM   10  O   UNL     2     -12.429  14.300  68.618  1.00  0.00    -0.136 OA 
ENDBRANCH   2   8
BRANCH   2  11
HETATM   11  C   UNL     2     -10.770  11.939  67.676  1.00  0.00    -0.215 C  
HETATM   12  H   UNL     2     -11.678  11.802  65.928  1.00  0.00     0.000 HD 
HETATM   13  O   UNL     2     -11.907  12.003  66.828  1.00  0.00    -0.581 OA 
BRANCH  11  14
HETATM   14  C   UNL     2      -9.667  12.842  67.031  1.00  0.00    -0.224 C  
HETATM   15  H   UNL     2      -9.467  13.801  65.377  1.00  0.00     0.000 HD 
HETATM   16  O   UNL     2     -10.136  13.254  65.769  1.00  0.00    -0.287 OA 
BRANCH  14  17
HETATM   17  C   UNL     2      -8.286  12.172  66.837  1.00  0.00    -0.151 C  
HETATM   18  C   UNL     2      -8.388  10.927  65.973  1.00  0.00    -0.165 C  
HETATM   19  H   UNL     2      -6.917  11.401  67.972  1.00  0.00     0.000 HD 
HETATM   20  O   UNL     2      -7.765  11.812  68.091  1.00  0.00    -0.109 OA 
HETATM   21  O   UNL     2      -7.279  10.236  65.662  1.00  0.00    -0.136 OA 
HETATM   22  O   UNL     2      -9.460  10.572  65.484  1.00  0.00    -0.189 OA 
ENDBRANCH  14  17
ENDBRANCH  11  14
ENDBRANCH   2  11
BRANCH   3  23
HETATM   23  C   UNL     3      -7.757   3.067  67.323  1.00  0.00    -0.074 C  
HETATM   24  O   UNL     3      -7.194   4.094  66.539  1.00  0.00    -0.072 OA 
HETATM   25  H   UNL     3      -6.287   4.138  66.818  1.00  0.00     0.000 HD 
BRANCH  23  26
HETATM   26  C   UNL     3      -7.138   3.253  68.782  1.00  0.00    -0.049 C  
HETATM   27  O   UNL     3      -7.894   2.385  69.590  1.00  0.00    -0.043 OA 
HETATM   28  H   UNL     3      -7.526   2.495  70.458  1.00  0.00     0.000 HD 
BRANCH  26  29
HETATM   29  C   UNL     3      -7.079   4.613  69.634  1.00  0.00    -0.050 C  
HETATM   30  C   UNL     3      -7.796   4.719  70.951  1.00  0.00    -0.081 C  
HETATM   31  O   UNL     3      -7.544   5.711  68.877  1.00  0.00    -0.085 OA 
HETATM   32  O   UNL     3      -9.139   4.664  71.001  1.00  0.00    -0.123 OA 
HETATM   33  O   UNL     3      -7.171   5.014  71.958  1.00  0.00    -0.077 OA 
HETATM   34  H   UNL     3      -7.509   6.515  69.382  1.00  0.00     0.000 HD 
ENDBRANCH  26  29
ENDBRANCH  23  26
ENDBRANCH   3  23
BRANCH   3  35
HETATM   35  C   UNL     3      -9.903   4.243  66.157  1.00  0.00    -0.221 C  
HETATM   36  O   UNL     3     -10.820   3.888  65.165  1.00  0.00    -0.500 OA 
HETATM   37  H   UNL     3     -11.206   4.646  64.740  1.00  0.00     0.000 HD 
ENDBRANCH   3  35
TORSDOF 8
ENDMDL
MODEL      326
REMARK 921   NORMALIZED FREE ENERGY PREDICTED BY IDOCK:   -2.43 KCAL/MOL
REMARK 922        TOTAL FREE ENERGY PREDICTED BY IDOCK:   -5.24 KCAL/MOL
REMARK 923 INTER-LIGAND FREE ENERGY PREDICTED BY IDOCK:   -3.96 KCAL/MOL
REMARK 924 INTRA-LIGAND FREE ENERGY PREDICTED BY IDOCK:   -1.28 KCAL/MOL
REMARK 927      BINDING AFFINITY PREDICTED BY RF-SCORE:    0.00 PKD
ROOT
HETATM    1 MN   UNL     1      -6.377  11.014  69.580  1.00  0.00    -0.045 Mn 
HETATM    2  C   UNL     2     -12.623  14.697  72.317  1.00  0.00    -0.322 C  
HETATM    3  C   UNL     3      -5.913   8.637  68.669  1.00  0.00    -0.045 C  
HETATM    4  H   UNL     3      -4.561   7.417  67.997  1.00  0.00     0.000 HD 
HETATM    5  H   UNL     2     -10.952  14.041  72.980  1.00  0.00     0.000 HD 
HETATM    6  O   UNL     2     -11.638  14.596  73.333  1.00  0.00     0.037 OA 
HETATM    7  O   UNL     3      -5.343   7.347  68.533  1.00  0.00    -0.020 OA 
ENDROOT
BRANCH   2   8
HETATM    8  C   UNL     2     -13.736  15.597  72.890  1.00  0.00    -0.545 C  
HETATM    9  H   UNL     2     -13.958  17.013  74.256  1.00  0.00     0.000 HD 
HETATM   10  O   UNL     2     -13.273  16.458  73.903  1.00  0.00    -0.662 OA 
ENDBRANCH   2   8
BRANCH   2  11
HETATM   11  C   UNL     2     -13.076  13.241  71.903  1.00  0.00    -0.388 C  
HETATM   12  H   UNL     2     -14.668  12.365  71.130  1.00  0.00     0.000 HD 
HETATM   13  O   UNL     2     -14.395  13.240  71.380  1.00  0.00     0.628 OA 
BRANCH  11  14
HETATM   14  C   UNL     2     -12.169  12.512  70.858  1.00  0.00    -0.181 C  
HETATM   15  H   UNL     2     -11.418  12.950  69.143  1.00  0.00     0.000 HD 
HETATM   16  O   UNL     2     -11.968  13.393  69.779  1.00  0.00    -0.309 OA 
BRANCH  14  17
HETATM   17  C   UNL     2     -12.730  11.183  70.299  1.00  0.00    -0.139 C  
HETATM   18  C   UNL     2     -12.214   9.989  71.082  1.00  0.00    -0.380 C  
HETATM   19  H   UNL     2     -12.689  10.229  68.612  1.00  0.00     0.000 HD 
HETATM   20  O   UNL     2     -12.345  11.044  68.955  1.00  0.00    -0.481 OA 
HETATM   21  O   UNL     2     -12.629   8.751  70.766  1.00  0.00    -0.058 OA 
HETATM   22  O   UNL     2     -11.476  10.131  72.057  1.00  0.00     0.347 OA 
ENDBRANCH  14  17
ENDBRANCH  11  14
ENDBRANCH   2  11
BRANCH   3  23
HETATM   23  C   UNL     3      -6.047   9.197  67.196  1.00  0.00    -0.057 C  
HETATM   24  O   UNL     3      -6.535   8.109  66.446  1.00  0.00    -0.049 OA 
HETATM   25  H   UNL     3      -6.615   8.446  65.561  1.00  0.00     0.000 HD 
BRANCH  23  26
HETATM   26  C   UNL     3      -6.825  10.479  66.649  1.00  0.00    -0.108 C  
HETATM   27  O   UNL     3      -6.221  11.559  67.318  1.00  0.00    -0.078 OA 
HETATM   28  H   UNL     3      -6.683  12.322  66.993  1.00  0.00     0.000 HD 
BRANCH  26  29
HETATM   29  C   UNL     3      -8.396  10.778  66.784  1.00  0.00    -0.136 C  
HETATM   30  C   UNL     3      -9.331  10.474  65.647  1.00  0.00    -0.200 C  
HETATM   31  O   UNL     3      -8.635  12.133  67.098  1.00  0.00    -0.171 OA 
HETATM   32  O   UNL     3      -9.232  11.147  64.486  1.00  0.00    -0.186 OA 
HETATM   33  O   UNL     3     -10.280   9.727  65.827  1.00  0.00    -0.264 OA 
HETATM   34  H   UNL     3      -9.565  12.310  67.178  1.00  0.00     0.000 HD 
ENDBRANCH  26  29
ENDBRANCH  23  26
ENDBRANCH   3  23
BRANCH   3  35
HETATM   35  C   UNL     3      -7.203   8.522  69.553  1.00  0.00    -0.060 C  
HETATM   36  O   UNL     3      -7.146   9.334  70.688  1.00  0.00    -0.085 OA 
HETATM   37  H   UNL     3      -7.927   9.264  71.224  1.00  0.00     0.000 HD 
ENDBRANCH   3  35
TORSDOF 8
ENDMDL
MODEL      327
REMARK 921   NORMALIZED FREE ENERGY PREDICTED BY IDOCK:   -2.32 KCAL/MOL
REMARK 922        TOTAL FREE ENERGY PREDICTED BY IDOCK:   -5.08 KCAL/MOL
REMARK 923 INTER-LIGAND FREE ENERGY PREDICTED BY IDOCK:   -4.74 KCAL/MOL
REMARK 924 INTRA-LIGAND FREE ENERGY PREDICTED BY IDOCK:   -0.35 KCAL/MOL
REMARK 927      BINDING AFFINITY PREDICTED BY RF-SCORE:    0.00 PKD
ROOT
HETATM    1 MN   UNL     1      -7.061  11.526  69.329  1.00  0.00    -0.075 Mn 
HETATM    2  C   UNL     2      -9.572  18.714  67.886  1.00  0.00    -0.310 C  
HETATM    3  C   UNL     3      -7.708   9.164  68.492  1.00  0.00    -0.093 C  
HETATM    4  H   UNL     3      -7.371   7.260  68.659  1.00  0.00     0.000 HD 
HETATM    5  H   UNL     2      -9.577  17.469  69.338  1.00  0.00     0.000 HD 
HETATM    6  O   UNL     2      -9.795  18.389  69.249  1.00  0.00    -0.213 OA 
HETATM    7  O   UNL     3      -8.130   7.812  68.507  1.00  0.00    -0.120 OA 
ENDROOT
BRANCH   2   8
HETATM    8  C   UNL     2      -9.924  20.208  67.740  1.00  0.00    -0.409 C  
HETATM    9  H   UNL     2      -9.206  21.836  66.870  1.00  0.00     0.000 HD 
HETATM   10  O   UNL     2      -8.989  20.916  66.960  1.00  0.00    -0.188 OA 
ENDBRANCH   2   8
BRANCH   2  11
HETATM   11  C   UNL     2     -10.416  17.729  66.985  1.00  0.00    -0.322 C  
HETATM   12  H   UNL     2     -11.063  17.636  65.121  1.00  0.00     0.000 HD 
HETATM   13  O   UNL     2     -10.555  18.228  65.663  1.00  0.00    -0.614 OA 
BRANCH  11  14
HETATM   14  C   UNL     2      -9.868  16.269  66.866  1.00  0.00    -0.247 C  
HETATM   15  H   UNL     2     -10.641  14.516  66.707  1.00  0.00     0.000 HD 
HETATM   16  O   UNL     2     -10.974  15.403  66.779  1.00  0.00    -0.314 OA 
BRANCH  14  17
HETATM   17  C   UNL     2      -8.975  15.794  68.037  1.00  0.00    -0.178 C  
HETATM   18  C   UNL     2      -7.500  15.962  67.714  1.00  0.00    -0.140 C  
HETATM   19  H   UNL     2      -8.682  14.146  69.015  1.00  0.00     0.000 HD 
HETATM   20  O   UNL     2      -9.230  14.438  68.296  1.00  0.00    -0.188 OA 
HETATM   21  O   UNL     2      -6.573  15.641  68.632  1.00  0.00    -0.106 OA 
HETATM   22  O   UNL     2      -7.129  16.459  66.651  1.00  0.00    -0.213 OA 
ENDBRANCH  14  17
ENDBRANCH  11  14
ENDBRANCH   2  11
BRANCH   3  23
HETATM   23  C   UNL     3      -6.506   9.220  67.466  1.00  0.00    -0.063 C  
HETATM   24  O   UNL     3      -5.482   8.471  68.078  1.00  0.00    -0.034 OA 
HETATM   25  H   UNL     3      -4.760   8.505  67.461  1.00  0.00     0.000 HD 
BRANCH  23  26
HETATM   26  C   UNL     3      -6.456   8.831  65.918  1.00  0.00    -0.057 C  
HETATM   27  O   UNL     3      -7.218   9.831  65.287  1.00  0.00    -0.107 OA 
HETATM   28  H   UNL     3      -7.189   9.600  64.367  1.00  0.00     0.000 HD 
BRANCH  26  29
HETATM   29  C   UNL     3      -6.987   7.470  65.253  1.00  0.00    -0.059 C  
HETATM   30  C   UNL     3      -6.215   6.809  64.146  1.00  0.00    -0.035 C  
HETATM   31  O   UNL     3      -8.294   7.626  64.742  1.00  0.00    -0.287 OA 
HETATM   32  O   UNL     3      -6.077   7.419  62.955  1.00  0.00    -0.052 OA 
HETATM   33  O   UNL     3      -5.845   5.652  64.273  1.00  0.00    -0.020 OA 
HETATM   34  H   UNL     3      -8.608   6.820  64.348  1.00  0.00     0.000 HD 
ENDBRANCH  26  29
ENDBRANCH  23  26
ENDBRANCH   3  23
BRANCH   3  35
HETATM   35  C   UNL     3      -8.959  10.074  68.240  1.00  0.00    -0.119 C  
HETATM   36  O   UNL     3     -10.055   9.703  69.023  1.00  0.00    -0.172 OA 
HETATM   37  H   UNL     3     -10.813  10.255  68.870  1.00  0.00     0.000 HD 
ENDBRANCH   3  35
TORSDOF 8
ENDMDL
MODEL      328
REMARK 921   NORMALIZED FREE ENERGY PREDICTED BY IDOCK:   -2.25 KCAL/MOL
REMARK 922        TOTAL FREE ENERGY PREDICTED BY IDOCK:   -4.97 KCAL/MOL
REMARK 923 INTER-LIGAND FREE ENERGY PREDICTED BY IDOCK:   -6.96 KCAL/MOL
REMARK 924 INTRA-LIGAND FREE ENERGY PREDICTED BY IDOCK:    1.99 KCAL/MOL
REMARK 927      BINDING AFFINITY PREDICTED BY RF-SCORE:    0.00 PKD
ROOT
HETATM    1 MN   UNL     1      -8.810  18.348  69.476  1.00  0.00    -0.155 Mn 
HETATM    2  C   UNL     2     -12.065  12.910  65.016  1.00  0.00    -0.435 C  
HETATM    3  C   UNL     3      -6.379  19.053  70.014  1.00  0.00    -0.102 C  
HETATM    4  H   UNL     3      -5.252  20.241  71.056  1.00  0.00     0.000 HD 
HETATM    5  H   UNL     2     -11.880  13.300  66.880  1.00  0.00     0.000 HD 
HETATM    6  O   UNL     2     -12.394  12.680  66.376  1.00  0.00    -0.521 OA 
HETATM    7  O   UNL     3      -5.205  19.341  70.754  1.00  0.00    -0.197 OA 
ENDROOT
BRANCH   2   8
HETATM    8  C   UNL     2     -12.900  11.904  64.198  1.00  0.00    -0.091 C  
HETATM    9  H   UNL     2     -12.845  10.997  62.438  1.00  0.00     0.000 HD 
HETATM   10  O   UNL     2     -12.331  11.617  62.942  1.00  0.00    -0.144 OA 
ENDBRANCH   2   8
BRANCH   2  11
HETATM   11  C   UNL     2     -10.499  12.787  64.844  1.00  0.00    -0.321 C  
HETATM   12  H   UNL     2      -8.991  13.934  64.290  1.00  0.00     0.000 HD 
HETATM   13  O   UNL     2      -9.932  14.008  64.393  1.00  0.00    -0.168 OA 
BRANCH  11  14
HETATM   14  C   UNL     2      -9.702  12.357  66.120  1.00  0.00    -0.246 C  
HETATM   15  H   UNL     2      -8.541  10.899  66.591  1.00  0.00     0.000 HD 
HETATM   16  O   UNL     2      -9.025  11.161  65.817  1.00  0.00    -0.198 OA 
BRANCH  14  17
HETATM   17  C   UNL     2     -10.552  12.123  67.391  1.00  0.00    -0.226 C  
HETATM   18  C   UNL     2     -10.583  13.358  68.274  1.00  0.00    -0.254 C  
HETATM   19  H   UNL     2     -10.530  10.911  68.904  1.00  0.00     0.000 HD 
HETATM   20  O   UNL     2     -10.008  11.055  68.123  1.00  0.00    -0.168 OA 
HETATM   21  O   UNL     2     -11.310  13.354  69.404  1.00  0.00    -0.260 OA 
HETATM   22  O   UNL     2     -10.016  14.398  67.942  1.00  0.00    -0.222 OA 
ENDBRANCH  14  17
ENDBRANCH  11  14
ENDBRANCH   2  11
BRANCH   3  23
HETATM   23  C   UNL     3      -6.498  20.211  68.944  1.00  0.00    -0.311 C  
HETATM   24  O   UNL     3      -5.362  21.015  69.164  1.00  0.00    -0.343 OA 
HETATM   25  H   UNL     3      -5.434  21.710  68.521  1.00  0.00     0.000 HD 
BRANCH  23  26
HETATM   26  C   UNL     3      -6.668  20.133  67.359  1.00  0.00    -0.222 C  
HETATM   27  O   UNL     3      -6.078  21.320  66.891  1.00  0.00    -0.280 OA 
HETATM   28  H   UNL     3      -6.180  21.274  65.947  1.00  0.00     0.000 HD 
BRANCH  26  29
HETATM   29  C   UNL     3      -8.050  20.046  66.545  1.00  0.00    -0.311 C  
HETATM   30  C   UNL     3      -9.357  19.909  67.274  1.00  0.00    -0.356 C  
HETATM   31  O   UNL     3      -8.034  18.978  65.623  1.00  0.00    -0.437 OA 
HETATM   32  O   UNL     3      -9.626  18.800  67.986  1.00  0.00    -0.299 OA 
HETATM   33  O   UNL     3     -10.239  20.734  67.094  1.00  0.00    -0.252 OA 
HETATM   34  H   UNL     3      -8.852  18.927  65.141  1.00  0.00     0.000 HD 
ENDBRANCH  26  29
ENDBRANCH  23  26
ENDBRANCH   3  23
BRANCH   3  35
HETATM   35  C   UNL     3      -6.303  17.568  69.516  1.00  0.00    -0.230 C  
HETATM   36  O   UNL     3      -5.645  16.735  70.424  1.00  0.00    -0.209 OA 
HETATM   37  H   UNL     3      -5.599  15.835  70.122  1.00  0.00     0.000 HD 
ENDBRANCH   3  35
TORSDOF 8
ENDMDL
MODEL      329
REMARK 921   NORMALIZED FREE ENERGY PREDICTED BY IDOCK:   -1.85 KCAL/MOL
REMARK 922        TOTAL FREE ENERGY PREDICTED BY IDOCK:   -4.39 KCAL/MOL
REMARK 923 INTER-LIGAND FREE ENERGY PREDICTED BY IDOCK:   -3.53 KCAL/MOL
REMARK 924 INTRA-LIGAND FREE ENERGY PREDICTED BY IDOCK:   -0.85 KCAL/MOL
REMARK 927      BINDING AFFINITY PREDICTED BY RF-SCORE:    0.00 PKD
ROOT
HETATM    1 MN   UNL     1      -7.607   9.325  69.801  1.00  0.00    -0.055 Mn 
HETATM    2  C   UNL     2     -12.542  14.467  72.846  1.00  0.00    -0.268 C  
HETATM    3  C   UNL     3      -7.852   7.019  68.653  1.00  0.00    -0.119 C  
HETATM    4  H   UNL     3      -6.909   5.513  67.871  1.00  0.00     0.000 HD 
HETATM    5  H   UNL     2     -11.178  13.270  73.453  1.00  0.00     0.000 HD 
HETATM    6  O   UNL     2     -11.677  13.972  73.855  1.00  0.00     0.659 OA 
HETATM    7  O   UNL     3      -7.696   5.635  68.390  1.00  0.00    -0.089 OA 
ENDROOT
BRANCH   2   8
HETATM    8  C   UNL     2     -13.351  15.606  73.498  1.00  0.00    -0.346 C  
HETATM    9  H   UNL     2     -13.143  17.526  73.936  1.00  0.00     0.000 HD 
HETATM   10  O   UNL     2     -12.645  16.824  73.534  1.00  0.00    -0.224 OA 
ENDBRANCH   2   8
BRANCH   2  11
HETATM   11  C   UNL     2     -13.399  13.266  72.279  1.00  0.00    -0.533 C  
HETATM   12  H   UNL     2     -14.895  13.000  71.018  1.00  0.00     0.000 HD 
HETATM   13  O   UNL     2     -14.380  13.722  71.359  1.00  0.00     0.011 OA 
BRANCH  11  14
HETATM   14  C   UNL     2     -12.598  12.128  71.567  1.00  0.00    -0.161 C  
HETATM   15  H   UNL     2     -11.452  12.005  70.028  1.00  0.00     0.000 HD 
HETATM   16  O   UNL     2     -11.939  12.696  70.461  1.00  0.00    -0.325 OA 
BRANCH  14  17
HETATM   17  C   UNL     2     -13.441  10.932  71.065  1.00  0.00     0.306 C  
HETATM   18  C   UNL     2     -12.989   9.628  71.699  1.00  0.00    -0.407 C  
HETATM   19  H   UNL     2     -13.830  10.092  69.361  1.00  0.00     0.000 HD 
HETATM   20  O   UNL     2     -13.313  10.826  69.670  1.00  0.00     0.174 OA 
HETATM   21  O   UNL     2     -13.635   8.485  71.412  1.00  0.00    -0.310 OA 
HETATM   22  O   UNL     2     -12.085   9.600  72.533  1.00  0.00     0.090 OA 
ENDBRANCH  14  17
ENDBRANCH  11  14
ENDBRANCH   2  11
BRANCH   3  23
HETATM   23  C   UNL     3      -7.749   7.731  67.245  1.00  0.00    -0.113 C  
HETATM   24  O   UNL     3      -7.628   6.674  66.321  1.00  0.00    -0.086 OA 
HETATM   25  H   UNL     3      -7.566   7.102  65.475  1.00  0.00     0.000 HD 
BRANCH  23  26
HETATM   26  C   UNL     3      -8.720   8.794  66.556  1.00  0.00    -0.120 C  
HETATM   27  O   UNL     3      -8.835   8.345  65.228  1.00  0.00    -0.321 OA 
HETATM   28  H   UNL     3      -9.413   8.978  64.818  1.00  0.00     0.000 HD 
BRANCH  26  29
HETATM   29  C   UNL     3      -8.463  10.372  66.405  1.00  0.00    -0.138 C  
HETATM   30  C   UNL     3      -9.379  11.361  67.070  1.00  0.00    -0.174 C  
HETATM   31  O   UNL     3      -8.435  10.758  65.048  1.00  0.00    -0.273 OA 
HETATM   32  O   UNL     3     -10.664  11.463  66.687  1.00  0.00    -0.247 OA 
HETATM   33  O   UNL     3      -8.920  12.181  67.850  1.00  0.00    -0.169 OA 
HETATM   34  H   UNL     3      -8.284  11.692  64.959  1.00  0.00     0.000 HD 
ENDBRANCH  26  29
ENDBRANCH  23  26
ENDBRANCH   3  23
BRANCH   3  35
HETATM   35  C   UNL     3      -9.150   7.221  69.508  1.00  0.00    -0.143 C  
HETATM   36  O   UNL     3      -9.849   6.027  69.705  1.00  0.00    -0.154 OA 
HETATM   37  H   UNL     3     -10.636   6.149  70.223  1.00  0.00     0.000 HD 
ENDBRANCH   3  35
TORSDOF 8
ENDMDL
MODEL      330
REMARK 921   NORMALIZED FREE ENERGY PREDICTED BY IDOCK:   -1.76 KCAL/MOL
REMARK 922        TOTAL FREE ENERGY PREDICTED BY IDOCK:   -4.26 KCAL/MOL
REMARK 923 INTER-LIGAND FREE ENERGY PREDICTED BY IDOCK:   -3.93 KCAL/MOL
REMARK 924 INTRA-LIGAND FREE ENERGY PREDICTED BY IDOCK:   -0.33 KCAL/MOL
REMARK 927      BINDING AFFINITY PREDICTED BY RF-SCORE:    0.00 PKD
ROOT
HETATM    1 MN   UNL     1      -6.047  10.381  70.081  1.00  0.00    -0.041 Mn 
HETATM    2  C   UNL     2      -9.616   4.433  73.537  1.00  0.00    -0.116 C  
HETATM    3  C   UNL     3      -5.963  11.305  67.665  1.00  0.00    -0.051 C  
HETATM    4  H   UNL     3      -5.188  12.640  66.489  1.00  0.00     0.000 HD 
HETATM    5  H   UNL     2      -7.831   4.954  73.083  1.00  0.00     0.000 HD 
HETATM    6  O   UNL     2      -8.209   4.265  73.617  1.00  0.00    -0.092 OA 
HETATM    7  O   UNL     3      -5.448  11.729  66.415  1.00  0.00    -0.294 OA 
ENDROOT
BRANCH   2   8
HETATM    8  C   UNL     2     -10.229   3.315  74.404  1.00  0.00    -0.171 C  
HETATM    9  H   UNL     2     -11.785   2.090  74.384  1.00  0.00     0.000 HD 
HETATM   10  O   UNL     2     -11.408   2.779  73.850  1.00  0.00    -0.184 OA 
ENDBRANCH   2   8
BRANCH   2  11
HETATM   11  C   UNL     2     -10.043   4.421  72.016  1.00  0.00    -0.186 C  
HETATM   12  H   UNL     2     -11.662   4.780  70.946  1.00  0.00     0.000 HD 
HETATM   13  O   UNL     2     -11.405   4.786  71.860  1.00  0.00     0.252 OA 
BRANCH  11  14
HETATM   14  C   UNL     2      -9.211   5.342  71.064  1.00  0.00    -0.147 C  
HETATM   15  H   UNL     2      -7.396   5.386  70.430  1.00  0.00     0.000 HD 
HETATM   16  O   UNL     2      -7.902   4.827  71.008  1.00  0.00    -0.078 OA 
BRANCH  14  17
HETATM   17  C   UNL     2      -9.128   6.830  71.479  1.00  0.00    -0.145 C  
HETATM   18  C   UNL     2      -9.779   7.732  70.446  1.00  0.00    -0.179 C  
HETATM   19  H   UNL     2      -7.728   8.113  71.872  1.00  0.00     0.000 HD 
HETATM   20  O   UNL     2      -7.780   7.199  71.617  1.00  0.00    -0.087 OA 
HETATM   21  O   UNL     2      -9.840   9.058  70.658  1.00  0.00    -0.195 OA 
HETATM   22  O   UNL     2     -10.326   7.271  69.444  1.00  0.00    -0.196 OA 
ENDBRANCH  14  17
ENDBRANCH  11  14
ENDBRANCH   2  11
BRANCH   3  23
HETATM   23  C   UNL     3      -7.055  12.379  68.059  1.00  0.00    -0.099 C  
HETATM   24  O   UNL     3      -7.767  11.789  69.121  1.00  0.00    -0.324 OA 
HETATM   25  H   UNL     3      -8.423  12.435  69.357  1.00  0.00     0.000 HD 
BRANCH  23  26
HETATM   26  C   UNL     3      -6.888  13.916  68.456  1.00  0.00    -0.098 C  
HETATM   27  O   UNL     3      -7.139  13.944  69.839  1.00  0.00    -0.350 OA 
HETATM   28  H   UNL     3      -7.040  14.858  70.075  1.00  0.00     0.000 HD 
BRANCH  26  29
HETATM   29  C   UNL     3      -7.742  15.152  67.888  1.00  0.00    -0.135 C  
HETATM   30  C   UNL     3      -9.219  15.011  67.646  1.00  0.00    -0.182 C  
HETATM   31  O   UNL     3      -7.216  15.618  66.664  1.00  0.00    -0.224 OA 
HETATM   32  O   UNL     3      -9.676  14.170  66.701  1.00  0.00    -0.268 OA 
HETATM   33  O   UNL     3      -9.998  15.773  68.197  1.00  0.00    -0.213 OA 
HETATM   34  H   UNL     3      -7.722  16.349  66.328  1.00  0.00     0.000 HD 
ENDBRANCH  26  29
ENDBRANCH  23  26
ENDBRANCH   3  23
BRANCH   3  35
HETATM   35  C   UNL     3      -6.392   9.802  67.543  1.00  0.00    -0.064 C  
HETATM   36  O   UNL     3      -6.503   9.386  66.214  1.00  0.00    -0.067 OA 
HETATM   37  H   UNL     3      -6.763   8.475  66.139  1.00  0.00     0.000 HD 
ENDBRANCH   3  35
TORSDOF 8
ENDMDL
MODEL      331
REMARK 921   NORMALIZED FREE ENERGY PREDICTED BY IDOCK:   -1.73 KCAL/MOL
REMARK 922        TOTAL FREE ENERGY PREDICTED BY IDOCK:   -4.22 KCAL/MOL
REMARK 923 INTER-LIGAND FREE ENERGY PREDICTED BY IDOCK:   -3.71 KCAL/MOL
REMARK 924 INTRA-LIGAND FREE ENERGY PREDICTED BY IDOCK:   -0.51 KCAL/MOL
REMARK 927      BINDING AFFINITY PREDICTED BY RF-SCORE:    0.00 PKD
ROOT
HETATM    1 MN   UNL     1      -7.902  15.300  70.443  1.00  0.00    -0.167 Mn 
HETATM    2  C   UNL     2      -6.091   8.113  72.706  1.00  0.00    -0.067 C  
HETATM    3  C   UNL     3      -7.926  16.548  68.177  1.00  0.00    -0.163 C  
HETATM    4  H   UNL     3      -8.238  18.246  67.288  1.00  0.00     0.000 HD 
HETATM    5  H   UNL     2      -5.404   9.887  72.914  1.00  0.00     0.000 HD 
HETATM    6  O   UNL     2      -5.211   9.047  73.313  1.00  0.00    -0.071 OA 
HETATM    7  O   UNL     3      -7.638  17.517  67.182  1.00  0.00    -0.189 OA 
ENDROOT
BRANCH   2   8
HETATM    8  C   UNL     2      -5.778   6.750  73.354  1.00  0.00    -0.050 C  
HETATM    9  H   UNL     2      -6.746   5.216  74.151  1.00  0.00     0.000 HD 
HETATM   10  O   UNL     2      -6.938   6.056  73.752  1.00  0.00    -0.079 OA 
ENDBRANCH   2   8
BRANCH   2  11
HETATM   11  C   UNL     2      -5.898   8.178  71.140  1.00  0.00    -0.034 C  
HETATM   12  H   UNL     2      -6.122   6.982  69.584  1.00  0.00     0.000 HD 
HETATM   13  O   UNL     2      -6.237   6.944  70.527  1.00  0.00    -0.027 OA 
BRANCH  11  14
HETATM   14  C   UNL     2      -6.703   9.294  70.396  1.00  0.00    -0.073 C  
HETATM   15  H   UNL     2      -8.429   9.422  69.559  1.00  0.00     0.000 HD 
HETATM   16  O   UNL     2      -7.940   8.744  70.011  1.00  0.00    -0.097 OA 
BRANCH  14  17
HETATM   17  C   UNL     2      -6.023   9.881  69.137  1.00  0.00    -0.034 C  
HETATM   18  C   UNL     2      -6.780  11.087  68.607  1.00  0.00    -0.061 C  
HETATM   19  H   UNL     2      -5.558   9.259  67.360  1.00  0.00     0.000 HD 
HETATM   20  O   UNL     2      -5.976   8.899  68.134  1.00  0.00    -0.045 OA 
HETATM   21  O   UNL     2      -6.311  11.755  67.539  1.00  0.00    -0.072 OA 
HETATM   22  O   UNL     2      -7.780  11.518  69.179  1.00  0.00    -0.080 OA 
ENDBRANCH  14  17
ENDBRANCH  11  14
ENDBRANCH   2  11
BRANCH   3  23
HETATM   23  C   UNL     3      -9.481  16.280  68.067  1.00  0.00    -0.223 C  
HETATM   24  O   UNL     3      -9.644  15.645  66.820  1.00  0.00    -0.224 OA 
HETATM   25  H   UNL     3     -10.578  15.484  66.755  1.00  0.00     0.000 HD 
BRANCH  23  26
HETATM   26  C   UNL     3     -10.467  15.522  69.068  1.00  0.00    -0.231 C  
HETATM   27  O   UNL     3     -10.413  14.180  68.652  1.00  0.00    -0.240 OA 
HETATM   28  H   UNL     3     -11.000  13.729  69.247  1.00  0.00     0.000 HD 
BRANCH  26  29
HETATM   29  C   UNL     3     -12.036  15.800  69.262  1.00  0.00    -0.289 C  
HETATM   30  C   UNL     3     -12.754  15.297  70.483  1.00  0.00    -0.390 C  
HETATM   31  O   UNL     3     -12.782  15.303  68.172  1.00  0.00     0.108 OA 
HETATM   32  O   UNL     3     -12.890  13.976  70.697  1.00  0.00    -0.316 OA 
HETATM   33  O   UNL     3     -13.350  16.084  71.201  1.00  0.00    -0.352 OA 
HETATM   34  H   UNL     3     -13.711  15.467  68.287  1.00  0.00     0.000 HD 
ENDBRANCH  26  29
ENDBRANCH  23  26
ENDBRANCH   3  23
BRANCH   3  35
HETATM   35  C   UNL     3      -6.938  15.344  68.001  1.00  0.00    -0.133 C  
HETATM   36  O   UNL     3      -6.572  14.772  69.222  1.00  0.00    -0.109 OA 
HETATM   37  H   UNL     3      -5.973  14.042  69.116  1.00  0.00     0.000 HD 
ENDBRANCH   3  35
TORSDOF 8
ENDMDL
MODEL      332
REMARK 921   NORMALIZED FREE ENERGY PREDICTED BY IDOCK:   -1.50 KCAL/MOL
REMARK 922        TOTAL FREE ENERGY PREDICTED BY IDOCK:   -3.88 KCAL/MOL
REMARK 923 INTER-LIGAND FREE ENERGY PREDICTED BY IDOCK:   -3.71 KCAL/MOL
REMARK 924 INTRA-LIGAND FREE ENERGY PREDICTED BY IDOCK:   -0.17 KCAL/MOL
REMARK 927      BINDING AFFINITY PREDICTED BY RF-SCORE:    0.00 PKD
ROOT
HETATM    1 MN   UNL     1      -7.418  14.169  71.503  1.00  0.00    -0.021 Mn 
HETATM    2  C   UNL     2      -7.443   6.719  73.638  1.00  0.00    -0.081 C  
HETATM    3  C   UNL     3      -7.100  15.425  69.263  1.00  0.00    -0.179 C  
HETATM    4  H   UNL     3      -6.976  17.163  68.407  1.00  0.00     0.000 HD 
HETATM    5  H   UNL     2      -6.350   8.269  73.890  1.00  0.00     0.000 HD 
HETATM    6  O   UNL     2      -6.373   7.400  74.274  1.00  0.00    -0.076 OA 
HETATM    7  O   UNL     3      -6.570  16.311  68.293  1.00  0.00    -0.121 OA 
ENDROOT
BRANCH   2   8
HETATM    8  C   UNL     2      -7.482   5.310  74.261  1.00  0.00    -0.086 C  
HETATM    9  H   UNL     2      -6.235   3.836  74.705  1.00  0.00     0.000 HD 
HETATM   10  O   UNL     2      -6.211   4.705  74.321  1.00  0.00    -0.046 OA 
ENDBRANCH   2   8
BRANCH   2  11
HETATM   11  C   UNL     2      -7.215   6.763  72.075  1.00  0.00    -0.080 C  
HETATM   12  H   UNL     2      -7.941   5.885  70.463  1.00  0.00     0.000 HD 
HETATM   13  O   UNL     2      -8.078   5.859  71.403  1.00  0.00    -0.111 OA 
BRANCH  11  14
HETATM   14  C   UNL     2      -7.395   8.159  71.395  1.00  0.00    -0.076 C  
HETATM   15  H   UNL     2      -8.673   8.954  70.199  1.00  0.00     0.000 HD 
HETATM   16  O   UNL     2      -8.564   8.106  70.613  1.00  0.00    -0.124 OA 
BRANCH  14  17
HETATM   17  C   UNL     2      -6.228   8.616  70.488  1.00  0.00    -0.036 C  
HETATM   18  C   UNL     2      -6.599   9.848  69.682  1.00  0.00    -0.056 C  
HETATM   19  H   UNL     2      -5.177   7.858  69.046  1.00  0.00     0.000 HD 
HETATM   20  O   UNL     2      -5.894   7.578  69.602  1.00  0.00    -0.023 OA 
HETATM   21  O   UNL     2      -5.692  10.413  68.868  1.00  0.00    -0.041 OA 
HETATM   22  O   UNL     2      -7.695  10.393  69.811  1.00  0.00    -0.158 OA 
ENDBRANCH  14  17
ENDBRANCH  11  14
ENDBRANCH   2  11
BRANCH   3  23
HETATM   23  C   UNL     3      -8.671  15.545  69.130  1.00  0.00    -0.247 C  
HETATM   24  O   UNL     3      -9.142  15.542  70.458  1.00  0.00     0.298 OA 
HETATM   25  H   UNL     3     -10.085  15.613  70.377  1.00  0.00     0.000 HD 
BRANCH  23  26
HETATM   26  C   UNL     3      -9.559  16.627  68.362  1.00  0.00    -0.233 C  
HETATM   27  O   UNL     3     -10.785  15.974  68.143  1.00  0.00    -0.287 OA 
HETATM   28  H   UNL     3     -11.313  16.617  67.686  1.00  0.00     0.000 HD 
BRANCH  26  29
HETATM   29  C   UNL     3      -9.230  17.308  66.946  1.00  0.00    -0.254 C  
HETATM   30  C   UNL     3      -9.479  18.774  66.728  1.00  0.00    -0.319 C  
HETATM   31  O   UNL     3      -9.918  16.662  65.896  1.00  0.00    -0.392 OA 
HETATM   32  O   UNL     3     -10.733  19.261  66.750  1.00  0.00    -0.442 OA 
HETATM   33  O   UNL     3      -8.561  19.498  66.376  1.00  0.00    -0.332 OA 
HETATM   34  H   UNL     3      -9.723  17.065  65.058  1.00  0.00     0.000 HD 
ENDBRANCH  26  29
ENDBRANCH  23  26
ENDBRANCH   3  23
BRANCH   3  35
HETATM   35  C   UNL     3      -6.431  14.020  69.075  1.00  0.00    -0.101 C  
HETATM   36  O   UNL     3      -5.170  14.106  68.480  1.00  0.00    -0.086 OA 
HETATM   37  H   UNL     3      -4.764  13.254  68.365  1.00  0.00     0.000 HD 
ENDBRANCH   3  35
TORSDOF 8
ENDMDL
MODEL      333
REMARK 921   NORMALIZED FREE ENERGY PREDICTED BY IDOCK:   -0.24 KCAL/MOL
REMARK 922        TOTAL FREE ENERGY PREDICTED BY IDOCK:   -2.02 KCAL/MOL
REMARK 923 INTER-LIGAND FREE ENERGY PREDICTED BY IDOCK:   -2.58 KCAL/MOL
REMARK 924 INTRA-LIGAND FREE ENERGY PREDICTED BY IDOCK:    0.56 KCAL/MOL
REMARK 927      BINDING AFFINITY PREDICTED BY RF-SCORE:    0.00 PKD
ROOT
HETATM    1 MN   UNL     1      -8.839  16.937  69.856  1.00  0.00    -0.048 Mn 
HETATM    2  C   UNL     2     -12.029  12.148  64.666  1.00  0.00    -0.323 C  
HETATM    3  C   UNL     3      -6.420  17.468  70.604  1.00  0.00     1.303 C  
HETATM    4  H   UNL     3      -5.311  18.488  71.829  1.00  0.00     0.000 HD 
HETATM    5  H   UNL     2     -11.943  12.333  66.568  1.00  0.00     0.000 HD 
HETATM    6  O   UNL     2     -12.450  11.793  65.973  1.00  0.00     0.171 OA 
HETATM    7  O   UNL     3      -5.283  17.623  71.436  1.00  0.00    -0.395 OA 
ENDROOT
BRANCH   2   8
HETATM    8  C   UNL     2     -12.852  11.272  63.700  1.00  0.00     0.945 C  
HETATM    9  H   UNL     2     -13.976  11.479  62.082  1.00  0.00     0.000 HD 
HETATM   10  O   UNL     2     -13.469  12.019  62.678  1.00  0.00     0.221 OA 
ENDBRANCH   2   8
BRANCH   2  11
HETATM   11  C   UNL     2     -10.462  11.971  64.572  1.00  0.00    -0.299 C  
HETATM   12  H   UNL     2      -8.933  12.876  63.710  1.00  0.00     0.000 HD 
HETATM   13  O   UNL     2      -9.876  12.982  63.766  1.00  0.00    -0.178 OA 
BRANCH  11  14
HETATM   14  C   UNL     2      -9.690  11.966  65.932  1.00  0.00    -0.238 C  
HETATM   15  H   UNL     2      -8.980  13.302  67.118  1.00  0.00     0.000 HD 
HETATM   16  O   UNL     2      -9.449  13.305  66.292  1.00  0.00    -0.254 OA 
BRANCH  14  17
HETATM   17  C   UNL     2      -8.337  11.216  65.929  1.00  0.00    -0.076 C  
HETATM   18  C   UNL     2      -8.407   9.946  65.099  1.00  0.00    -0.148 C  
HETATM   19  H   UNL     2      -7.159  10.417  67.245  1.00  0.00     0.000 HD 
HETATM   20  O   UNL     2      -7.990  10.877  67.247  1.00  0.00    -0.117 OA 
HETATM   21  O   UNL     2      -7.310   9.185  64.946  1.00  0.00    -0.097 OA 
HETATM   22  O   UNL     2      -9.432   9.631  64.495  1.00  0.00    -0.253 OA 
ENDBRANCH  14  17
ENDBRANCH  11  14
ENDBRANCH   2  11
BRANCH   3  23
HETATM   23  C   UNL     3      -6.426  18.735  69.658  1.00  0.00    -0.188 C  
HETATM   24  O   UNL     3      -5.136  18.762  69.093  1.00  0.00    -0.186 OA 
HETATM   25  H   UNL     3      -5.140  19.524  68.525  1.00  0.00     0.000 HD 
BRANCH  23  26
HETATM   26  C   UNL     3      -7.421  19.130  68.474  1.00  0.00    -0.325 C  
HETATM   27  O   UNL     3      -7.132  20.482  68.218  1.00  0.00    -0.237 OA 
HETATM   28  H   UNL     3      -7.724  20.718  67.514  1.00  0.00     0.000 HD 
BRANCH  26  29
HETATM   29  C   UNL     3      -9.025  19.084  68.514  1.00  0.00    -0.355 C  
HETATM   30  C   UNL     3      -9.775  17.986  67.813  1.00  0.00    -0.292 C  
HETATM   31  O   UNL     3      -9.585  20.281  68.016  1.00  0.00    -0.330 OA 
HETATM   32  O   UNL     3      -9.736  17.884  66.472  1.00  0.00    -0.303 OA 
HETATM   33  O   UNL     3     -10.545  17.280  68.444  1.00  0.00    -0.360 OA 
HETATM   34  H   UNL     3     -10.534  20.253  68.040  1.00  0.00     0.000 HD 
ENDBRANCH  26  29
ENDBRANCH  23  26
ENDBRANCH   3  23
BRANCH   3  35
HETATM   35  C   UNL     3      -6.373  16.042  69.956  1.00  0.00    -0.087 C  
HETATM   36  O   UNL     3      -5.444  15.204  70.579  1.00  0.00    -0.128 OA 
HETATM   37  H   UNL     3      -5.415  14.339  70.186  1.00  0.00     0.000 HD 
ENDBRANCH   3  35
TORSDOF 8
ENDMDL
MODEL      334
REMARK 921   NORMALIZED FREE ENERGY PREDICTED BY IDOCK:    0.23 KCAL/MOL
REMARK 922        TOTAL FREE ENERGY PREDICTED BY IDOCK:   -1.33 KCAL/MOL
REMARK 923 INTER-LIGAND FREE ENERGY PREDICTED BY IDOCK:   -1.85 KCAL/MOL
REMARK 924 INTRA-LIGAND FREE ENERGY PREDICTED BY IDOCK:    0.52 KCAL/MOL
REMARK 927      BINDING AFFINITY PREDICTED BY RF-SCORE:    0.00 PKD
ROOT
HETATM    1 MN   UNL     1      -8.758   8.620  66.457  1.00  0.00    -0.105 Mn 
HETATM    2  C   UNL     2     -12.735  14.344  69.843  1.00  0.00    -0.062 C  
HETATM    3  C   UNL     3      -7.236   6.706  67.303  1.00  0.00    -0.085 C  
HETATM    4  H   UNL     3      -6.096   5.221  66.787  1.00  0.00     0.000 HD 
HETATM    5  H   UNL     2     -11.210  14.150  68.704  1.00  0.00     0.000 HD 
HETATM    6  O   UNL     2     -11.734  14.887  68.998  1.00  0.00    -0.293 OA 
HETATM    7  O   UNL     3      -6.095   5.882  67.471  1.00  0.00    -0.020 OA 
ENDROOT
BRANCH   2   8
HETATM    8  C   UNL     2     -13.585  15.539  70.319  1.00  0.00     0.567 C  
HETATM    9  H   UNL     2     -13.346  17.259  71.272  1.00  0.00     0.000 HD 
HETATM   10  O   UNL     2     -12.822  16.522  70.979  1.00  0.00     0.704 OA 
ENDBRANCH   2   8
BRANCH   2  11
HETATM   11  C   UNL     2     -12.036  13.512  70.990  1.00  0.00     0.008 C  
HETATM   12  H   UNL     2     -10.950  13.862  72.601  1.00  0.00     0.000 HD 
HETATM   13  O   UNL     2     -11.370  14.362  71.911  1.00  0.00     0.315 OA 
BRANCH  11  14
HETATM   14  C   UNL     2     -12.970  12.575  71.824  1.00  0.00    -0.313 C  
HETATM   15  H   UNL     2     -13.586  12.510  73.644  1.00  0.00     0.000 HD 
HETATM   16  O   UNL     2     -13.019  13.079  73.137  1.00  0.00     0.205 OA 
BRANCH  14  17
HETATM   17  C   UNL     2     -12.537  11.091  71.893  1.00  0.00    -0.084 C  
HETATM   18  C   UNL     2     -12.077  10.583  70.537  1.00  0.00    -0.345 C  
HETATM   19  H   UNL     2     -13.356   9.399  72.367  1.00  0.00     0.000 HD 
HETATM   20  O   UNL     2     -13.621  10.310  72.325  1.00  0.00    -0.325 OA 
HETATM   21  O   UNL     2     -11.623   9.324  70.413  1.00  0.00    -0.254 OA 
HETATM   22  O   UNL     2     -12.038  11.322  69.555  1.00  0.00    -0.321 OA 
ENDBRANCH  14  17
ENDBRANCH  11  14
ENDBRANCH   2  11
BRANCH   3  23
HETATM   23  C   UNL     3      -8.463   5.713  67.204  1.00  0.00    -0.110 C  
HETATM   24  O   UNL     3      -9.587   6.508  67.502  1.00  0.00    -0.123 OA 
HETATM   25  H   UNL     3     -10.324   5.911  67.443  1.00  0.00     0.000 HD 
BRANCH  23  26
HETATM   26  C   UNL     3      -8.918   4.755  66.011  1.00  0.00    -0.126 C  
HETATM   27  O   UNL     3     -10.323   4.799  66.051  1.00  0.00    -0.262 OA 
HETATM   28  H   UNL     3     -10.594   4.229  65.342  1.00  0.00     0.000 HD 
BRANCH  26  29
HETATM   29  C   UNL     3      -8.589   3.192  65.856  1.00  0.00    -0.118 C  
HETATM   30  C   UNL     3      -8.007   2.657  64.577  1.00  0.00    -0.078 C  
HETATM   31  O   UNL     3      -9.734   2.402  66.093  1.00  0.00    -0.349 OA 
HETATM   32  O   UNL     3      -8.722   2.690  63.439  1.00  0.00    -0.085 OA 
HETATM   33  O   UNL     3      -6.948   2.050  64.602  1.00  0.00    -0.044 OA 
HETATM   34  H   UNL     3      -9.539   1.476  66.001  1.00  0.00     0.000 HD 
ENDBRANCH  26  29
ENDBRANCH  23  26
ENDBRANCH   3  23
BRANCH   3  35
HETATM   35  C   UNL     3      -7.234   7.795  68.430  1.00  0.00    -0.093 C  
HETATM   36  O   UNL     3      -6.995   7.252  69.695  1.00  0.00    -0.052 OA 
HETATM   37  H   UNL     3      -6.994   7.913  70.379  1.00  0.00     0.000 HD 
ENDBRANCH   3  35
TORSDOF 8
ENDMDL
MODEL      335
REMARK 921   NORMALIZED FREE ENERGY PREDICTED BY IDOCK:    2.94 KCAL/MOL
REMARK 922        TOTAL FREE ENERGY PREDICTED BY IDOCK:    2.63 KCAL/MOL
REMARK 923 INTER-LIGAND FREE ENERGY PREDICTED BY IDOCK:    4.52 KCAL/MOL
REMARK 924 INTRA-LIGAND FREE ENERGY PREDICTED BY IDOCK:   -1.88 KCAL/MOL
REMARK 927      BINDING AFFINITY PREDICTED BY RF-SCORE:    0.00 PKD
ROOT
HETATM    1 MN   UNL     1      -9.313   4.947  69.931  1.00  0.00    -0.102 Mn 
HETATM    2  C   UNL     2      -7.321  11.986  67.372  1.00  0.00    -0.150 C  
HETATM    3  C   UNL     3      -8.441   3.364  71.783  1.00  0.00    -0.069 C  
HETATM    4  H   UNL     3      -8.631   1.622  72.619  1.00  0.00     0.000 HD 
HETATM    5  H   UNL     2      -7.283  10.179  66.744  1.00  0.00     0.000 HD 
HETATM    6  O   UNL     2      -7.136  11.027  66.343  1.00  0.00    -0.134 OA 
HETATM    7  O   UNL     3      -7.913   2.210  72.413  1.00  0.00    -0.051 OA 
ENDROOT
BRANCH   2   8
HETATM    8  C   UNL     2      -7.083  13.363  66.721  1.00  0.00     1.112 C  
HETATM    9  H   UNL     2      -7.290  15.282  67.164  1.00  0.00     0.000 HD 
HETATM   10  O   UNL     2      -7.436  14.434  67.565  1.00  0.00    -0.166 OA 
ENDBRANCH   2   8
BRANCH   2  11
HETATM   11  C   UNL     2      -6.359  11.630  68.575  1.00  0.00    -0.052 C  
HETATM   12  H   UNL     2      -4.589  12.185  69.250  1.00  0.00     0.000 HD 
HETATM   13  O   UNL     2      -5.167  12.399  68.527  1.00  0.00    -0.051 OA 
BRANCH  11  14
HETATM   14  C   UNL     2      -6.960  11.807  70.008  1.00  0.00     0.497 C  
HETATM   15  H   UNL     2      -6.628  12.963  71.507  1.00  0.00     0.000 HD 
HETATM   16  O   UNL     2      -6.263  12.856  70.637  1.00  0.00    -0.111 OA 
BRANCH  14  17
HETATM   17  C   UNL     2      -6.885  10.561  70.922  1.00  0.00     0.655 C  
HETATM   18  C   UNL     2      -8.169   9.752  70.865  1.00  0.00     0.462 C  
HETATM   19  H   UNL     2      -6.618  10.204  72.808  1.00  0.00     0.000 HD 
HETATM   20  O   UNL     2      -6.664  10.969  72.247  1.00  0.00     2.782 OA 
HETATM   21  O   UNL     2      -8.271   8.609  71.564  1.00  0.00    -0.145 OA 
HETATM   22  O   UNL     2      -9.101  10.079  70.131  1.00  0.00    -0.181 OA 
ENDBRANCH  14  17
ENDBRANCH  11  14
ENDBRANCH   2  11
BRANCH   3  23
HETATM   23  C   UNL     3      -9.594   3.875  72.736  1.00  0.00    -0.129 C  
HETATM   24  O   UNL     3      -8.962   4.792  73.599  1.00  0.00    -0.105 OA 
HETATM   25  H   UNL     3      -9.655   5.098  74.171  1.00  0.00     0.000 HD 
BRANCH  23  26
HETATM   26  C   UNL     3     -11.009   4.525  72.382  1.00  0.00     0.054 C  
HETATM   27  O   UNL     3     -10.956   4.728  70.991  1.00  0.00     0.189 OA 
HETATM   28  H   UNL     3     -11.797   5.115  70.781  1.00  0.00     0.000 HD 
BRANCH  26  29
HETATM   29  C   UNL     3     -11.598   5.907  72.948  1.00  0.00    -0.118 C  
HETATM   30  C   UNL     3     -12.755   6.580  72.263  1.00  0.00     0.037 C  
HETATM   31  O   UNL     3     -10.596   6.897  73.025  1.00  0.00    -0.233 OA 
HETATM   32  O   UNL     3     -12.619   7.068  71.017  1.00  0.00    -0.375 OA 
HETATM   33  O   UNL     3     -13.772   6.824  72.894  1.00  0.00     1.051 OA 
HETATM   34  H   UNL     3     -10.945   7.715  73.360  1.00  0.00     0.000 HD 
ENDBRANCH  26  29
ENDBRANCH  23  26
ENDBRANCH   3  23
BRANCH   3  35
HETATM   35  C   UNL     3      -7.256   4.333  71.444  1.00  0.00    -0.043 C  
HETATM   36  O   UNL     3      -7.685   5.646  71.232  1.00  0.00    -0.103 OA 
HETATM   37  H   UNL     3      -6.966   6.233  71.027  1.00  0.00     0.000 HD 
ENDBRANCH   3  35
TORSDOF 8
ENDMDL
MODEL      336
REMARK 921   NORMALIZED FREE ENERGY PREDICTED BY IDOCK:    3.93 KCAL/MOL
REMARK 922        TOTAL FREE ENERGY PREDICTED BY IDOCK:    4.10 KCAL/MOL
REMARK 923 INTER-LIGAND FREE ENERGY PREDICTED BY IDOCK:    3.88 KCAL/MOL
REMARK 924 INTRA-LIGAND FREE ENERGY PREDICTED BY IDOCK:    0.22 KCAL/MOL
REMARK 927      BINDING AFFINITY PREDICTED BY RF-SCORE:    0.00 PKD
ROOT
HETATM    1 MN   UNL     1     -10.305  16.638  69.608  1.00  0.00    -0.225 Mn 
HETATM    2  C   UNL     2      -5.930  10.554  71.585  1.00  0.00     0.501 C  
HETATM    3  C   UNL     3     -10.830  17.865  67.391  1.00  0.00    -0.204 C  
HETATM    4  H   UNL     3     -11.762  19.357  66.570  1.00  0.00     0.000 HD 
HETATM    5  H   UNL     2      -5.941  12.448  71.856  1.00  0.00     0.000 HD 
HETATM    6  O   UNL     2      -5.445  11.725  72.222  1.00  0.00    -0.150 OA 
HETATM    7  O   UNL     3     -10.938  18.904  66.433  1.00  0.00    -0.209 OA 
ENDROOT
BRANCH   2   8
HETATM    8  C   UNL     2      -5.125   9.381  72.179  1.00  0.00    -0.074 C  
HETATM    9  H   UNL     2      -5.443   7.567  72.908  1.00  0.00     0.000 HD 
HETATM   10  O   UNL     2      -5.939   8.290  72.542  1.00  0.00    -0.050 OA 
ENDBRANCH   2   8
BRANCH   2  11
HETATM   11  C   UNL     2      -5.805  10.738  70.021  1.00  0.00    -0.083 C  
HETATM   12  H   UNL     2      -5.724   9.596  68.413  1.00  0.00     0.000 HD 
HETATM   13  O   UNL     2      -5.798   9.485  69.353  1.00  0.00    -0.034 OA 
BRANCH  11  14
HETATM   14  C   UNL     2      -6.912  11.611  69.343  1.00  0.00    -0.051 C  
HETATM   15  H   UNL     2      -7.899  11.547  67.695  1.00  0.00     0.000 HD 
HETATM   16  O   UNL     2      -7.227  11.017  68.107  1.00  0.00    -0.079 OA 
BRANCH  14  17
HETATM   17  C   UNL     2      -6.531  13.089  69.086  1.00  0.00    -0.108 C  
HETATM   18  C   UNL     2      -7.148  13.605  67.797  1.00  0.00    -0.161 C  
HETATM   19  H   UNL     2      -4.901  14.107  68.838  1.00  0.00     0.000 HD 
HETATM   20  O   UNL     2      -5.134  13.200  68.996  1.00  0.00    -0.069 OA 
HETATM   21  O   UNL     2      -6.961  14.884  67.432  1.00  0.00    -0.189 OA 
HETATM   22  O   UNL     2      -7.884  12.898  67.110  1.00  0.00    -0.156 OA 
ENDBRANCH  14  17
ENDBRANCH  11  14
ENDBRANCH   2  11
BRANCH   3  23
HETATM   23  C   UNL     3     -12.178  17.046  67.280  1.00  0.00     2.738 C  
HETATM   24  O   UNL     3     -12.407  16.926  65.895  1.00  0.00     3.098 OA 
HETATM   25  H   UNL     3     -13.217  16.434  65.829  1.00  0.00     0.000 HD 
BRANCH  23  26
HETATM   26  C   UNL     3     -12.578  15.633  67.905  1.00  0.00     1.488 C  
HETATM   27  O   UNL     3     -13.013  15.943  69.206  1.00  0.00    -0.195 OA 
HETATM   28  H   UNL     3     -13.251  15.102  69.579  1.00  0.00     0.000 HD 
BRANCH  26  29
HETATM   29  C   UNL     3     -11.611  14.369  68.117  1.00  0.00    -0.329 C  
HETATM   30  C   UNL     3     -11.842  13.414  69.254  1.00  0.00    -0.334 C  
HETATM   31  O   UNL     3     -10.264  14.772  68.249  1.00  0.00    -0.220 OA 
HETATM   32  O   UNL     3     -11.700  13.824  70.527  1.00  0.00    -0.248 OA 
HETATM   33  O   UNL     3     -12.006  12.226  69.022  1.00  0.00    -0.300 OA 
HETATM   34  H   UNL     3      -9.692  14.024  68.375  1.00  0.00     0.000 HD 
ENDBRANCH  26  29
ENDBRANCH  23  26
ENDBRANCH   3  23
BRANCH   3  35
HETATM   35  C   UNL     3      -9.471  17.117  67.164  1.00  0.00    -0.248 C  
HETATM   36  O   UNL     3      -8.419  17.994  66.888  1.00  0.00    -0.234 OA 
HETATM   37  H   UNL     3      -7.596  17.541  66.751  1.00  0.00     0.000 HD 
ENDBRANCH   3  35
TORSDOF 8
ENDMDL
MODEL      337
REMARK 921   NORMALIZED FREE ENERGY PREDICTED BY IDOCK:    4.69 KCAL/MOL
REMARK 922        TOTAL FREE ENERGY PREDICTED BY IDOCK:    5.20 KCAL/MOL
REMARK 923 INTER-LIGAND FREE ENERGY PREDICTED BY IDOCK:    0.72 KCAL/MOL
REMARK 924 INTRA-LIGAND FREE ENERGY PREDICTED BY IDOCK:    4.48 KCAL/MOL
REMARK 927      BINDING AFFINITY PREDICTED BY RF-SCORE:    0.00 PKD
ROOT
HETATM    1 MN   UNL     1      -9.343  15.281  66.715  1.00  0.00    -0.185 Mn 
HETATM    2  C   UNL     2     -10.119   9.396  71.697  1.00  0.00     0.007 C  
HETATM    3  C   UNL     3     -10.896  16.434  64.997  1.00  0.00    -0.273 C  
HETATM    4  H   UNL     3     -11.027  17.800  63.623  1.00  0.00     0.000 HD 
HETATM    5  H   UNL     2      -9.163   9.780  70.085  1.00  0.00     0.000 HD 
HETATM    6  O   UNL     2      -9.132   9.081  70.728  1.00  0.00    -0.202 OA 
HETATM    7  O   UNL     3     -11.387  16.932  63.764  1.00  0.00    -0.643 OA 
ENDROOT
BRANCH   2   8
HETATM    8  C   UNL     2     -10.069   8.262  72.740  1.00  0.00    -0.263 C  
HETATM    9  H   UNL     2      -8.931   7.665  74.248  1.00  0.00     0.000 HD 
HETATM   10  O   UNL     2      -8.962   8.364  73.605  1.00  0.00    -0.195 OA 
ENDBRANCH   2   8
BRANCH   2  11
HETATM   11  C   UNL     2     -11.507   9.583  70.966  1.00  0.00    -0.349 C  
HETATM   12  H   UNL     2     -13.065  10.792  71.065  1.00  0.00     0.000 HD 
HETATM   13  O   UNL     2     -12.230  10.679  71.505  1.00  0.00    -0.335 OA 
BRANCH  11  14
HETATM   14  C   UNL     2     -11.443   9.794  69.418  1.00  0.00     0.034 C  
HETATM   15  H   UNL     2     -11.558   8.662  67.868  1.00  0.00     0.000 HD 
HETATM   16  O   UNL     2     -11.597   8.534  68.808  1.00  0.00     0.782 OA 
BRANCH  14  17
HETATM   17  C   UNL     2     -10.139  10.432  68.884  1.00  0.00    -0.201 C  
HETATM   18  C   UNL     2     -10.125  10.481  67.367  1.00  0.00    -0.197 C  
HETATM   19  H   UNL     2      -8.238  10.070  68.997  1.00  0.00     0.000 HD 
HETATM   20  O   UNL     2      -9.039   9.678  69.324  1.00  0.00    -0.152 OA 
HETATM   21  O   UNL     2      -9.086  11.043  66.725  1.00  0.00    -0.157 OA 
HETATM   22  O   UNL     2     -11.082  10.084  66.703  1.00  0.00     0.021 OA 
ENDBRANCH  14  17
ENDBRANCH  11  14
ENDBRANCH   2  11
BRANCH   3  23
HETATM   23  C   UNL     3     -11.198  17.566  66.059  1.00  0.00     0.778 C  
HETATM   24  O   UNL     3     -11.589  16.870  67.219  1.00  0.00     0.445 OA 
HETATM   25  H   UNL     3     -11.771  17.550  67.856  1.00  0.00     0.000 HD 
BRANCH  23  26
HETATM   26  C   UNL     3     -10.281  18.769  66.569  1.00  0.00    -0.413 C  
HETATM   27  O   UNL     3      -9.142  18.706  65.746  1.00  0.00    -0.402 OA 
HETATM   28  H   UNL     3      -8.596  19.422  66.050  1.00  0.00     0.000 HD 
BRANCH  26  29
HETATM   29  C   UNL     3      -9.676  18.955  68.045  1.00  0.00    -0.337 C  
HETATM   30  C   UNL     3     -10.571  18.886  69.250  1.00  0.00     0.700 C  
HETATM   31  O   UNL     3      -8.996  20.186  68.167  1.00  0.00    -0.253 OA 
HETATM   32  O   UNL     3     -11.522  19.817  69.447  1.00  0.00     2.595 OA 
HETATM   33  O   UNL     3     -10.335  18.075  70.133  1.00  0.00     0.605 OA 
HETATM   34  H   UNL     3      -8.639  20.296  69.041  1.00  0.00     0.000 HD 
ENDBRANCH  26  29
ENDBRANCH  23  26
ENDBRANCH   3  23
BRANCH   3  35
HETATM   35  C   UNL     3     -11.490  15.002  65.229  1.00  0.00    -0.308 C  
HETATM   36  O   UNL     3     -10.587  13.990  64.895  1.00  0.00    -0.379 OA 
HETATM   37  H   UNL     3     -10.947  13.122  65.036  1.00  0.00     0.000 HD 
ENDBRANCH   3  35
TORSDOF 8
ENDMDL
MODEL      338
REMARK 921   NORMALIZED FREE ENERGY PREDICTED BY IDOCK:   10.76 KCAL/MOL
REMARK 922        TOTAL FREE ENERGY PREDICTED BY IDOCK:   14.11 KCAL/MOL
REMARK 923 INTER-LIGAND FREE ENERGY PREDICTED BY IDOCK:   13.32 KCAL/MOL
REMARK 924 INTRA-LIGAND FREE ENERGY PREDICTED BY IDOCK:    0.80 KCAL/MOL
REMARK 927      BINDING AFFINITY PREDICTED BY RF-SCORE:    0.00 PKD
ROOT
HETATM    1 MN   UNL     1     -13.015   9.208  71.148  1.00  0.00    -0.307 Mn 
HETATM    2  C   UNL     2      -9.476  12.738  65.226  1.00  0.00     0.238 C  
HETATM    3  C   UNL     3     -12.995   6.809  72.119  1.00  0.00    -0.009 C  
HETATM    4  H   UNL     3     -13.742   5.618  73.458  1.00  0.00     0.000 HD 
HETATM    5  H   UNL     2     -11.247  12.198  65.710  1.00  0.00     0.000 HD 
HETATM    6  O   UNL     2     -10.880  12.739  65.020  1.00  0.00    -0.277 OA 
HETATM    7  O   UNL     3     -13.454   5.541  72.555  1.00  0.00     0.426 OA 
ENDROOT
BRANCH   2   8
HETATM    8  C   UNL     2      -8.880  13.616  64.108  1.00  0.00     5.367 C  
HETATM    9  H   UNL     2      -9.438  14.435  62.393  1.00  0.00     0.000 HD 
HETATM   10  O   UNL     2      -9.805  13.895  63.082  1.00  0.00     3.872 OA 
ENDBRANCH   2   8
BRANCH   2  11
HETATM   11  C   UNL     2      -8.968  11.243  65.257  1.00  0.00    -0.068 C  
HETATM   12  H   UNL     2      -8.242   9.915  63.989  1.00  0.00     0.000 HD 
HETATM   13  O   UNL     2      -8.548  10.814  63.971  1.00  0.00    -0.136 OA 
BRANCH  11  14
HETATM   14  C   UNL     2      -7.796  10.937  66.247  1.00  0.00    -0.158 C  
HETATM   15  H   UNL     2      -5.925  11.367  66.339  1.00  0.00     0.000 HD 
HETATM   16  O   UNL     2      -6.637  11.552  65.739  1.00  0.00     0.294 OA 
BRANCH  14  17
HETATM   17  C   UNL     2      -7.487   9.438  66.473  1.00  0.00    -0.093 C  
HETATM   18  C   UNL     2      -6.153   9.245  67.171  1.00  0.00    -0.057 C  
HETATM   19  H   UNL     2      -7.261   7.859  65.372  1.00  0.00     0.000 HD 
HETATM   20  O   UNL     2      -7.450   8.779  65.233  1.00  0.00    -0.083 OA 
HETATM   21  O   UNL     2      -5.737   8.007  67.489  1.00  0.00    -0.036 OA 
HETATM   22  O   UNL     2      -5.469  10.205  67.524  1.00  0.00    -0.041 OA 
ENDBRANCH  14  17
ENDBRANCH  11  14
ENDBRANCH   2  11
BRANCH   3  23
HETATM   23  C   UNL     3     -11.955   7.281  73.213  1.00  0.00     0.868 C  
HETATM   24  O   UNL     3     -12.451   6.756  74.423  1.00  0.00     4.974 OA 
HETATM   25  H   UNL     3     -11.827   7.040  75.080  1.00  0.00     0.000 HD 
BRANCH  23  26
HETATM   26  C   UNL     3     -10.372   7.089  73.279  1.00  0.00    -0.309 C  
HETATM   27  O   UNL     3     -10.168   6.304  74.428  1.00  0.00    -0.319 OA 
HETATM   28  H   UNL     3      -9.226   6.190  74.468  1.00  0.00     0.000 HD 
BRANCH  26  29
HETATM   29  C   UNL     3      -9.269   8.248  73.407  1.00  0.00    -0.151 C  
HETATM   30  C   UNL     3      -8.344   8.551  72.262  1.00  0.00    -0.117 C  
HETATM   31  O   UNL     3      -8.420   8.026  74.513  1.00  0.00    -0.404 OA 
HETATM   32  O   UNL     3      -7.440   7.641  71.859  1.00  0.00    -0.076 OA 
HETATM   33  O   UNL     3      -8.304   9.681  71.799  1.00  0.00     0.261 OA 
HETATM   34  H   UNL     3      -7.767   8.713  74.588  1.00  0.00     0.000 HD 
ENDBRANCH  26  29
ENDBRANCH  23  26
ENDBRANCH   3  23
BRANCH   3  35
HETATM   35  C   UNL     3     -12.519   6.681  70.630  1.00  0.00     0.018 C  
HETATM   36  O   UNL     3     -12.130   7.909  70.088  1.00  0.00    -0.358 OA 
HETATM   37  H   UNL     3     -11.842   7.832  69.186  1.00  0.00     0.000 HD 
ENDBRANCH   3  35
TORSDOF 8
ENDMDL
MODEL      339
REMARK 921   NORMALIZED FREE ENERGY PREDICTED BY IDOCK:   12.77 KCAL/MOL
REMARK 922        TOTAL FREE ENERGY PREDICTED BY IDOCK:   17.06 KCAL/MOL
REMARK 923 INTER-LIGAND FREE ENERGY PREDICTED BY IDOCK:   16.56 KCAL/MOL
REMARK 924 INTRA-LIGAND FREE ENERGY PREDICTED BY IDOCK:    0.51 KCAL/MOL
REMARK 927      BINDING AFFINITY PREDICTED BY RF-SCORE:    0.00 PKD
ROOT
HETATM    1 MN   UNL     1      -8.592  11.360  69.344  1.00  0.00    -0.263 Mn 
HETATM    2  C   UNL     2     -10.942  17.649  65.472  1.00  0.00     0.214 C  
HETATM    3  C   UNL     3      -6.314  10.506  70.226  1.00  0.00    -0.137 C  
HETATM    4  H   UNL     3      -5.389   9.053  71.122  1.00  0.00     0.000 HD 
HETATM    5  H   UNL     2     -10.769  15.769  65.163  1.00  0.00     0.000 HD 
HETATM    6  O   UNL     2     -11.178  16.487  64.694  1.00  0.00    -0.626 OA 
HETATM    7  O   UNL     3      -5.189   9.668  70.425  1.00  0.00    -0.030 OA 
ENDROOT
BRANCH   2   8
HETATM    8  C   UNL     2     -11.605  18.814  64.711  1.00  0.00     3.869 C  
HETATM    9  H   UNL     2     -11.844  20.772  64.887  1.00  0.00     0.000 HD 
HETATM   10  O   UNL     2     -11.436  20.054  65.357  1.00  0.00     0.086 OA 
ENDBRANCH   2   8
BRANCH   2  11
HETATM   11  C   UNL     2      -9.387  17.794  65.710  1.00  0.00     0.291 C  
HETATM   12  H   UNL     2      -8.022  19.220  65.655  1.00  0.00     0.000 HD 
HETATM   13  O   UNL     2      -8.957  19.132  65.512  1.00  0.00    -0.146 OA 
BRANCH  11  14
HETATM   14  C   UNL     2      -8.864  17.350  67.116  1.00  0.00    -0.232 C  
HETATM   15  H   UNL     2      -7.857  18.170  68.533  1.00  0.00     0.000 HD 
HETATM   16  O   UNL     2      -8.175  18.440  67.679  1.00  0.00    -0.249 OA 
BRANCH  14  17
HETATM   17  C   UNL     2      -7.918  16.126  67.120  1.00  0.00    -0.199 C  
HETATM   18  C   UNL     2      -8.684  14.833  67.341  1.00  0.00    -0.198 C  
HETATM   19  H   UNL     2      -6.391  15.522  68.150  1.00  0.00     0.000 HD 
HETATM   20  O   UNL     2      -6.972  16.273  68.147  1.00  0.00    -0.122 OA 
HETATM   21  O   UNL     2      -8.030  13.658  67.333  1.00  0.00    -0.171 OA 
HETATM   22  O   UNL     2      -9.909  14.824  67.455  1.00  0.00    -0.220 OA 
ENDBRANCH  14  17
ENDBRANCH  11  14
ENDBRANCH   2  11
BRANCH   3  23
HETATM   23  C   UNL     3      -6.679  11.070  71.658  1.00  0.00     2.992 C  
HETATM   24  O   UNL     3      -6.421  10.000  72.537  1.00  0.00     0.387 OA 
HETATM   25  H   UNL     3      -6.641  10.339  73.397  1.00  0.00     0.000 HD 
BRANCH  23  26
HETATM   26  C   UNL     3      -6.160  12.378  72.410  1.00  0.00     2.821 C  
HETATM   27  O   UNL     3      -7.329  12.960  72.935  1.00  0.00     7.045 OA 
HETATM   28  H   UNL     3      -7.020  13.738  73.382  1.00  0.00     0.000 HD 
BRANCH  26  29
HETATM   29  C   UNL     3      -5.379  13.617  71.753  1.00  0.00    -0.196 C  
HETATM   30  C   UNL     3      -5.932  15.011  71.859  1.00  0.00     0.605 C  
HETATM   31  O   UNL     3      -5.168  13.414  70.372  1.00  0.00    -0.096 OA 
HETATM   32  O   UNL     3      -7.091  15.331  71.256  1.00  0.00     1.211 OA 
HETATM   33  O   UNL     3      -5.255  15.894  72.361  1.00  0.00     0.021 OA 
HETATM   34  H   UNL     3      -4.706  14.148  69.983  1.00  0.00     0.000 HD 
ENDBRANCH  26  29
ENDBRANCH  23  26
ENDBRANCH   3  23
BRANCH   3  35
HETATM   35  C   UNL     3      -5.984  11.519  69.076  1.00  0.00    -0.052 C  
HETATM   36  O   UNL     3      -6.212  10.979  67.808  1.00  0.00    -0.050 OA 
HETATM   37  H   UNL     3      -6.012  11.593  67.111  1.00  0.00     0.000 HD 
ENDBRANCH   3  35
TORSDOF 8
ENDMDL
MODEL      340
REMARK 921   NORMALIZED FREE ENERGY PREDICTED BY IDOCK:   13.93 KCAL/MOL
REMARK 922        TOTAL FREE ENERGY PREDICTED BY IDOCK:   18.77 KCAL/MOL
REMARK 923 INTER-LIGAND FREE ENERGY PREDICTED BY IDOCK:   18.00 KCAL/MOL
REMARK 924 INTRA-LIGAND FREE ENERGY PREDICTED BY IDOCK:    0.77 KCAL/MOL
REMARK 927      BINDING AFFINITY PREDICTED BY RF-SCORE:    0.00 PKD
ROOT
HETATM    1 MN   UNL     1      -8.554  12.333  68.811  1.00  0.00    -0.143 Mn 
HETATM    2  C   UNL     2     -10.904  18.622  64.939  1.00  0.00     1.764 C  
HETATM    3  C   UNL     3      -6.277  11.478  69.693  1.00  0.00    -0.124 C  
HETATM    4  H   UNL     3      -5.351  10.026  70.590  1.00  0.00     0.000 HD 
HETATM    5  H   UNL     2     -10.731  16.741  64.630  1.00  0.00     0.000 HD 
HETATM    6  O   UNL     2     -11.140  17.459  64.161  1.00  0.00    -0.323 OA 
HETATM    7  O   UNL     3      -5.151  10.640  69.892  1.00  0.00    -0.038 OA 
ENDROOT
BRANCH   2   8
HETATM    8  C   UNL     2     -11.567  19.787  64.178  1.00  0.00     5.811 C  
HETATM    9  H   UNL     2     -11.806  21.745  64.354  1.00  0.00     0.000 HD 
HETATM   10  O   UNL     2     -11.398  21.027  64.824  1.00  0.00     1.292 OA 
ENDBRANCH   2   8
BRANCH   2  11
HETATM   11  C   UNL     2      -9.349  18.767  65.177  1.00  0.00     2.322 C  
HETATM   12  H   UNL     2      -7.984  20.192  65.122  1.00  0.00     0.000 HD 
HETATM   13  O   UNL     2      -8.919  20.105  64.979  1.00  0.00     0.407 OA 
BRANCH  11  14
HETATM   14  C   UNL     2      -8.827  18.322  66.583  1.00  0.00    -0.284 C  
HETATM   15  H   UNL     2      -9.631  17.806  68.251  1.00  0.00     0.000 HD 
HETATM   16  O   UNL     2      -9.948  18.076  67.397  1.00  0.00    -0.302 OA 
BRANCH  14  17
HETATM   17  C   UNL     2      -7.917  19.341  67.309  1.00  0.00    -0.260 C  
HETATM   18  C   UNL     2      -6.449  19.077  67.025  1.00  0.00    -0.194 C  
HETATM   19  H   UNL     2      -7.575  19.879  69.140  1.00  0.00     0.000 HD 
HETATM   20  O   UNL     2      -8.133  19.253  68.694  1.00  0.00    -0.351 OA 
HETATM   21  O   UNL     2      -5.510  19.890  67.539  1.00  0.00    -0.170 OA 
HETATM   22  O   UNL     2      -6.094  18.173  66.268  1.00  0.00    -0.162 OA 
ENDBRANCH  14  17
ENDBRANCH  11  14
ENDBRANCH   2  11
BRANCH   3  23
HETATM   23  C   UNL     3      -6.641  12.042  71.125  1.00  0.00     2.436 C  
HETATM   24  O   UNL     3      -6.383  10.972  72.004  1.00  0.00     0.925 OA 
HETATM   25  H   UNL     3      -6.603  11.311  72.864  1.00  0.00     0.000 HD 
BRANCH  23  26
HETATM   26  C   UNL     3      -6.123  13.351  71.877  1.00  0.00     1.030 C  
HETATM   27  O   UNL     3      -7.291  13.932  72.402  1.00  0.00     2.863 OA 
HETATM   28  H   UNL     3      -6.983  14.711  72.849  1.00  0.00     0.000 HD 
BRANCH  26  29
HETATM   29  C   UNL     3      -5.342  14.590  71.220  1.00  0.00    -0.156 C  
HETATM   30  C   UNL     3      -5.895  15.984  71.327  1.00  0.00     0.617 C  
HETATM   31  O   UNL     3      -5.130  14.387  69.839  1.00  0.00    -0.092 OA 
HETATM   32  O   UNL     3      -7.053  16.304  70.723  1.00  0.00     1.544 OA 
HETATM   33  O   UNL     3      -5.217  16.867  71.828  1.00  0.00    -0.248 OA 
HETATM   34  H   UNL     3      -4.668  15.121  69.450  1.00  0.00     0.000 HD 
ENDBRANCH  26  29
ENDBRANCH  23  26
ENDBRANCH   3  23
BRANCH   3  35
HETATM   35  C   UNL     3      -5.946  12.492  68.544  1.00  0.00    -0.056 C  
HETATM   36  O   UNL     3      -6.174  11.952  67.275  1.00  0.00    -0.109 OA 
HETATM   37  H   UNL     3      -5.974  12.566  66.578  1.00  0.00     0.000 HD 
ENDBRANCH   3  35
TORSDOF 8
ENDMDL
