MODEL        1
REMARK 921   NORMALIZED FREE ENERGY PREDICTED BY IDOCK:   -6.89 KCAL/MOL
REMARK 922        TOTAL FREE ENERGY PREDICTED BY IDOCK:  -13.18 KCAL/MOL
REMARK 923 INTER-LIGAND FREE ENERGY PREDICTED BY IDOCK:  -11.31 KCAL/MOL
REMARK 924 INTRA-LIGAND FREE ENERGY PREDICTED BY IDOCK:   -1.86 KCAL/MOL
REMARK 927      BINDING AFFINITY PREDICTED BY RF-SCORE:    0.00 PKD
ROOT
HETATM    1  C   UNL     1      -8.304   2.675  72.244  1.00  0.00    -0.059 C  
HETATM    2  O   UNL     1      -9.168   3.783  71.976  1.00  0.00    -0.112 OA 
ENDROOT
BRANCH   2   3
HETATM    3  C   UNL     1      -8.500   4.936  71.719  1.00  0.00    -0.123 C  
HETATM    4  O   UNL     1      -8.054   5.690  72.575  1.00  0.00    -0.103 OA 
BRANCH   3   5
HETATM    5  C   UNL     1      -8.421   5.181  70.255  1.00  0.00    -0.103 C  
HETATM    6  C   UNL     1      -7.299   4.883  69.549  1.00  0.00    -0.056 C  
HETATM    7  N   UNL     1      -7.247   5.169  68.192  1.00  0.00    -0.066 NA 
HETATM    8  C   UNL     1      -6.032   4.261  70.078  1.00  0.00    -0.018 C  
HETATM    9  C   UNL     1      -8.178   5.928  67.515  1.00  0.00    -0.105 C  
HETATM   10  C   UNL     1      -7.797   6.354  66.116  1.00  0.00    -0.102 C  
HETATM   11  C   UNL     1      -9.335   6.264  68.128  1.00  0.00    -0.115 C  
HETATM   12  C   UNL     1      -9.635   5.822  69.565  1.00  0.00    -0.181 C  
BRANCH  11  13
HETATM   13  C   UNL     1     -10.260   7.202  67.459  1.00  0.00    -0.212 C  
HETATM   14  O   UNL     1     -11.366   6.882  67.046  1.00  0.00    -0.304 OA 
BRANCH  13  15
HETATM   15  O   UNL     1      -9.709   8.439  67.347  1.00  0.00    -0.152 OA 
BRANCH  15  16
HETATM   16  C   UNL     1     -10.685   9.500  67.409  1.00  0.00    -0.227 C  
BRANCH  16  17
HETATM   17  C   UNL     1     -10.051  10.804  66.900  1.00  0.00    -0.212 C  
BRANCH  17  18
HETATM   18  N   UNL     1      -9.493  11.705  67.923  1.00  0.00    -0.175 NA 
HETATM   19  C   UNL     1     -10.531  13.909  67.148  1.00  0.00    -0.269 C  
HETATM   20  C   UNL     1      -9.252  13.073  67.413  1.00  0.00    -0.208 C  
HETATM   21  N   UNL     1     -11.426  14.038  68.327  1.00  0.00    -0.285 NA 
HETATM   22  C   UNL     1     -10.438  11.786  69.066  1.00  0.00    -0.099 C  
HETATM   23  C   UNL     1     -11.698  12.658  68.809  1.00  0.00    -0.323 C  
BRANCH  21  24
HETATM   24  C   UNL     1     -10.826  14.903  69.389  1.00  0.00    -0.264 C  
BRANCH  24  25
HETATM   25  C   UNL     1     -10.181  16.186  68.836  1.00  0.00    -0.245 A  
HETATM   26  C   UNL     1      -8.777  16.314  68.835  1.00  0.00    -0.253 A  
HETATM   27  C   UNL     1     -10.934  17.232  68.279  1.00  0.00    -0.188 A  
HETATM   28  C   UNL     1      -8.156  17.448  68.306  1.00  0.00    -0.249 A  
HETATM   29  C   UNL     1      -8.924  18.484  67.781  1.00  0.00    -0.289 A  
HETATM   30  C   UNL     1     -10.312  18.376  67.770  1.00  0.00    -0.428 A  
ENDBRANCH  24  25
BRANCH  24  31
HETATM   31  C   UNL     1     -11.811  15.185  70.534  1.00  0.00    -0.361 A  
HETATM   32  C   UNL     1     -13.579  15.425  72.709  1.00  0.00    -0.628 A  
HETATM   33  C   UNL     1     -14.078  15.331  71.413  1.00  0.00    -0.595 A  
HETATM   34  C   UNL     1     -11.325  15.303  71.850  1.00  0.00    -0.447 A  
HETATM   35  C   UNL     1     -13.202  15.207  70.333  1.00  0.00    -0.169 A  
HETATM   36  C   UNL     1     -12.204  15.412  72.928  1.00  0.00    -0.529 A  
ENDBRANCH  24  31
ENDBRANCH  21  24
ENDBRANCH  17  18
ENDBRANCH  16  17
ENDBRANCH  15  16
ENDBRANCH  13  15
ENDBRANCH  11  13
BRANCH  12  37
HETATM   37  C   UNL     1     -10.237   6.982  70.374  1.00  0.00    -0.209 A  
HETATM   38  C   UNL     1     -10.058   9.201  71.350  1.00  0.00    -0.392 A  
HETATM   39  O   UNL     1     -14.261   7.020  71.391  1.00  0.00    -0.325 OA 
HETATM   40  C   UNL     1     -11.606   6.959  70.712  1.00  0.00    -0.397 A  
HETATM   41  O   UNL     1     -14.088   9.021  72.271  1.00  0.00    -0.447 OA 
HETATM   42  C   UNL     1     -12.184   8.057  71.360  1.00  0.00    -0.309 A  
HETATM   43  C   UNL     1     -11.416   9.184  71.672  1.00  0.00    -0.451 A  
HETATM   44  N   UNL     1     -13.615   8.030  71.697  1.00  0.00    -0.352 N  
HETATM   45  C   UNL     1      -9.470   8.105  70.717  1.00  0.00    -0.180 A  
ENDBRANCH  12  37
ENDBRANCH   3   5
ENDBRANCH   2   3
TORSDOF 11
ENDMDL
MODEL        2
REMARK 921   NORMALIZED FREE ENERGY PREDICTED BY IDOCK:   -6.79 KCAL/MOL
REMARK 922        TOTAL FREE ENERGY PREDICTED BY IDOCK:  -13.02 KCAL/MOL
REMARK 923 INTER-LIGAND FREE ENERGY PREDICTED BY IDOCK:  -11.29 KCAL/MOL
REMARK 924 INTRA-LIGAND FREE ENERGY PREDICTED BY IDOCK:   -1.73 KCAL/MOL
REMARK 927      BINDING AFFINITY PREDICTED BY RF-SCORE:    0.00 PKD
ROOT
HETATM    1  C   UNL     1      -8.386   5.429  70.614  1.00  0.00    -0.115 C  
HETATM    2  O   UNL     1      -9.146   6.597  70.290  1.00  0.00    -0.154 OA 
ENDROOT
BRANCH   2   3
HETATM    3  C   UNL     1      -8.695   7.719  70.906  1.00  0.00    -0.137 C  
HETATM    4  O   UNL     1      -7.550   7.884  71.306  1.00  0.00    -0.075 OA 
BRANCH   3   5
HETATM    5  C   UNL     1      -9.795   8.707  71.067  1.00  0.00    -0.267 C  
HETATM    6  C   UNL     1     -10.760   8.542  72.010  1.00  0.00    -0.340 C  
HETATM    7  N   UNL     1     -11.795   9.461  72.098  1.00  0.00    -0.235 NA 
HETATM    8  C   UNL     1     -10.864   7.425  73.017  1.00  0.00    -0.423 C  
HETATM    9  C   UNL     1     -12.052  10.444  71.167  1.00  0.00    -0.386 C  
HETATM   10  C   UNL     1     -13.378  11.156  71.301  1.00  0.00    -0.044 C  
HETATM   11  C   UNL     1     -11.145  10.695  70.197  1.00  0.00    -0.341 C  
HETATM   12  C   UNL     1      -9.834   9.905  70.106  1.00  0.00    -0.272 C  
BRANCH  11  13
HETATM   13  C   UNL     1     -11.489  11.639  69.113  1.00  0.00    -0.300 C  
HETATM   14  O   UNL     1     -12.206  11.350  68.166  1.00  0.00    -0.602 OA 
BRANCH  13  15
HETATM   15  O   UNL     1     -10.885  12.842  69.301  1.00  0.00    -0.133 OA 
BRANCH  15  16
HETATM   16  C   UNL     1     -11.712  13.956  68.904  1.00  0.00    -0.337 C  
BRANCH  16  17
HETATM   17  C   UNL     1     -11.074  14.658  67.694  1.00  0.00    -0.304 C  
BRANCH  17  18
HETATM   18  N   UNL     1     -10.809  16.100  67.838  1.00  0.00    -0.330 NA 
HETATM   19  C   UNL     1      -8.477  15.990  68.881  1.00  0.00    -0.232 C  
HETATM   20  C   UNL     1      -9.964  16.413  69.013  1.00  0.00    -0.267 C  
HETATM   21  N   UNL     1      -7.790  16.553  67.692  1.00  0.00    -0.155 NA 
HETATM   22  C   UNL     1     -10.121  16.591  66.617  1.00  0.00    -0.294 C  
HETATM   23  C   UNL     1      -8.621  16.199  66.511  1.00  0.00    -0.306 C  
BRANCH  21  24
HETATM   24  C   UNL     1      -7.578  18.029  67.816  1.00  0.00    -0.220 C  
BRANCH  24  25
HETATM   25  C   UNL     1      -6.795  18.426  69.080  1.00  0.00    -0.280 A  
HETATM   26  C   UNL     1      -5.931  17.492  69.686  1.00  0.00    -0.252 A  
HETATM   27  C   UNL     1      -6.865  19.712  69.639  1.00  0.00    -0.308 A  
HETATM   28  C   UNL     1      -5.176  17.832  70.811  1.00  0.00    -0.278 A  
HETATM   29  C   UNL     1      -5.280  19.105  71.363  1.00  0.00    -0.336 A  
HETATM   30  C   UNL     1      -6.126  20.044  70.779  1.00  0.00    -0.327 A  
ENDBRANCH  24  25
BRANCH  24  31
HETATM   31  C   UNL     1      -6.987  18.642  66.538  1.00  0.00    -0.240 A  
HETATM   32  C   UNL     1      -5.685  19.860  64.362  1.00  0.00    -0.282 A  
HETATM   33  C   UNL     1      -6.800  20.466  64.934  1.00  0.00    -0.226 A  
HETATM   34  C   UNL     1      -5.871  18.035  65.933  1.00  0.00    -0.248 A  
HETATM   35  C   UNL     1      -7.444  19.865  66.018  1.00  0.00    -0.338 A  
HETATM   36  C   UNL     1      -5.221  18.645  64.859  1.00  0.00    -0.217 A  
ENDBRANCH  24  31
ENDBRANCH  21  24
ENDBRANCH  17  18
ENDBRANCH  16  17
ENDBRANCH  15  16
ENDBRANCH  13  15
ENDBRANCH  11  13
BRANCH  12  37
HETATM   37  C   UNL     1      -9.538   9.511  68.650  1.00  0.00    -0.151 A  
HETATM   38  C   UNL     1     -10.148   8.345  66.605  1.00  0.00    -0.358 A  
HETATM   39  O   UNL     1      -6.440  11.292  66.538  1.00  0.00    -0.130 OA 
HETATM   40  C   UNL     1      -8.472  10.128  67.965  1.00  0.00    -0.118 A  
HETATM   41  O   UNL     1      -6.997  10.234  64.699  1.00  0.00    -0.133 OA 
HETATM   42  C   UNL     1      -8.259   9.850  66.609  1.00  0.00    -0.121 A  
HETATM   43  C   UNL     1      -9.100   8.967  65.923  1.00  0.00    -0.264 A  
HETATM   44  N   UNL     1      -7.152  10.508  65.898  1.00  0.00    -0.134 N  
HETATM   45  C   UNL     1     -10.358   8.606  67.961  1.00  0.00    -0.277 A  
ENDBRANCH  12  37
ENDBRANCH   3   5
ENDBRANCH   2   3
TORSDOF 11
ENDMDL
MODEL        3
REMARK 921   NORMALIZED FREE ENERGY PREDICTED BY IDOCK:   -6.69 KCAL/MOL
REMARK 922        TOTAL FREE ENERGY PREDICTED BY IDOCK:  -12.86 KCAL/MOL
REMARK 923 INTER-LIGAND FREE ENERGY PREDICTED BY IDOCK:  -11.70 KCAL/MOL
REMARK 924 INTRA-LIGAND FREE ENERGY PREDICTED BY IDOCK:   -1.16 KCAL/MOL
REMARK 927      BINDING AFFINITY PREDICTED BY RF-SCORE:    0.00 PKD
ROOT
HETATM    1  C   UNL     1     -10.430   4.471  65.772  1.00  0.00    -0.233 C  
HETATM    2  O   UNL     1     -10.330   5.592  66.654  1.00  0.00    -0.213 OA 
ENDROOT
BRANCH   2   3
HETATM    3  C   UNL     1      -9.067   6.077  66.768  1.00  0.00    -0.131 C  
HETATM    4  O   UNL     1      -8.262   5.733  67.623  1.00  0.00    -0.102 OA 
BRANCH   3   5
HETATM    5  C   UNL     1      -8.809   7.115  65.736  1.00  0.00    -0.090 C  
HETATM    6  C   UNL     1      -7.926   6.902  64.725  1.00  0.00    -0.119 C  
HETATM    7  N   UNL     1      -7.679   7.913  63.808  1.00  0.00    -0.129 NA 
HETATM    8  C   UNL     1      -7.129   5.649  64.465  1.00  0.00    -0.053 C  
HETATM    9  C   UNL     1      -8.108   9.216  63.941  1.00  0.00    -0.155 C  
HETATM   10  C   UNL     1      -7.502  10.217  62.985  1.00  0.00    -0.144 C  
HETATM   11  C   UNL     1      -8.999   9.526  64.909  1.00  0.00    -0.264 C  
HETATM   12  C   UNL     1      -9.543   8.459  65.865  1.00  0.00    -0.119 C  
BRANCH  11  13
HETATM   13  C   UNL     1      -9.340  10.944  65.150  1.00  0.00    -0.218 C  
HETATM   14  O   UNL     1      -8.713  11.671  65.906  1.00  0.00    -0.127 OA 
BRANCH  13  15
HETATM   15  O   UNL     1     -10.442  11.310  64.445  1.00  0.00    -0.301 OA 
BRANCH  15  16
HETATM   16  C   UNL     1     -10.377  12.667  63.960  1.00  0.00    -0.389 C  
BRANCH  16  17
HETATM   17  C   UNL     1     -11.799  13.172  63.666  1.00  0.00    -0.488 C  
BRANCH  17  18
HETATM   18  N   UNL     1     -12.295  14.266  64.518  1.00  0.00    -0.615 NA 
HETATM   19  C   UNL     1     -11.981  13.182  66.812  1.00  0.00    -0.373 C  
HETATM   20  C   UNL     1     -12.947  13.780  65.755  1.00  0.00    -0.256 C  
HETATM   21  N   UNL     1     -10.893  14.102  67.229  1.00  0.00    -0.282 NA 
HETATM   22  C   UNL     1     -11.156  15.142  64.896  1.00  0.00    -0.414 C  
HETATM   23  C   UNL     1     -10.216  14.554  65.984  1.00  0.00    -0.315 C  
BRANCH  21  24
HETATM   24  C   UNL     1     -11.411  15.245  68.042  1.00  0.00    -0.338 C  
BRANCH  24  25
HETATM   25  C   UNL     1     -12.066  14.805  69.362  1.00  0.00    -0.305 A  
HETATM   26  C   UNL     1     -11.966  13.461  69.775  1.00  0.00    -0.396 A  
HETATM   27  C   UNL     1     -12.731  15.704  70.212  1.00  0.00    -0.248 A  
HETATM   28  C   UNL     1     -12.517  13.036  70.987  1.00  0.00    -0.385 A  
HETATM   29  C   UNL     1     -13.192  13.939  71.803  1.00  0.00    -0.455 A  
HETATM   30  C   UNL     1     -13.301  15.272  71.414  1.00  0.00    -0.573 A  
ENDBRANCH  24  25
BRANCH  24  31
HETATM   31  C   UNL     1     -10.353  16.341  68.245  1.00  0.00    -0.272 A  
HETATM   32  C   UNL     1      -8.365  18.329  68.333  1.00  0.00    -0.323 A  
HETATM   33  C   UNL     1      -8.087  17.045  68.793  1.00  0.00    -0.250 A  
HETATM   34  C   UNL     1     -10.622  17.650  67.804  1.00  0.00    -0.380 A  
HETATM   35  C   UNL     1      -9.072  16.056  68.746  1.00  0.00    -0.222 A  
HETATM   36  C   UNL     1      -9.631  18.633  67.840  1.00  0.00    -0.340 A  
ENDBRANCH  24  31
ENDBRANCH  21  24
ENDBRANCH  17  18
ENDBRANCH  16  17
ENDBRANCH  15  16
ENDBRANCH  13  15
ENDBRANCH  11  13
BRANCH  12  37
HETATM   37  C   UNL     1      -9.568   8.986  67.309  1.00  0.00    -0.206 A  
HETATM   38  C   UNL     1     -10.793   9.770  69.258  1.00  0.00    -0.240 A  
HETATM   39  O   UNL     1      -6.141   8.977  69.651  1.00  0.00    -0.038 OA 
HETATM   40  C   UNL     1      -8.384   8.978  68.074  1.00  0.00    -0.117 A  
HETATM   41  O   UNL     1      -7.255   9.685  71.402  1.00  0.00    -0.315 OA 
HETATM   42  C   UNL     1      -8.419   9.362  69.421  1.00  0.00    -0.142 A  
HETATM   43  C   UNL     1      -9.623   9.748  70.019  1.00  0.00    -0.282 A  
HETATM   44  N   UNL     1      -7.181   9.338  70.214  1.00  0.00    -0.073 N  
HETATM   45  C   UNL     1     -10.765   9.403  67.911  1.00  0.00    -0.269 A  
ENDBRANCH  12  37
ENDBRANCH   3   5
ENDBRANCH   2   3
TORSDOF 11
ENDMDL
MODEL        4
REMARK 921   NORMALIZED FREE ENERGY PREDICTED BY IDOCK:   -6.66 KCAL/MOL
REMARK 922        TOTAL FREE ENERGY PREDICTED BY IDOCK:  -12.80 KCAL/MOL
REMARK 923 INTER-LIGAND FREE ENERGY PREDICTED BY IDOCK:  -10.48 KCAL/MOL
REMARK 924 INTRA-LIGAND FREE ENERGY PREDICTED BY IDOCK:   -2.32 KCAL/MOL
REMARK 927      BINDING AFFINITY PREDICTED BY RF-SCORE:    0.00 PKD
ROOT
HETATM    1  C   UNL     1      -9.880   4.004  71.382  1.00  0.00    -0.179 C  
HETATM    2  O   UNL     1     -10.522   5.003  70.584  1.00  0.00    -0.234 OA 
ENDROOT
BRANCH   2   3
HETATM    3  C   UNL     1     -10.755   6.160  71.255  1.00  0.00    -0.256 C  
HETATM    4  O   UNL     1     -11.859   6.666  71.409  1.00  0.00    -0.307 OA 
BRANCH   3   5
HETATM    5  C   UNL     1      -9.480   6.751  71.740  1.00  0.00    -0.150 C  
HETATM    6  C   UNL     1      -9.214   6.860  73.068  1.00  0.00    -0.132 C  
HETATM    7  N   UNL     1      -8.033   7.460  73.482  1.00  0.00    -0.109 NA 
HETATM    8  C   UNL     1     -10.085   6.403  74.210  1.00  0.00    -0.365 C  
HETATM    9  C   UNL     1      -7.172   8.150  72.656  1.00  0.00    -0.102 C  
HETATM   10  C   UNL     1      -6.097   8.959  73.343  1.00  0.00    -0.020 C  
HETATM   11  C   UNL     1      -7.346   8.091  71.317  1.00  0.00    -0.067 C  
HETATM   12  C   UNL     1      -8.484   7.274  70.695  1.00  0.00    -0.140 C  
BRANCH  11  13
HETATM   13  C   UNL     1      -6.521   8.951  70.443  1.00  0.00    -0.043 C  
HETATM   14  O   UNL     1      -5.664   8.521  69.685  1.00  0.00    -0.029 OA 
BRANCH  13  15
HETATM   15  O   UNL     1      -6.824  10.264  70.619  1.00  0.00    -0.309 OA 
BRANCH  15  16
HETATM   16  C   UNL     1      -5.840  11.152  70.049  1.00  0.00    -0.112 C  
BRANCH  16  17
HETATM   17  C   UNL     1      -6.448  12.556  69.898  1.00  0.00     0.036 C  
BRANCH  17  18
HETATM   18  N   UNL     1      -6.585  13.066  68.523  1.00  0.00    -0.080 NA 
HETATM   19  C   UNL     1      -9.134  13.041  68.322  1.00  0.00    -0.179 C  
HETATM   20  C   UNL     1      -7.765  12.512  67.820  1.00  0.00    -0.142 C  
HETATM   21  N   UNL     1      -9.263  14.520  68.286  1.00  0.00    -0.195 NA 
HETATM   22  C   UNL     1      -6.711  14.546  68.565  1.00  0.00    -0.096 C  
HETATM   23  C   UNL     1      -8.098  15.069  69.029  1.00  0.00    -0.178 C  
BRANCH  21  24
HETATM   24  C   UNL     1      -9.339  15.038  66.885  1.00  0.00    -0.241 C  
BRANCH  24  25
HETATM   25  C   UNL     1     -10.436  14.361  66.045  1.00  0.00    -0.307 A  
HETATM   26  C   UNL     1     -10.088  13.692  64.854  1.00  0.00    -0.293 A  
HETATM   27  C   UNL     1     -11.783  14.336  66.440  1.00  0.00    -0.403 A  
HETATM   28  C   UNL     1     -11.053  13.035  64.087  1.00  0.00    -0.437 A  
HETATM   29  C   UNL     1     -12.386  13.044  64.485  1.00  0.00    -0.461 A  
HETATM   30  C   UNL     1     -12.751  13.696  65.659  1.00  0.00    -0.505 A  
ENDBRANCH  24  25
BRANCH  24  31
HETATM   31  C   UNL     1      -9.421  16.572  66.835  1.00  0.00    -0.250 A  
HETATM   32  C   UNL     1      -9.369  19.382  66.953  1.00  0.00    -0.394 A  
HETATM   33  C   UNL     1     -10.424  18.679  67.530  1.00  0.00    -0.473 A  
HETATM   34  C   UNL     1      -8.374  17.300  66.239  1.00  0.00    -0.289 A  
HETATM   35  C   UNL     1     -10.448  17.284  67.476  1.00  0.00    -0.356 A  
HETATM   36  C   UNL     1      -8.346  18.693  66.307  1.00  0.00    -0.249 A  
ENDBRANCH  24  31
ENDBRANCH  21  24
ENDBRANCH  17  18
ENDBRANCH  16  17
ENDBRANCH  15  16
ENDBRANCH  13  15
ENDBRANCH  11  13
BRANCH  12  37
HETATM   37  C   UNL     1      -9.165   8.065  69.566  1.00  0.00    -0.152 A  
HETATM   38  C   UNL     1      -9.690   8.373  67.212  1.00  0.00    -0.240 A  
HETATM   39  O   UNL     1     -11.840  11.125  70.412  1.00  0.00    -0.329 OA 
HETATM   40  C   UNL     1     -10.061   9.105  69.888  1.00  0.00    -0.219 A  
HETATM   41  O   UNL     1     -12.305  11.395  68.285  1.00  0.00    -0.506 OA 
HETATM   42  C   UNL     1     -10.763   9.763  68.870  1.00  0.00    -0.217 A  
HETATM   43  C   UNL     1     -10.588   9.393  67.532  1.00  0.00    -0.333 A  
HETATM   44  N   UNL     1     -11.705  10.838  69.215  1.00  0.00    -0.302 N  
HETATM   45  C   UNL     1      -8.976   7.721  68.220  1.00  0.00    -0.131 A  
ENDBRANCH  12  37
ENDBRANCH   3   5
ENDBRANCH   2   3
TORSDOF 11
ENDMDL
MODEL        5
REMARK 921   NORMALIZED FREE ENERGY PREDICTED BY IDOCK:   -6.60 KCAL/MOL
REMARK 922        TOTAL FREE ENERGY PREDICTED BY IDOCK:  -12.71 KCAL/MOL
REMARK 923 INTER-LIGAND FREE ENERGY PREDICTED BY IDOCK:  -11.37 KCAL/MOL
REMARK 924 INTRA-LIGAND FREE ENERGY PREDICTED BY IDOCK:   -1.34 KCAL/MOL
REMARK 927      BINDING AFFINITY PREDICTED BY RF-SCORE:    0.00 PKD
ROOT
HETATM    1  C   UNL     1     -10.045   5.952  74.412  1.00  0.00    -0.292 C  
HETATM    2  O   UNL     1     -10.628   7.151  73.894  1.00  0.00    -0.362 OA 
ENDROOT
BRANCH   2   3
HETATM    3  C   UNL     1     -11.369   6.950  72.776  1.00  0.00    -0.199 C  
HETATM    4  O   UNL     1     -11.941   5.905  72.496  1.00  0.00    -0.274 OA 
BRANCH   3   5
HETATM    5  C   UNL     1     -11.357   8.162  71.914  1.00  0.00    -0.356 C  
HETATM    6  C   UNL     1     -12.490   8.878  71.686  1.00  0.00    -0.344 C  
HETATM    7  N   UNL     1     -12.447   9.975  70.839  1.00  0.00    -0.329 NA 
HETATM    8  C   UNL     1     -13.861   8.613  72.255  1.00  0.00    -0.459 C  
HETATM    9  C   UNL     1     -11.380  10.300  70.030  1.00  0.00    -0.301 C  
HETATM   10  C   UNL     1     -11.637  11.362  68.985  1.00  0.00    -0.383 C  
HETATM   11  C   UNL     1     -10.203   9.654  70.189  1.00  0.00    -0.313 C  
HETATM   12  C   UNL     1     -10.030   8.562  71.251  1.00  0.00    -0.284 C  
BRANCH  11  13
HETATM   13  C   UNL     1      -9.111   9.894  69.223  1.00  0.00    -0.189 C  
HETATM   14  O   UNL     1      -9.115   9.466  68.078  1.00  0.00    -0.128 OA 
BRANCH  13  15
HETATM   15  O   UNL     1      -8.109  10.619  69.786  1.00  0.00    -0.061 OA 
BRANCH  15  16
HETATM   16  C   UNL     1      -6.951  10.737  68.933  1.00  0.00    -0.077 C  
BRANCH  16  17
HETATM   17  C   UNL     1      -6.562  12.219  68.808  1.00  0.00    -0.084 C  
BRANCH  17  18
HETATM   18  N   UNL     1      -6.965  12.900  67.565  1.00  0.00    -0.149 NA 
HETATM   19  C   UNL     1      -9.376  13.488  68.178  1.00  0.00    -0.213 C  
HETATM   20  C   UNL     1      -8.400  12.717  67.251  1.00  0.00    -0.187 C  
HETATM   21  N   UNL     1      -9.129  14.951  68.237  1.00  0.00    -0.174 NA 
HETATM   22  C   UNL     1      -6.691  14.354  67.697  1.00  0.00    -0.169 C  
HETATM   23  C   UNL     1      -7.697  15.128  68.594  1.00  0.00    -0.126 C  
BRANCH  21  24
HETATM   24  C   UNL     1      -9.482  15.628  66.951  1.00  0.00    -0.229 C  
BRANCH  24  25
HETATM   25  C   UNL     1     -10.613  14.922  66.182  1.00  0.00    -0.322 A  
HETATM   26  C   UNL     1     -10.415  14.555  64.836  1.00  0.00    -0.435 A  
HETATM   27  C   UNL     1     -11.834  14.577  66.782  1.00  0.00    -0.390 A  
HETATM   28  C   UNL     1     -11.406  13.878  64.119  1.00  0.00    -0.226 A  
HETATM   29  C   UNL     1     -12.619  13.568  64.728  1.00  0.00    -0.351 A  
HETATM   30  C   UNL     1     -12.833  13.920  66.058  1.00  0.00    -0.302 A  
ENDBRANCH  24  25
BRANCH  24  31
HETATM   31  C   UNL     1      -9.745  17.130  67.137  1.00  0.00    -0.261 A  
HETATM   32  C   UNL     1     -10.477  19.807  67.599  1.00  0.00    -0.564 A  
HETATM   33  C   UNL     1     -10.570  19.270  66.317  1.00  0.00    -0.545 A  
HETATM   34  C   UNL     1      -9.636  17.697  68.420  1.00  0.00    -0.310 A  
HETATM   35  C   UNL     1     -10.212  17.940  66.088  1.00  0.00    -0.343 A  
HETATM   36  C   UNL     1     -10.009  19.022  68.649  1.00  0.00    -0.482 A  
ENDBRANCH  24  31
ENDBRANCH  21  24
ENDBRANCH  17  18
ENDBRANCH  16  17
ENDBRANCH  15  16
ENDBRANCH  13  15
ENDBRANCH  11  13
BRANCH  12  37
HETATM   37  C   UNL     1      -9.268   7.359  70.672  1.00  0.00    -0.157 A  
HETATM   38  C   UNL     1      -7.473   5.724  70.807  1.00  0.00    -0.090 A  
HETATM   39  O   UNL     1     -10.762   5.234  67.435  1.00  0.00    -0.163 OA 
HETATM   40  C   UNL     1      -9.798   6.665  69.566  1.00  0.00    -0.162 A  
HETATM   41  O   UNL     1      -9.138   3.765  67.564  1.00  0.00    -0.131 OA 
HETATM   42  C   UNL     1      -9.163   5.508  69.096  1.00  0.00    -0.116 A  
HETATM   43  C   UNL     1      -8.007   5.029  69.720  1.00  0.00    -0.074 A  
HETATM   44  N   UNL     1      -9.731   4.783  67.949  1.00  0.00    -0.153 N  
HETATM   45  C   UNL     1      -8.092   6.886  71.273  1.00  0.00    -0.110 A  
ENDBRANCH  12  37
ENDBRANCH   3   5
ENDBRANCH   2   3
TORSDOF 11
ENDMDL
MODEL        6
REMARK 921   NORMALIZED FREE ENERGY PREDICTED BY IDOCK:   -6.56 KCAL/MOL
REMARK 922        TOTAL FREE ENERGY PREDICTED BY IDOCK:  -12.64 KCAL/MOL
REMARK 923 INTER-LIGAND FREE ENERGY PREDICTED BY IDOCK:  -10.55 KCAL/MOL
REMARK 924 INTRA-LIGAND FREE ENERGY PREDICTED BY IDOCK:   -2.09 KCAL/MOL
REMARK 927      BINDING AFFINITY PREDICTED BY RF-SCORE:    0.00 PKD
ROOT
HETATM    1  C   UNL     1     -10.302   5.040  70.475  1.00  0.00    -0.215 C  
HETATM    2  O   UNL     1     -11.077   6.153  70.021  1.00  0.00    -0.332 OA 
ENDROOT
BRANCH   2   3
HETATM    3  C   UNL     1     -11.112   7.182  70.906  1.00  0.00    -0.263 C  
HETATM    4  O   UNL     1     -12.135   7.719  71.311  1.00  0.00    -0.301 OA 
BRANCH   3   5
HETATM    5  C   UNL     1      -9.736   7.595  71.285  1.00  0.00    -0.176 C  
HETATM    6  C   UNL     1      -9.289   7.476  72.563  1.00  0.00    -0.153 C  
HETATM    7  N   UNL     1      -8.014   7.916  72.887  1.00  0.00    -0.124 NA 
HETATM    8  C   UNL     1     -10.044   6.912  73.740  1.00  0.00    -0.373 C  
HETATM    9  C   UNL     1      -7.207   8.662  72.054  1.00  0.00    -0.043 C  
HETATM   10  C   UNL     1      -5.980   9.273  72.690  1.00  0.00     0.115 C  
HETATM   11  C   UNL     1      -7.558   8.825  70.759  1.00  0.00    -0.097 C  
HETATM   12  C   UNL     1      -8.839   8.200  70.194  1.00  0.00    -0.145 C  
BRANCH  11  13
HETATM   13  C   UNL     1      -6.776   9.748  69.910  1.00  0.00    -0.078 C  
HETATM   14  O   UNL     1      -6.043   9.377  69.005  1.00  0.00    -0.042 OA 
BRANCH  13  15
HETATM   15  O   UNL     1      -6.964  11.040  70.288  1.00  0.00    -0.177 OA 
BRANCH  15  16
HETATM   16  C   UNL     1      -5.768  11.840  70.176  1.00  0.00    -0.145 C  
BRANCH  16  17
HETATM   17  C   UNL     1      -6.158  13.319  70.026  1.00  0.00    -0.122 C  
BRANCH  17  18
HETATM   18  N   UNL     1      -6.419  13.792  68.656  1.00  0.00    -0.086 NA 
HETATM   19  C   UNL     1      -8.968  13.968  68.756  1.00  0.00    -0.030 C  
HETATM   20  C   UNL     1      -7.713  13.313  68.120  1.00  0.00    -0.143 C  
HETATM   21  N   UNL     1      -8.987  15.450  68.671  1.00  0.00    -0.181 NA 
HETATM   22  C   UNL     1      -6.425  15.278  68.648  1.00  0.00    -0.094 C  
HETATM   23  C   UNL     1      -7.703  15.927  69.249  1.00  0.00    -0.222 C  
BRANCH  21  24
HETATM   24  C   UNL     1      -9.190  15.926  67.268  1.00  0.00    -0.206 C  
BRANCH  24  25
HETATM   25  C   UNL     1     -10.308  15.171  66.526  1.00  0.00    -0.286 A  
HETATM   26  C   UNL     1     -11.469  14.785  67.224  1.00  0.00    -0.378 A  
HETATM   27  C   UNL     1     -10.245  14.887  65.152  1.00  0.00    -0.409 A  
HETATM   28  C   UNL     1     -12.519  14.132  66.573  1.00  0.00    -0.306 A  
HETATM   29  C   UNL     1     -12.424  13.839  65.216  1.00  0.00    -0.512 A  
HETATM   30  C   UNL     1     -11.287  14.215  64.507  1.00  0.00    -0.355 A  
ENDBRANCH  24  25
BRANCH  24  31
HETATM   31  C   UNL     1      -9.355  17.451  67.188  1.00  0.00    -0.246 A  
HETATM   32  C   UNL     1      -9.847  20.197  66.829  1.00  0.00    -0.591 A  
HETATM   33  C   UNL     1      -8.675  19.629  66.336  1.00  0.00    -0.404 A  
HETATM   34  C   UNL     1     -10.522  18.047  67.698  1.00  0.00    -0.422 A  
HETATM   35  C   UNL     1      -8.432  18.265  66.509  1.00  0.00    -0.287 A  
HETATM   36  C   UNL     1     -10.769  19.408  67.511  1.00  0.00    -0.570 A  
ENDBRANCH  24  31
ENDBRANCH  21  24
ENDBRANCH  17  18
ENDBRANCH  16  17
ENDBRANCH  15  16
ENDBRANCH  13  15
ENDBRANCH  11  13
BRANCH  12  37
HETATM   37  C   UNL     1      -9.584   9.205  69.301  1.00  0.00    -0.159 A  
HETATM   38  C   UNL     1     -10.914  11.223  69.035  1.00  0.00    -0.288 A  
HETATM   39  O   UNL     1      -9.211   9.082  65.169  1.00  0.00    -0.192 OA 
HETATM   40  C   UNL     1      -9.443   9.130  67.900  1.00  0.00    -0.158 A  
HETATM   41  O   UNL     1     -10.415  10.902  64.939  1.00  0.00    -0.311 OA 
HETATM   42  C   UNL     1     -10.036  10.102  67.085  1.00  0.00    -0.209 A  
HETATM   43  C   UNL     1     -10.764  11.156  67.648  1.00  0.00    -0.273 A  
HETATM   44  N   UNL     1      -9.874  10.023  65.626  1.00  0.00    -0.278 N  
HETATM   45  C   UNL     1     -10.339  10.250  69.854  1.00  0.00    -0.281 A  
ENDBRANCH  12  37
ENDBRANCH   3   5
ENDBRANCH   2   3
TORSDOF 11
ENDMDL
MODEL        7
REMARK 921   NORMALIZED FREE ENERGY PREDICTED BY IDOCK:   -6.52 KCAL/MOL
REMARK 922        TOTAL FREE ENERGY PREDICTED BY IDOCK:  -12.58 KCAL/MOL
REMARK 923 INTER-LIGAND FREE ENERGY PREDICTED BY IDOCK:  -10.97 KCAL/MOL
REMARK 924 INTRA-LIGAND FREE ENERGY PREDICTED BY IDOCK:   -1.61 KCAL/MOL
REMARK 927      BINDING AFFINITY PREDICTED BY RF-SCORE:    0.00 PKD
ROOT
HETATM    1  C   UNL     1      -6.380  14.164  69.649  1.00  0.00    -0.131 C  
HETATM    2  O   UNL     1      -7.458  13.947  68.734  1.00  0.00    -0.121 OA 
ENDROOT
BRANCH   2   3
HETATM    3  C   UNL     1      -8.458  14.856  68.855  1.00  0.00    -0.174 C  
HETATM    4  O   UNL     1      -8.734  15.457  69.885  1.00  0.00    -0.146 OA 
BRANCH   3   5
HETATM    5  C   UNL     1      -9.200  14.992  67.574  1.00  0.00    -0.189 C  
HETATM    6  C   UNL     1      -9.088  16.109  66.808  1.00  0.00    -0.230 C  
HETATM    7  N   UNL     1      -9.833  16.218  65.642  1.00  0.00    -0.503 NA 
HETATM    8  C   UNL     1      -8.225  17.314  67.081  1.00  0.00    -0.225 C  
HETATM    9  C   UNL     1     -10.850  15.362  65.280  1.00  0.00    -0.409 C  
HETATM   10  C   UNL     1     -11.715  15.809  64.124  1.00  0.00    -0.070 C  
HETATM   11  C   UNL     1     -11.033  14.215  65.972  1.00  0.00    -0.304 C  
HETATM   12  C   UNL     1     -10.134  13.846  67.157  1.00  0.00    -0.252 C  
BRANCH  11  13
HETATM   13  C   UNL     1     -12.215  13.377  65.681  1.00  0.00    -0.463 C  
HETATM   14  O   UNL     1     -13.363  13.797  65.700  1.00  0.00    -0.561 OA 
BRANCH  13  15
HETATM   15  O   UNL     1     -11.854  12.093  65.421  1.00  0.00    -0.375 OA 
BRANCH  15  16
HETATM   16  C   UNL     1     -10.962  11.974  64.294  1.00  0.00    -0.346 C  
BRANCH  16  17
HETATM   17  C   UNL     1     -10.115  10.701  64.446  1.00  0.00    -0.349 C  
BRANCH  17  18
HETATM   18  N   UNL     1      -9.401  10.538  65.725  1.00  0.00    -0.179 NA 
HETATM   19  C   UNL     1     -10.575   8.439  66.592  1.00  0.00    -0.029 C  
HETATM   20  C   UNL     1     -10.248   9.943  66.783  1.00  0.00    -0.236 C  
HETATM   21  N   UNL     1      -9.377   7.571  66.457  1.00  0.00    -0.179 NA 
HETATM   22  C   UNL     1      -8.221   9.661  65.514  1.00  0.00    -0.126 C  
HETATM   23  C   UNL     1      -8.552   8.150  65.364  1.00  0.00    -0.129 C  
BRANCH  21  24
HETATM   24  C   UNL     1      -8.622   7.460  67.743  1.00  0.00    -0.120 C  
BRANCH  24  25
HETATM   25  C   UNL     1      -9.532   7.434  68.983  1.00  0.00    -0.148 A  
HETATM   26  C   UNL     1     -10.484   6.404  69.126  1.00  0.00    -0.274 A  
HETATM   27  C   UNL     1      -9.425   8.376  70.019  1.00  0.00    -0.164 A  
HETATM   28  C   UNL     1     -11.300   6.329  70.258  1.00  0.00    -0.457 A  
HETATM   29  C   UNL     1     -11.193   7.288  71.261  1.00  0.00    -0.281 A  
HETATM   30  C   UNL     1     -10.258   8.312  71.140  1.00  0.00    -0.244 A  
ENDBRANCH  24  25
BRANCH  24  31
HETATM   31  C   UNL     1      -7.613   6.301  67.727  1.00  0.00    -0.101 A  
HETATM   32  C   UNL     1      -5.942   4.043  67.882  1.00  0.00    -0.027 A  
HETATM   33  C   UNL     1      -5.604   5.209  68.564  1.00  0.00    -0.015 A  
HETATM   34  C   UNL     1      -7.927   5.122  67.027  1.00  0.00    -0.100 A  
HETATM   35  C   UNL     1      -6.435   6.328  68.492  1.00  0.00    -0.049 A  
HETATM   36  C   UNL     1      -7.102   3.999  67.112  1.00  0.00    -0.064 A  
ENDBRANCH  24  31
ENDBRANCH  21  24
ENDBRANCH  17  18
ENDBRANCH  16  17
ENDBRANCH  15  16
ENDBRANCH  13  15
ENDBRANCH  11  13
BRANCH  12  37
HETATM   37  C   UNL     1     -10.973  13.306  68.326  1.00  0.00    -0.280 A  
HETATM   38  C   UNL     1     -11.567  11.512  69.857  1.00  0.00    -0.387 A  
HETATM   39  O   UNL     1     -13.362  15.832  70.593  1.00  0.00    -0.486 OA 
HETATM   40  C   UNL     1     -11.781  14.189  69.070  1.00  0.00    -0.361 A  
HETATM   41  O   UNL     1     -13.893  14.207  71.967  1.00  0.00    -0.406 OA 
HETATM   42  C   UNL     1     -12.469  13.726  70.198  1.00  0.00    -0.267 A  
HETATM   43  C   UNL     1     -12.357  12.390  70.601  1.00  0.00    -0.367 A  
HETATM   44  N   UNL     1     -13.300  14.657  70.976  1.00  0.00    -0.379 N  
HETATM   45  C   UNL     1     -10.889  11.962  68.722  1.00  0.00    -0.270 A  
ENDBRANCH  12  37
ENDBRANCH   3   5
ENDBRANCH   2   3
TORSDOF 11
ENDMDL
MODEL        8
REMARK 921   NORMALIZED FREE ENERGY PREDICTED BY IDOCK:   -6.50 KCAL/MOL
REMARK 922        TOTAL FREE ENERGY PREDICTED BY IDOCK:  -12.54 KCAL/MOL
REMARK 923 INTER-LIGAND FREE ENERGY PREDICTED BY IDOCK:  -10.90 KCAL/MOL
REMARK 924 INTRA-LIGAND FREE ENERGY PREDICTED BY IDOCK:   -1.64 KCAL/MOL
REMARK 927      BINDING AFFINITY PREDICTED BY RF-SCORE:    0.00 PKD
ROOT
HETATM    1  C   UNL     1      -9.854   4.806  67.522  1.00  0.00    -0.162 C  
HETATM    2  O   UNL     1      -9.138   4.989  66.297  1.00  0.00    -0.122 OA 
ENDROOT
BRANCH   2   3
HETATM    3  C   UNL     1      -8.120   5.881  66.397  1.00  0.00    -0.103 C  
HETATM    4  O   UNL     1      -7.180   5.781  67.174  1.00  0.00    -0.073 OA 
BRANCH   3   5
HETATM    5  C   UNL     1      -8.325   7.018  65.462  1.00  0.00    -0.135 C  
HETATM    6  C   UNL     1      -7.779   7.016  64.217  1.00  0.00    -0.117 C  
HETATM    7  N   UNL     1      -7.955   8.116  63.391  1.00  0.00    -0.155 NA 
HETATM    8  C   UNL     1      -6.953   5.922  63.590  1.00  0.00    -0.042 C  
HETATM    9  C   UNL     1      -8.479   9.325  63.795  1.00  0.00    -0.191 C  
HETATM   10  C   UNL     1      -8.329  10.473  62.825  1.00  0.00    -0.191 C  
HETATM   11  C   UNL     1      -9.059   9.424  65.012  1.00  0.00    -0.271 C  
HETATM   12  C   UNL     1      -9.143   8.220  65.957  1.00  0.00    -0.228 C  
BRANCH  11  13
HETATM   13  C   UNL     1      -9.481  10.752  65.505  1.00  0.00    -0.210 C  
HETATM   14  O   UNL     1      -8.705  11.589  65.942  1.00  0.00    -0.162 OA 
BRANCH  13  15
HETATM   15  O   UNL     1     -10.830  10.897  65.430  1.00  0.00    -0.168 OA 
BRANCH  15  16
HETATM   16  C   UNL     1     -11.248  11.717  64.319  1.00  0.00    -0.344 C  
BRANCH  16  17
HETATM   17  C   UNL     1     -10.565  13.091  64.415  1.00  0.00    -0.409 C  
BRANCH  17  18
HETATM   18  N   UNL     1     -11.363  14.181  65.003  1.00  0.00    -0.334 NA 
HETATM   19  C   UNL     1     -10.919  13.731  67.480  1.00  0.00    -0.272 C  
HETATM   20  C   UNL     1     -11.942  13.823  66.318  1.00  0.00    -0.429 C  
HETATM   21  N   UNL     1     -10.118  14.965  67.681  1.00  0.00    -0.227 NA 
HETATM   22  C   UNL     1     -10.499  15.377  65.176  1.00  0.00    -0.411 C  
HETATM   23  C   UNL     1      -9.505  15.295  66.367  1.00  0.00    -0.298 C  
BRANCH  21  24
HETATM   24  C   UNL     1     -10.947  16.087  68.220  1.00  0.00    -0.335 C  
BRANCH  24  25
HETATM   25  C   UNL     1     -11.527  15.798  69.616  1.00  0.00    -0.348 A  
HETATM   26  C   UNL     1     -12.885  15.446  69.747  1.00  0.00     0.080 A  
HETATM   27  C   UNL     1     -10.741  15.823  70.780  1.00  0.00    -0.124 A  
HETATM   28  C   UNL     1     -13.434  15.141  70.995  1.00  0.00    -0.493 A  
HETATM   29  C   UNL     1     -12.643  15.196  72.139  1.00  0.00    -0.407 A  
HETATM   30  C   UNL     1     -11.298  15.539  72.031  1.00  0.00    -0.445 A  
ENDBRANCH  24  25
BRANCH  24  31
HETATM   31  C   UNL     1     -10.216  17.436  68.152  1.00  0.00    -0.350 A  
HETATM   32  C   UNL     1      -8.827  19.849  67.749  1.00  0.00    -0.390 A  
HETATM   33  C   UNL     1      -8.211  18.793  68.415  1.00  0.00    -0.372 A  
HETATM   34  C   UNL     1     -10.830  18.522  67.501  1.00  0.00    -0.337 A  
HETATM   35  C   UNL     1      -8.898  17.593  68.612  1.00  0.00    -0.259 A  
HETATM   36  C   UNL     1     -10.136  19.715  67.293  1.00  0.00    -0.534 A  
ENDBRANCH  24  31
ENDBRANCH  21  24
ENDBRANCH  17  18
ENDBRANCH  16  17
ENDBRANCH  15  16
ENDBRANCH  13  15
ENDBRANCH  11  13
BRANCH  12  37
HETATM   37  C   UNL     1      -8.785   8.632  67.394  1.00  0.00    -0.136 A  
HETATM   38  C   UNL     1      -7.287   9.707  68.979  1.00  0.00    -0.073 A  
HETATM   39  O   UNL     1     -11.538   8.254  70.478  1.00  0.00    -0.241 OA 
HETATM   40  C   UNL     1      -9.740   8.482  68.420  1.00  0.00    -0.169 A  
HETATM   41  O   UNL     1     -10.178   9.223  71.900  1.00  0.00    -0.269 OA 
HETATM   42  C   UNL     1      -9.460   8.948  69.711  1.00  0.00    -0.170 A  
HETATM   43  C   UNL     1      -8.238   9.570  69.992  1.00  0.00    -0.181 A  
HETATM   44  N   UNL     1     -10.466   8.798  70.772  1.00  0.00    -0.208 N  
HETATM   45  C   UNL     1      -7.553   9.232  67.693  1.00  0.00    -0.088 A  
ENDBRANCH  12  37
ENDBRANCH   3   5
ENDBRANCH   2   3
TORSDOF 11
ENDMDL
MODEL        9
REMARK 921   NORMALIZED FREE ENERGY PREDICTED BY IDOCK:   -6.45 KCAL/MOL
REMARK 922        TOTAL FREE ENERGY PREDICTED BY IDOCK:  -12.45 KCAL/MOL
REMARK 923 INTER-LIGAND FREE ENERGY PREDICTED BY IDOCK:  -11.35 KCAL/MOL
REMARK 924 INTRA-LIGAND FREE ENERGY PREDICTED BY IDOCK:   -1.11 KCAL/MOL
REMARK 927      BINDING AFFINITY PREDICTED BY RF-SCORE:    0.00 PKD
ROOT
HETATM    1  C   UNL     1     -10.592  16.135  68.769  1.00  0.00    -0.279 C  
HETATM    2  O   UNL     1      -9.619  15.145  68.422  1.00  0.00    -0.202 OA 
ENDROOT
BRANCH   2   3
HETATM    3  C   UNL     1     -10.060  13.873  68.595  1.00  0.00    -0.203 C  
HETATM    4  O   UNL     1     -11.099  13.566  69.164  1.00  0.00    -0.256 OA 
BRANCH   3   5
HETATM    5  C   UNL     1      -9.087  12.900  68.033  1.00  0.00    -0.211 C  
HETATM    6  C   UNL     1      -7.775  12.930  68.385  1.00  0.00    -0.133 C  
HETATM    7  N   UNL     1      -6.889  12.035  67.804  1.00  0.00    -0.089 NA 
HETATM    8  C   UNL     1      -7.120  13.869  69.366  1.00  0.00     0.022 C  
HETATM    9  C   UNL     1      -7.185  11.224  66.729  1.00  0.00    -0.142 C  
HETATM   10  C   UNL     1      -6.012  10.533  66.075  1.00  0.00    -0.111 C  
HETATM   11  C   UNL     1      -8.466  11.115  66.312  1.00  0.00    -0.168 C  
HETATM   12  C   UNL     1      -9.600  11.877  67.008  1.00  0.00    -0.196 C  
BRANCH  11  13
HETATM   13  C   UNL     1      -8.760  10.370  65.070  1.00  0.00    -0.182 C  
HETATM   14  O   UNL     1      -8.547  10.812  63.950  1.00  0.00    -0.138 OA 
BRANCH  13  15
HETATM   15  O   UNL     1      -9.314   9.160  65.343  1.00  0.00    -0.234 OA 
BRANCH  15  16
HETATM   16  C   UNL     1      -8.382   8.068  65.201  1.00  0.00    -0.130 C  
BRANCH  16  17
HETATM   17  C   UNL     1      -8.506   7.132  66.415  1.00  0.00    -0.130 C  
BRANCH  17  18
HETATM   18  N   UNL     1      -8.537   7.777  67.739  1.00  0.00    -0.121 NA 
HETATM   19  C   UNL     1     -10.911   7.148  68.451  1.00  0.00    -0.097 C  
HETATM   20  C   UNL     1      -9.886   8.261  68.109  1.00  0.00    -0.172 C  
HETATM   21  N   UNL     1     -10.470   6.229  69.530  1.00  0.00    -0.213 NA 
HETATM   22  C   UNL     1      -8.087   6.801  68.764  1.00  0.00    -0.120 C  
HETATM   23  C   UNL     1      -9.133   5.713  69.132  1.00  0.00    -0.112 C  
BRANCH  21  24
HETATM   24  C   UNL     1     -10.444   6.906  70.863  1.00  0.00    -0.211 C  
BRANCH  24  25
HETATM   25  C   UNL     1     -11.772   7.595  71.222  1.00  0.00    -0.308 A  
HETATM   26  C   UNL     1     -11.782   8.968  71.540  1.00  0.00    -0.415 A  
HETATM   27  C   UNL     1     -13.003   6.919  71.200  1.00  0.00    -0.248 A  
HETATM   28  C   UNL     1     -12.976   9.632  71.832  1.00  0.00    -0.527 A  
HETATM   29  C   UNL     1     -14.181   8.937  71.829  1.00  0.00    -0.392 A  
HETATM   30  C   UNL     1     -14.194   7.580  71.515  1.00  0.00    -0.580 A  
ENDBRANCH  24  25
BRANCH  24  31
HETATM   31  C   UNL     1      -9.941   5.977  71.979  1.00  0.00    -0.195 A  
HETATM   32  C   UNL     1      -9.271   4.329  74.158  1.00  0.00    -0.109 A  
HETATM   33  C   UNL     1      -8.700   5.593  74.039  1.00  0.00    -0.120 A  
HETATM   34  C   UNL     1     -10.490   4.688  72.104  1.00  0.00    -0.219 A  
HETATM   35  C   UNL     1      -9.036   6.414  72.961  1.00  0.00    -0.133 A  
HETATM   36  C   UNL     1     -10.164   3.875  73.190  1.00  0.00    -0.224 A  
ENDBRANCH  24  31
ENDBRANCH  21  24
ENDBRANCH  17  18
ENDBRANCH  16  17
ENDBRANCH  15  16
ENDBRANCH  13  15
ENDBRANCH  11  13
BRANCH  12  37
HETATM   37  C   UNL     1     -10.551  12.498  65.972  1.00  0.00    -0.289 A  
HETATM   38  C   UNL     1     -12.508  12.351  64.536  1.00  0.00    -0.519 A  
HETATM   39  O   UNL     1     -10.331  16.530  65.011  1.00  0.00    -0.622 OA 
HETATM   40  C   UNL     1     -10.443  13.869  65.661  1.00  0.00    -0.320 A  
HETATM   41  O   UNL     1     -12.095  16.386  63.716  1.00  0.00    -0.927 OA 
HETATM   42  C   UNL     1     -11.369  14.465  64.796  1.00  0.00    -0.388 A  
HETATM   43  C   UNL     1     -12.409  13.712  64.239  1.00  0.00    -0.388 A  
HETATM   44  N   UNL     1     -11.257  15.898  64.487  1.00  0.00    -0.410 N  
HETATM   45  C   UNL     1     -11.580  11.746  65.386  1.00  0.00    -0.190 A  
ENDBRANCH  12  37
ENDBRANCH   3   5
ENDBRANCH   2   3
TORSDOF 11
ENDMDL
MODEL       10
REMARK 921   NORMALIZED FREE ENERGY PREDICTED BY IDOCK:   -6.43 KCAL/MOL
REMARK 922        TOTAL FREE ENERGY PREDICTED BY IDOCK:  -12.43 KCAL/MOL
REMARK 923 INTER-LIGAND FREE ENERGY PREDICTED BY IDOCK:  -10.80 KCAL/MOL
REMARK 924 INTRA-LIGAND FREE ENERGY PREDICTED BY IDOCK:   -1.63 KCAL/MOL
REMARK 927      BINDING AFFINITY PREDICTED BY RF-SCORE:    0.00 PKD
ROOT
HETATM    1  C   UNL     1     -11.442  15.742  64.249  1.00  0.00    -0.198 C  
HETATM    2  O   UNL     1     -12.079  15.346  65.467  1.00  0.00     0.193 OA 
ENDROOT
BRANCH   2   3
HETATM    3  C   UNL     1     -12.362  14.019  65.519  1.00  0.00    -0.483 C  
HETATM    4  O   UNL     1     -13.490  13.548  65.576  1.00  0.00    -0.438 OA 
BRANCH   3   5
HETATM    5  C   UNL     1     -11.110  13.217  65.542  1.00  0.00    -0.299 C  
HETATM    6  C   UNL     1     -10.916  12.188  64.676  1.00  0.00    -0.312 C  
HETATM    7  N   UNL     1      -9.755  11.433  64.758  1.00  0.00    -0.246 NA 
HETATM    8  C   UNL     1     -11.853  11.727  63.589  1.00  0.00    -0.498 C  
HETATM    9  C   UNL     1      -8.844  11.507  65.790  1.00  0.00    -0.058 C  
HETATM   10  C   UNL     1      -7.801  10.414  65.835  1.00  0.00    -0.148 C  
HETATM   11  C   UNL     1      -8.944  12.505  66.696  1.00  0.00    -0.174 C  
HETATM   12  C   UNL     1     -10.053  13.559  66.603  1.00  0.00    -0.277 C  
BRANCH  11  13
HETATM   13  C   UNL     1      -8.064  12.494  67.883  1.00  0.00    -0.163 C  
HETATM   14  O   UNL     1      -7.295  13.402  68.164  1.00  0.00    -0.092 OA 
BRANCH  13  15
HETATM   15  O   UNL     1      -8.209  11.342  68.590  1.00  0.00    -0.150 OA 
BRANCH  15  16
HETATM   16  C   UNL     1      -7.017  10.971  69.313  1.00  0.00    -0.116 C  
BRANCH  16  17
HETATM   17  C   UNL     1      -7.140   9.512  69.782  1.00  0.00    -0.075 C  
BRANCH  17  18
HETATM   18  N   UNL     1      -7.887   9.286  71.031  1.00  0.00    -0.301 NA 
HETATM   19  C   UNL     1      -9.954   8.125  70.075  1.00  0.00    -0.192 C  
HETATM   20  C   UNL     1      -9.354   9.334  70.839  1.00  0.00    -0.245 C  
HETATM   21  N   UNL     1      -9.640   6.807  70.683  1.00  0.00    -0.169 NA 
HETATM   22  C   UNL     1      -7.525   7.954  71.579  1.00  0.00    -0.073 C  
HETATM   23  C   UNL     1      -8.162   6.748  70.835  1.00  0.00    -0.123 C  
BRANCH  21  24
HETATM   24  C   UNL     1     -10.353   6.609  71.983  1.00  0.00    -0.197 C  
BRANCH  24  25
HETATM   25  C   UNL     1     -11.765   7.220  72.001  1.00  0.00    -0.329 A  
HETATM   26  C   UNL     1     -12.781   6.649  71.210  1.00  0.00    -0.178 A  
HETATM   27  C   UNL     1     -12.106   8.309  72.819  1.00  0.00    -0.204 A  
HETATM   28  C   UNL     1     -14.083   7.155  71.232  1.00  0.00    -0.302 A  
HETATM   29  C   UNL     1     -14.393   8.251  72.032  1.00  0.00    -0.541 A  
HETATM   30  C   UNL     1     -13.404   8.829  72.823  1.00  0.00    -0.219 A  
ENDBRANCH  24  25
BRANCH  24  31
HETATM   31  C   UNL     1     -10.340   5.141  72.436  1.00  0.00    -0.257 A  
HETATM   32  C   UNL     1     -10.576   2.428  73.142  1.00  0.00    -0.255 A  
HETATM   33  C   UNL     1     -10.775   3.417  74.101  1.00  0.00    -0.255 A  
HETATM   34  C   UNL     1     -10.120   4.126  71.486  1.00  0.00    -0.184 A  
HETATM   35  C   UNL     1     -10.663   4.764  73.751  1.00  0.00    -0.359 A  
HETATM   36  C   UNL     1     -10.247   2.781  71.836  1.00  0.00    -0.053 A  
ENDBRANCH  24  31
ENDBRANCH  21  24
ENDBRANCH  17  18
ENDBRANCH  16  17
ENDBRANCH  15  16
ENDBRANCH  13  15
ENDBRANCH  11  13
BRANCH  12  37
HETATM   37  C   UNL     1     -10.664  13.827  67.988  1.00  0.00    -0.260 A  
HETATM   38  C   UNL     1     -11.335  15.366  69.746  1.00  0.00    -0.317 A  
HETATM   39  O   UNL     1     -12.581  10.811  70.100  1.00  0.00    -0.327 OA 
HETATM   40  C   UNL     1     -11.300  12.778  68.683  1.00  0.00    -0.333 A  
HETATM   41  O   UNL     1     -13.179  12.207  71.682  1.00  0.00    -0.406 OA 
HETATM   42  C   UNL     1     -11.947  13.035  69.898  1.00  0.00    -0.311 A  
HETATM   43  C   UNL     1     -11.976  14.330  70.428  1.00  0.00    -0.402 A  
HETATM   44  N   UNL     1     -12.618  11.938  70.610  1.00  0.00    -0.232 N  
HETATM   45  C   UNL     1     -10.675  15.115  68.542  1.00  0.00    -0.240 A  
ENDBRANCH  12  37
ENDBRANCH   3   5
ENDBRANCH   2   3
TORSDOF 11
ENDMDL
MODEL       11
REMARK 921   NORMALIZED FREE ENERGY PREDICTED BY IDOCK:   -6.42 KCAL/MOL
REMARK 922        TOTAL FREE ENERGY PREDICTED BY IDOCK:  -12.40 KCAL/MOL
REMARK 923 INTER-LIGAND FREE ENERGY PREDICTED BY IDOCK:  -10.71 KCAL/MOL
REMARK 924 INTRA-LIGAND FREE ENERGY PREDICTED BY IDOCK:   -1.69 KCAL/MOL
REMARK 927      BINDING AFFINITY PREDICTED BY RF-SCORE:    0.00 PKD
ROOT
HETATM    1  C   UNL     1      -9.740   4.160  70.652  1.00  0.00    -0.203 C  
HETATM    2  O   UNL     1      -9.605   5.294  71.513  1.00  0.00    -0.147 OA 
ENDROOT
BRANCH   2   3
HETATM    3  C   UNL     1      -8.723   6.217  71.053  1.00  0.00    -0.132 C  
HETATM    4  O   UNL     1      -7.534   6.006  70.854  1.00  0.00    -0.086 OA 
BRANCH   3   5
HETATM    5  C   UNL     1      -9.390   7.532  70.865  1.00  0.00    -0.154 C  
HETATM    6  C   UNL     1     -10.086   8.121  71.873  1.00  0.00    -0.220 C  
HETATM    7  N   UNL     1     -10.734   9.326  71.644  1.00  0.00    -0.364 NA 
HETATM    8  C   UNL     1     -10.268   7.601  73.276  1.00  0.00    -0.398 C  
HETATM    9  C   UNL     1     -10.905   9.901  70.403  1.00  0.00    -0.319 C  
HETATM   10  C   UNL     1     -11.871  11.061  70.336  1.00  0.00    -0.460 C  
HETATM   11  C   UNL     1     -10.242   9.396  69.339  1.00  0.00    -0.214 C  
HETATM   12  C   UNL     1      -9.303   8.193  69.481  1.00  0.00    -0.155 C  
BRANCH  11  13
HETATM   13  C   UNL     1     -10.544   9.913  67.988  1.00  0.00    -0.242 C  
HETATM   14  O   UNL     1     -11.658   9.881  67.484  1.00  0.00     0.080 OA 
BRANCH  13  15
HETATM   15  O   UNL     1      -9.425  10.396  67.386  1.00  0.00    -0.148 OA 
BRANCH  15  16
HETATM   16  C   UNL     1      -9.653  10.813  66.024  1.00  0.00    -0.201 C  
BRANCH  16  17
HETATM   17  C   UNL     1      -9.278  12.297  65.876  1.00  0.00    -0.027 C  
BRANCH  17  18
HETATM   18  N   UNL     1     -10.373  13.269  66.036  1.00  0.00    -0.283 NA 
HETATM   19  C   UNL     1     -10.158  13.730  68.541  1.00  0.00    -0.225 C  
HETATM   20  C   UNL     1     -11.017  13.194  67.366  1.00  0.00    -0.264 C  
HETATM   21  N   UNL     1      -9.694  15.129  68.363  1.00  0.00    -0.207 NA 
HETATM   22  C   UNL     1      -9.836  14.641  65.847  1.00  0.00    -0.330 C  
HETATM   23  C   UNL     1      -9.011  15.188  67.044  1.00  0.00    -0.234 C  
BRANCH  21  24
HETATM   24  C   UNL     1     -10.820  16.107  68.464  1.00  0.00    -0.313 C  
BRANCH  24  25
HETATM   25  C   UNL     1     -11.641  15.958  69.757  1.00  0.00    -0.340 A  
HETATM   26  C   UNL     1     -12.904  15.333  69.712  1.00  0.00     0.052 A  
HETATM   27  C   UNL     1     -11.163  16.379  71.008  1.00  0.00    -0.129 A  
HETATM   28  C   UNL     1     -13.659  15.146  70.873  1.00  0.00    -0.397 A  
HETATM   29  C   UNL     1     -13.176  15.594  72.099  1.00  0.00    -0.547 A  
HETATM   30  C   UNL     1     -11.930  16.212  72.166  1.00  0.00    -0.623 A  
ENDBRANCH  24  25
BRANCH  24  31
HETATM   31  C   UNL     1     -10.360  17.553  68.222  1.00  0.00    -0.379 A  
HETATM   32  C   UNL     1      -9.386  20.102  67.539  1.00  0.00    -0.507 A  
HETATM   33  C   UNL     1      -8.777  19.373  68.558  1.00  0.00    -0.407 A  
HETATM   34  C   UNL     1     -10.975  18.313  67.210  1.00  0.00    -0.113 A  
HETATM   35  C   UNL     1      -9.257  18.106  68.894  1.00  0.00    -0.172 A  
HETATM   36  C   UNL     1     -10.485  19.574  66.867  1.00  0.00    -0.589 A  
ENDBRANCH  24  31
ENDBRANCH  21  24
ENDBRANCH  17  18
ENDBRANCH  16  17
ENDBRANCH  15  16
ENDBRANCH  13  15
ENDBRANCH  11  13
BRANCH  12  37
HETATM   37  C   UNL     1      -9.521   7.196  68.331  1.00  0.00    -0.138 A  
HETATM   38  C   UNL     1     -10.985   5.777  67.006  1.00  0.00    -0.225 A  
HETATM   39  O   UNL     1      -6.515   6.414  65.578  1.00  0.00    -0.037 OA 
HETATM   40  C   UNL     1      -8.476   6.946  67.419  1.00  0.00    -0.121 A  
HETATM   41  O   UNL     1      -7.843   5.134  64.391  1.00  0.00    -0.086 OA 
HETATM   42  C   UNL     1      -8.698   6.118  66.311  1.00  0.00    -0.143 A  
HETATM   43  C   UNL     1      -9.953   5.540  66.095  1.00  0.00    -0.133 A  
HETATM   44  N   UNL     1      -7.606   5.873  65.358  1.00  0.00    -0.082 N  
HETATM   45  C   UNL     1     -10.768   6.589  68.121  1.00  0.00    -0.347 A  
ENDBRANCH  12  37
ENDBRANCH   3   5
ENDBRANCH   2   3
TORSDOF 11
ENDMDL
MODEL       12
REMARK 921   NORMALIZED FREE ENERGY PREDICTED BY IDOCK:   -6.36 KCAL/MOL
REMARK 922        TOTAL FREE ENERGY PREDICTED BY IDOCK:  -12.31 KCAL/MOL
REMARK 923 INTER-LIGAND FREE ENERGY PREDICTED BY IDOCK:   -9.88 KCAL/MOL
REMARK 924 INTRA-LIGAND FREE ENERGY PREDICTED BY IDOCK:   -2.44 KCAL/MOL
REMARK 927      BINDING AFFINITY PREDICTED BY RF-SCORE:    0.00 PKD
ROOT
HETATM    1  C   UNL     1     -12.975   7.679  71.586  1.00  0.00    -0.350 C  
HETATM    2  O   UNL     1     -11.977   8.236  70.727  1.00  0.00    -0.236 OA 
ENDROOT
BRANCH   2   3
HETATM    3  C   UNL     1     -11.221   7.298  70.101  1.00  0.00    -0.239 C  
HETATM    4  O   UNL     1     -11.440   6.095  70.127  1.00  0.00    -0.391 OA 
BRANCH   3   5
HETATM    5  C   UNL     1     -10.064   7.931  69.413  1.00  0.00    -0.196 C  
HETATM    6  C   UNL     1      -9.910   7.843  68.066  1.00  0.00    -0.165 C  
HETATM    7  N   UNL     1      -8.793   8.407  67.466  1.00  0.00    -0.135 NA 
HETATM    8  C   UNL     1     -10.836   7.166  67.088  1.00  0.00    -0.403 C  
HETATM    9  C   UNL     1      -7.697   8.890  68.149  1.00  0.00    -0.100 C  
HETATM   10  C   UNL     1      -6.478   9.204  67.312  1.00  0.00    -0.060 C  
HETATM   11  C   UNL     1      -7.758   9.029  69.492  1.00  0.00    -0.082 C  
HETATM   12  C   UNL     1      -9.021   8.657  70.276  1.00  0.00    -0.162 C  
BRANCH  11  13
HETATM   13  C   UNL     1      -6.536   9.400  70.236  1.00  0.00    -0.069 C  
HETATM   14  O   UNL     1      -5.609   8.630  70.440  1.00  0.00    -0.027 OA 
BRANCH  13  15
HETATM   15  O   UNL     1      -6.600  10.684  70.676  1.00  0.00    -0.332 OA 
BRANCH  15  16
HETATM   16  C   UNL     1      -5.603  11.537  70.075  1.00  0.00    -0.110 C  
BRANCH  16  17
HETATM   17  C   UNL     1      -6.149  12.971  69.983  1.00  0.00    -0.112 C  
BRANCH  17  18
HETATM   18  N   UNL     1      -6.332  13.517  68.627  1.00  0.00    -0.084 NA 
HETATM   19  C   UNL     1      -8.817  13.011  68.308  1.00  0.00    -0.172 C  
HETATM   20  C   UNL     1      -7.354  12.784  67.847  1.00  0.00    -0.120 C  
HETATM   21  N   UNL     1      -9.231  14.437  68.331  1.00  0.00    -0.191 NA 
HETATM   22  C   UNL     1      -6.745  14.940  68.729  1.00  0.00    -0.092 C  
HETATM   23  C   UNL     1      -8.224  15.160  69.151  1.00  0.00    -0.214 C  
BRANCH  21  24
HETATM   24  C   UNL     1      -9.356  15.004  66.953  1.00  0.00    -0.241 C  
BRANCH  24  25
HETATM   25  C   UNL     1     -10.476  14.350  66.125  1.00  0.00    -0.295 A  
HETATM   26  C   UNL     1     -10.184  13.819  64.853  1.00  0.00    -0.374 A  
HETATM   27  C   UNL     1     -11.789  14.214  66.606  1.00  0.00    -0.447 A  
HETATM   28  C   UNL     1     -11.169  13.186  64.092  1.00  0.00    -0.433 A  
HETATM   29  C   UNL     1     -12.469  13.083  64.578  1.00  0.00    -0.427 A  
HETATM   30  C   UNL     1     -12.779  13.599  65.833  1.00  0.00    -0.428 A  
ENDBRANCH  24  25
BRANCH  24  31
HETATM   31  C   UNL     1      -9.445  16.537  66.960  1.00  0.00    -0.249 A  
HETATM   32  C   UNL     1      -9.799  19.321  66.757  1.00  0.00    -0.430 A  
HETATM   33  C   UNL     1      -8.654  18.724  66.237  1.00  0.00    -0.247 A  
HETATM   34  C   UNL     1     -10.585  17.161  67.499  1.00  0.00    -0.323 A  
HETATM   35  C   UNL     1      -8.479  17.343  66.332  1.00  0.00    -0.292 A  
HETATM   36  C   UNL     1     -10.764  18.540  67.390  1.00  0.00    -0.424 A  
ENDBRANCH  24  31
ENDBRANCH  21  24
ENDBRANCH  17  18
ENDBRANCH  16  17
ENDBRANCH  15  16
ENDBRANCH  13  15
ENDBRANCH  11  13
BRANCH  12  37
HETATM   37  C   UNL     1      -8.658   7.879  71.551  1.00  0.00    -0.144 A  
HETATM   38  C   UNL     1      -8.654   7.663  73.973  1.00  0.00    -0.297 A  
HETATM   39  O   UNL     1      -7.236   3.984  71.350  1.00  0.00    -0.037 OA 
HETATM   40  C   UNL     1      -8.168   6.561  71.447  1.00  0.00    -0.120 A  
HETATM   41  O   UNL     1      -7.235   3.801  73.535  1.00  0.00    -0.059 OA 
HETATM   42  C   UNL     1      -7.931   5.809  72.605  1.00  0.00    -0.102 A  
HETATM   43  C   UNL     1      -8.182   6.353  73.869  1.00  0.00    -0.111 A  
HETATM   44  N   UNL     1      -7.432   4.431  72.487  1.00  0.00    -0.076 N  
HETATM   45  C   UNL     1      -8.880   8.424  72.825  1.00  0.00    -0.276 A  
ENDBRANCH  12  37
ENDBRANCH   3   5
ENDBRANCH   2   3
TORSDOF 11
ENDMDL
MODEL       13
REMARK 921   NORMALIZED FREE ENERGY PREDICTED BY IDOCK:   -6.33 KCAL/MOL
REMARK 922        TOTAL FREE ENERGY PREDICTED BY IDOCK:  -12.26 KCAL/MOL
REMARK 923 INTER-LIGAND FREE ENERGY PREDICTED BY IDOCK:  -11.12 KCAL/MOL
REMARK 924 INTRA-LIGAND FREE ENERGY PREDICTED BY IDOCK:   -1.14 KCAL/MOL
REMARK 927      BINDING AFFINITY PREDICTED BY RF-SCORE:    0.00 PKD
ROOT
HETATM    1  C   UNL     1     -10.497  19.574  66.548  1.00  0.00    -0.493 C  
HETATM    2  O   UNL     1     -10.586  18.216  66.991  1.00  0.00    -0.378 OA 
ENDROOT
BRANCH   2   3
HETATM    3  C   UNL     1     -10.106  17.323  66.088  1.00  0.00    -0.302 C  
HETATM    4  O   UNL     1     -10.537  17.179  64.952  1.00  0.00    -0.620 OA 
BRANCH   3   5
HETATM    5  C   UNL     1      -9.010  16.513  66.684  1.00  0.00    -0.285 C  
HETATM    6  C   UNL     1      -7.710  16.891  66.569  1.00  0.00    -0.291 C  
HETATM    7  N   UNL     1      -6.713  16.085  67.098  1.00  0.00    -0.215 NA 
HETATM    8  C   UNL     1      -7.181  18.131  65.894  1.00  0.00    -0.275 C  
HETATM    9  C   UNL     1      -6.908  14.805  67.571  1.00  0.00    -0.155 C  
HETATM   10  C   UNL     1      -5.660  13.999  67.843  1.00  0.00    -0.099 C  
HETATM   11  C   UNL     1      -8.168  14.341  67.735  1.00  0.00    -0.178 C  
HETATM   12  C   UNL     1      -9.387  15.209  67.403  1.00  0.00    -0.200 C  
BRANCH  11  13
HETATM   13  C   UNL     1      -8.374  12.923  68.093  1.00  0.00    -0.168 C  
HETATM   14  O   UNL     1      -8.940  12.558  69.113  1.00  0.00     0.400 OA 
BRANCH  13  15
HETATM   15  O   UNL     1      -7.832  12.097  67.159  1.00  0.00    -0.163 OA 
BRANCH  15  16
HETATM   16  C   UNL     1      -8.700  11.001  66.803  1.00  0.00    -0.152 C  
BRANCH  16  17
HETATM   17  C   UNL     1      -8.266   9.739  67.565  1.00  0.00    -0.114 C  
BRANCH  17  18
HETATM   18  N   UNL     1      -9.286   8.688  67.727  1.00  0.00    -0.135 NA 
HETATM   19  C   UNL     1      -8.415   7.591  69.865  1.00  0.00    -0.138 C  
HETATM   20  C   UNL     1      -8.749   7.460  68.356  1.00  0.00    -0.123 C  
HETATM   21  N   UNL     1      -9.555   8.043  70.702  1.00  0.00    -0.166 NA 
HETATM   22  C   UNL     1     -10.390   9.210  68.573  1.00  0.00    -0.207 C  
HETATM   23  C   UNL     1     -10.063   9.299  70.089  1.00  0.00    -0.213 C  
BRANCH  21  24
HETATM   24  C   UNL     1     -10.616   6.995  70.812  1.00  0.00    -0.219 C  
BRANCH  24  25
HETATM   25  C   UNL     1     -10.139   5.719  71.528  1.00  0.00    -0.246 A  
HETATM   26  C   UNL     1      -9.842   5.763  72.905  1.00  0.00    -0.174 A  
HETATM   27  C   UNL     1     -10.029   4.482  70.873  1.00  0.00    -0.263 A  
HETATM   28  C   UNL     1      -9.443   4.615  73.594  1.00  0.00    -0.135 A  
HETATM   29  C   UNL     1      -9.317   3.404  72.919  1.00  0.00    -0.130 A  
HETATM   30  C   UNL     1      -9.608   3.338  71.559  1.00  0.00    -0.234 A  
ENDBRANCH  24  25
BRANCH  24  31
HETATM   31  C   UNL     1     -11.923   7.548  71.402  1.00  0.00    -0.336 A  
HETATM   32  C   UNL     1     -14.356   8.693  72.227  1.00  0.00    -0.486 A  
HETATM   33  C   UNL     1     -13.149   9.228  72.669  1.00  0.00    -0.305 A  
HETATM   34  C   UNL     1     -13.153   7.008  70.983  1.00  0.00    -0.170 A  
HETATM   35  C   UNL     1     -11.941   8.664  72.256  1.00  0.00    -0.438 A  
HETATM   36  C   UNL     1     -14.359   7.583  71.386  1.00  0.00    -0.540 A  
ENDBRANCH  24  31
ENDBRANCH  21  24
ENDBRANCH  17  18
ENDBRANCH  16  17
ENDBRANCH  15  16
ENDBRANCH  13  15
ENDBRANCH  11  13
BRANCH  12  37
HETATM   37  C   UNL     1     -10.443  14.392  66.640  1.00  0.00    -0.274 A  
HETATM   38  C   UNL     1     -12.758  13.760  66.251  1.00  0.00    -0.258 A  
HETATM   39  O   UNL     1      -9.440  12.261  63.222  1.00  0.00    -0.213 OA 
HETATM   40  C   UNL     1     -10.066  13.671  65.489  1.00  0.00    -0.293 A  
HETATM   41  O   UNL     1     -11.531  11.695  62.881  1.00  0.00     0.013 OA 
HETATM   42  C   UNL     1     -11.039  13.007  64.730  1.00  0.00    -0.322 A  
HETATM   43  C   UNL     1     -12.387  13.058  65.102  1.00  0.00    -0.536 A  
HETATM   44  N   UNL     1     -10.640  12.269  63.524  1.00  0.00    -0.457 N  
HETATM   45  C   UNL     1     -11.793  14.413  67.020  1.00  0.00    -0.437 A  
ENDBRANCH  12  37
ENDBRANCH   3   5
ENDBRANCH   2   3
TORSDOF 11
ENDMDL
MODEL       14
REMARK 921   NORMALIZED FREE ENERGY PREDICTED BY IDOCK:   -6.30 KCAL/MOL
REMARK 922        TOTAL FREE ENERGY PREDICTED BY IDOCK:  -12.21 KCAL/MOL
REMARK 923 INTER-LIGAND FREE ENERGY PREDICTED BY IDOCK:  -10.43 KCAL/MOL
REMARK 924 INTRA-LIGAND FREE ENERGY PREDICTED BY IDOCK:   -1.78 KCAL/MOL
REMARK 927      BINDING AFFINITY PREDICTED BY RF-SCORE:    0.00 PKD
ROOT
HETATM    1  C   UNL     1     -12.566  15.529  70.667  1.00  0.00    -0.443 C  
HETATM    2  O   UNL     1     -11.193  15.885  70.486  1.00  0.00    -0.325 OA 
ENDROOT
BRANCH   2   3
HETATM    3  C   UNL     1     -10.845  16.045  69.184  1.00  0.00    -0.281 C  
HETATM    4  O   UNL     1     -11.621  16.349  68.287  1.00  0.00    -0.255 OA 
BRANCH   3   5
HETATM    5  C   UNL     1      -9.399  15.760  68.988  1.00  0.00    -0.244 C  
HETATM    6  C   UNL     1      -8.516  16.752  68.702  1.00  0.00    -0.259 C  
HETATM    7  N   UNL     1      -7.183  16.440  68.481  1.00  0.00    -0.162 NA 
HETATM    8  C   UNL     1      -8.814  18.224  68.574  1.00  0.00    -0.322 C  
HETATM    9  C   UNL     1      -6.693  15.161  68.326  1.00  0.00    -0.119 C  
HETATM   10  C   UNL     1      -5.274  15.049  67.819  1.00  0.00    -0.046 C  
HETATM   11  C   UNL     1      -7.491  14.105  68.601  1.00  0.00    -0.125 C  
HETATM   12  C   UNL     1      -8.934  14.299  69.079  1.00  0.00     0.059 C  
BRANCH  11  13
HETATM   13  C   UNL     1      -7.017  12.741  68.288  1.00  0.00    -0.097 C  
HETATM   14  O   UNL     1      -6.975  12.282  67.156  1.00  0.00    -0.148 OA 
BRANCH  13  15
HETATM   15  O   UNL     1      -6.667  12.072  69.418  1.00  0.00    -0.110 OA 
BRANCH  15  16
HETATM   16  C   UNL     1      -5.928  10.861  69.152  1.00  0.00    -0.042 C  
BRANCH  16  17
HETATM   17  C   UNL     1      -6.421   9.748  70.090  1.00  0.00    -0.083 C  
BRANCH  17  18
HETATM   18  N   UNL     1      -7.449   8.842  69.550  1.00  0.00    -0.074 NA 
HETATM   19  C   UNL     1      -8.014   7.539  71.676  1.00  0.00    -0.090 C  
HETATM   20  C   UNL     1      -7.466   7.525  70.225  1.00  0.00    -0.085 C  
HETATM   21  N   UNL     1      -9.380   8.108  71.801  1.00  0.00    -0.164 NA 
HETATM   22  C   UNL     1      -8.784   9.473  69.711  1.00  0.00    -0.194 C  
HETATM   23  C   UNL     1      -9.346   9.448  71.159  1.00  0.00    -0.073 C  
BRANCH  21  24
HETATM   24  C   UNL     1     -10.414   7.213  71.196  1.00  0.00    -0.210 C  
BRANCH  24  25
HETATM   25  C   UNL     1     -10.274   5.742  71.626  1.00  0.00    -0.253 A  
HETATM   26  C   UNL     1     -10.034   4.752  70.653  1.00  0.00    -0.300 A  
HETATM   27  C   UNL     1     -10.326   5.341  72.971  1.00  0.00    -0.228 A  
HETATM   28  C   UNL     1      -9.864   3.412  71.013  1.00  0.00    -0.136 A  
HETATM   29  C   UNL     1      -9.944   3.033  72.350  1.00  0.00    -0.235 A  
HETATM   30  C   UNL     1     -10.177   3.997  73.328  1.00  0.00    -0.214 A  
ENDBRANCH  24  25
BRANCH  24  31
HETATM   31  C   UNL     1     -11.839   7.752  71.394  1.00  0.00    -0.324 A  
HETATM   32  C   UNL     1     -14.401   8.716  72.041  1.00  0.00    -0.512 A  
HETATM   33  C   UNL     1     -14.243   7.410  71.587  1.00  0.00    -0.583 A  
HETATM   34  C   UNL     1     -12.022   9.076  71.833  1.00  0.00    -0.445 A  
HETATM   35  C   UNL     1     -12.971   6.928  71.270  1.00  0.00    -0.309 A  
HETATM   36  C   UNL     1     -13.292   9.550  72.163  1.00  0.00    -0.545 A  
ENDBRANCH  24  31
ENDBRANCH  21  24
ENDBRANCH  17  18
ENDBRANCH  16  17
ENDBRANCH  15  16
ENDBRANCH  13  15
ENDBRANCH  11  13
BRANCH  12  37
HETATM   37  C   UNL     1      -9.880  13.326  68.356  1.00  0.00    -0.218 A  
HETATM   38  C   UNL     1     -11.573  11.582  68.412  1.00  0.00    -0.375 A  
HETATM   39  O   UNL     1     -10.499  13.592  64.260  1.00  0.00    -0.414 OA 
HETATM   40  C   UNL     1     -10.060  13.438  66.962  1.00  0.00    -0.247 A  
HETATM   41  O   UNL     1     -12.023  12.016  64.321  1.00  0.00    -0.366 OA 
HETATM   42  C   UNL     1     -10.996  12.624  66.311  1.00  0.00    -0.283 A  
HETATM   43  C   UNL     1     -11.761  11.702  67.033  1.00  0.00    -0.176 A  
HETATM   44  N   UNL     1     -11.186  12.755  64.859  1.00  0.00    -0.289 N  
HETATM   45  C   UNL     1     -10.632  12.379  69.067  1.00  0.00    -0.087 A  
ENDBRANCH  12  37
ENDBRANCH   3   5
ENDBRANCH   2   3
TORSDOF 11
ENDMDL
MODEL       15
REMARK 921   NORMALIZED FREE ENERGY PREDICTED BY IDOCK:   -6.19 KCAL/MOL
REMARK 922        TOTAL FREE ENERGY PREDICTED BY IDOCK:  -12.03 KCAL/MOL
REMARK 923 INTER-LIGAND FREE ENERGY PREDICTED BY IDOCK:  -11.15 KCAL/MOL
REMARK 924 INTRA-LIGAND FREE ENERGY PREDICTED BY IDOCK:   -0.88 KCAL/MOL
REMARK 927      BINDING AFFINITY PREDICTED BY RF-SCORE:    0.00 PKD
ROOT
HETATM    1  C   UNL     1     -11.943  15.482  64.026  1.00  0.00     0.054 C  
HETATM    2  O   UNL     1     -12.218  14.778  65.241  1.00  0.00    -0.277 OA 
ENDROOT
BRANCH   2   3
HETATM    3  C   UNL     1     -12.340  13.437  65.071  1.00  0.00    -0.436 C  
HETATM    4  O   UNL     1     -13.397  12.851  64.880  1.00  0.00    -0.716 OA 
BRANCH   3   5
HETATM    5  C   UNL     1     -11.016  12.771  65.190  1.00  0.00    -0.323 C  
HETATM    6  C   UNL     1     -10.647  11.776  64.341  1.00  0.00    -0.317 C  
HETATM    7  N   UNL     1      -9.423  11.147  64.514  1.00  0.00    -0.235 NA 
HETATM    8  C   UNL     1     -11.443  11.228  63.184  1.00  0.00     0.261 C  
HETATM    9  C   UNL     1      -8.607  11.308  65.613  1.00  0.00    -0.023 C  
HETATM   10  C   UNL     1      -7.461  10.331  65.739  1.00  0.00    -0.144 C  
HETATM   11  C   UNL     1      -8.882  12.282  66.509  1.00  0.00    -0.128 C  
HETATM   12  C   UNL     1     -10.086  13.214  66.330  1.00  0.00    -0.285 C  
BRANCH  11  13
HETATM   13  C   UNL     1      -8.101  12.354  67.761  1.00  0.00    -0.162 C  
HETATM   14  O   UNL     1      -7.446  13.331  68.095  1.00  0.00    -0.103 OA 
BRANCH  13  15
HETATM   15  O   UNL     1      -8.189  11.193  68.461  1.00  0.00    -0.135 OA 
BRANCH  15  16
HETATM   16  C   UNL     1      -7.012  10.918  69.249  1.00  0.00    -0.112 C  
BRANCH  16  17
HETATM   17  C   UNL     1      -7.060   9.465  69.748  1.00  0.00    -0.068 C  
BRANCH  17  18
HETATM   18  N   UNL     1      -7.803   9.226  70.997  1.00  0.00    -0.301 NA 
HETATM   19  C   UNL     1      -9.919   8.169  70.027  1.00  0.00    -0.192 C  
HETATM   20  C   UNL     1      -9.269   9.331  70.823  1.00  0.00    -0.253 C  
HETATM   21  N   UNL     1      -9.646   6.822  70.589  1.00  0.00    -0.169 NA 
HETATM   22  C   UNL     1      -7.483   7.864  71.499  1.00  0.00    -0.073 C  
HETATM   23  C   UNL     1      -8.170   6.706  70.723  1.00  0.00    -0.121 C  
BRANCH  21  24
HETATM   24  C   UNL     1     -10.353   6.607  71.890  1.00  0.00    -0.198 C  
BRANCH  24  25
HETATM   25  C   UNL     1     -11.767   7.213  71.920  1.00  0.00    -0.328 A  
HETATM   26  C   UNL     1     -12.000   8.404  72.636  1.00  0.00    -0.346 A  
HETATM   27  C   UNL     1     -12.845   6.651  71.216  1.00  0.00    -0.130 A  
HETATM   28  C   UNL     1     -13.263   9.001  72.653  1.00  0.00    -0.375 A  
HETATM   29  C   UNL     1     -14.323   8.413  71.968  1.00  0.00    -0.555 A  
HETATM   30  C   UNL     1     -14.114   7.238  71.252  1.00  0.00    -0.360 A  
ENDBRANCH  24  25
BRANCH  24  31
HETATM   31  C   UNL     1     -10.333   5.135  72.327  1.00  0.00    -0.267 A  
HETATM   32  C   UNL     1     -10.513   2.396  72.945  1.00  0.00    -0.243 A  
HETATM   33  C   UNL     1     -11.020   3.345  73.829  1.00  0.00    -0.307 A  
HETATM   34  C   UNL     1      -9.806   4.163  71.457  1.00  0.00    -0.255 A  
HETATM   35  C   UNL     1     -10.936   4.704  73.521  1.00  0.00    -0.395 A  
HETATM   36  C   UNL     1      -9.905   2.804  71.760  1.00  0.00    -0.220 A  
ENDBRANCH  24  31
ENDBRANCH  21  24
ENDBRANCH  17  18
ENDBRANCH  16  17
ENDBRANCH  15  16
ENDBRANCH  13  15
ENDBRANCH  11  13
BRANCH  12  37
HETATM   37  C   UNL     1     -10.828  13.404  67.663  1.00  0.00    -0.273 A  
HETATM   38  C   UNL     1     -12.040  12.489  69.562  1.00  0.00    -0.248 A  
HETATM   39  O   UNL     1     -10.767  17.050  69.646  1.00  0.00    -0.283 OA 
HETATM   40  C   UNL     1     -10.795  14.658  68.306  1.00  0.00    -0.249 A  
HETATM   41  O   UNL     1     -11.863  16.215  71.353  1.00  0.00    -0.441 OA 
HETATM   42  C   UNL     1     -11.382  14.812  69.568  1.00  0.00    -0.283 A  
HETATM   43  C   UNL     1     -11.996  13.728  70.204  1.00  0.00    -0.404 A  
HETATM   44  N   UNL     1     -11.332  16.120  70.237  1.00  0.00    -0.367 N  
HETATM   45  C   UNL     1     -11.471  12.330  68.297  1.00  0.00    -0.367 A  
ENDBRANCH  12  37
ENDBRANCH   3   5
ENDBRANCH   2   3
TORSDOF 11
ENDMDL
MODEL       16
REMARK 921   NORMALIZED FREE ENERGY PREDICTED BY IDOCK:   -6.17 KCAL/MOL
REMARK 922        TOTAL FREE ENERGY PREDICTED BY IDOCK:  -12.00 KCAL/MOL
REMARK 923 INTER-LIGAND FREE ENERGY PREDICTED BY IDOCK:  -10.91 KCAL/MOL
REMARK 924 INTRA-LIGAND FREE ENERGY PREDICTED BY IDOCK:   -1.09 KCAL/MOL
REMARK 927      BINDING AFFINITY PREDICTED BY RF-SCORE:    0.00 PKD
ROOT
HETATM    1  C   UNL     1     -11.500  16.059  64.215  1.00  0.00    -0.157 C  
HETATM    2  O   UNL     1     -12.585  15.148  64.019  1.00  0.00    -0.791 OA 
ENDROOT
BRANCH   2   3
HETATM    3  C   UNL     1     -12.655  14.183  64.972  1.00  0.00    -0.380 C  
HETATM    4  O   UNL     1     -13.603  14.018  65.729  1.00  0.00    -0.335 OA 
BRANCH   3   5
HETATM    5  C   UNL     1     -11.405  13.379  64.997  1.00  0.00    -0.330 C  
HETATM    6  C   UNL     1     -11.262  12.272  64.221  1.00  0.00    -0.350 C  
HETATM    7  N   UNL     1     -10.099  11.522  64.307  1.00  0.00    -0.270 NA 
HETATM    8  C   UNL     1     -12.261  11.717  63.237  1.00  0.00    -0.400 C  
HETATM    9  C   UNL     1      -9.129  11.685  65.273  1.00  0.00     0.051 C  
HETATM   10  C   UNL     1      -8.086  10.596  65.360  1.00  0.00    -0.106 C  
HETATM   11  C   UNL     1      -9.176  12.765  66.086  1.00  0.00    -0.040 C  
HETATM   12  C   UNL     1     -10.289  13.812  65.958  1.00  0.00    -0.311 C  
BRANCH  11  13
HETATM   13  C   UNL     1      -8.230  12.859  67.216  1.00  0.00    -0.176 C  
HETATM   14  O   UNL     1      -7.350  13.704  67.294  1.00  0.00    -0.145 OA 
BRANCH  13  15
HETATM   15  O   UNL     1      -8.453  11.875  68.127  1.00  0.00    -0.149 OA 
BRANCH  15  16
HETATM   16  C   UNL     1      -7.327  11.647  68.999  1.00  0.00    -0.074 C  
BRANCH  16  17
HETATM   17  C   UNL     1      -7.528  10.323  69.754  1.00  0.00    -0.165 C  
BRANCH  17  18
HETATM   18  N   UNL     1      -8.818   9.642  69.551  1.00  0.00    -0.174 NA 
HETATM   19  C   UNL     1      -7.966   7.320  68.905  1.00  0.00    -0.123 C  
HETATM   20  C   UNL     1      -8.756   8.594  68.507  1.00  0.00    -0.139 C  
HETATM   21  N   UNL     1      -8.454   6.667  70.146  1.00  0.00    -0.134 NA 
HETATM   22  C   UNL     1      -9.242   9.013  70.828  1.00  0.00    -0.245 C  
HETATM   23  C   UNL     1      -8.474   7.714  71.201  1.00  0.00    -0.116 C  
BRANCH  21  24
HETATM   24  C   UNL     1      -9.793   6.030  69.951  1.00  0.00    -0.170 C  
BRANCH  24  25
HETATM   25  C   UNL     1      -9.917   5.270  68.619  1.00  0.00    -0.234 A  
HETATM   26  C   UNL     1     -10.698   5.811  67.578  1.00  0.00    -0.320 A  
HETATM   27  C   UNL     1      -9.238   4.066  68.371  1.00  0.00    -0.204 A  
HETATM   28  C   UNL     1     -10.801   5.166  66.343  1.00  0.00    -0.174 A  
HETATM   29  C   UNL     1     -10.139   3.960  66.127  1.00  0.00     0.031 A  
HETATM   30  C   UNL     1      -9.360   3.410  67.142  1.00  0.00    -0.224 A  
ENDBRANCH  24  25
BRANCH  24  31
HETATM   31  C   UNL     1     -10.214   5.178  71.158  1.00  0.00    -0.291 A  
HETATM   32  C   UNL     1     -10.850   3.812  73.534  1.00  0.00    -0.324 A  
HETATM   33  C   UNL     1      -9.835   3.337  72.707  1.00  0.00    -0.201 A  
HETATM   34  C   UNL     1     -11.251   5.630  71.995  1.00  0.00    -0.271 A  
HETATM   35  C   UNL     1      -9.516   4.017  71.530  1.00  0.00    -0.222 A  
HETATM   36  C   UNL     1     -11.559   4.957  73.178  1.00  0.00    -0.300 A  
ENDBRANCH  24  31
ENDBRANCH  21  24
ENDBRANCH  17  18
ENDBRANCH  16  17
ENDBRANCH  15  16
ENDBRANCH  13  15
ENDBRANCH  11  13
BRANCH  12  37
HETATM   37  C   UNL     1     -10.819  14.211  67.345  1.00  0.00    -0.291 A  
HETATM   38  C   UNL     1     -11.492  15.912  68.947  1.00  0.00    -0.386 A  
HETATM   39  O   UNL     1     -12.306  11.359  69.970  1.00  0.00    -0.282 OA 
HETATM   40  C   UNL     1     -11.308  13.216  68.216  1.00  0.00    -0.333 A  
HETATM   41  O   UNL     1     -12.907  12.901  71.409  1.00  0.00    -0.367 OA 
HETATM   42  C   UNL     1     -11.885  13.580  69.439  1.00  0.00    -0.335 A  
HETATM   43  C   UNL     1     -11.988  14.927  69.804  1.00  0.00    -0.366 A  
HETATM   44  N   UNL     1     -12.404  12.537  70.336  1.00  0.00    -0.279 N  
HETATM   45  C   UNL     1     -10.901  15.556  67.733  1.00  0.00    -0.309 A  
ENDBRANCH  12  37
ENDBRANCH   3   5
ENDBRANCH   2   3
TORSDOF 11
ENDMDL
MODEL       17
REMARK 921   NORMALIZED FREE ENERGY PREDICTED BY IDOCK:   -6.16 KCAL/MOL
REMARK 922        TOTAL FREE ENERGY PREDICTED BY IDOCK:  -11.98 KCAL/MOL
REMARK 923 INTER-LIGAND FREE ENERGY PREDICTED BY IDOCK:  -11.55 KCAL/MOL
REMARK 924 INTRA-LIGAND FREE ENERGY PREDICTED BY IDOCK:   -0.44 KCAL/MOL
REMARK 927      BINDING AFFINITY PREDICTED BY RF-SCORE:    0.00 PKD
ROOT
HETATM    1  C   UNL     1     -10.651  15.539  68.481  1.00  0.00    -0.246 C  
HETATM    2  O   UNL     1      -9.607  14.655  68.061  1.00  0.00    -0.204 OA 
ENDROOT
BRANCH   2   3
HETATM    3  C   UNL     1      -9.892  13.345  68.275  1.00  0.00    -0.235 C  
HETATM    4  O   UNL     1     -10.802  12.936  68.983  1.00  0.00    -0.223 OA 
BRANCH   3   5
HETATM    5  C   UNL     1      -8.920  12.474  67.563  1.00  0.00    -0.185 C  
HETATM    6  C   UNL     1      -7.594  12.508  67.859  1.00  0.00    -0.133 C  
HETATM    7  N   UNL     1      -6.712  11.713  67.140  1.00  0.00    -0.129 NA 
HETATM    8  C   UNL     1      -6.920  13.349  68.912  1.00  0.00    -0.102 C  
HETATM    9  C   UNL     1      -7.037  11.021  65.993  1.00  0.00    -0.010 C  
HETATM   10  C   UNL     1      -5.877  10.447  65.213  1.00  0.00    -0.134 C  
HETATM   11  C   UNL     1      -8.333  10.919  65.622  1.00  0.00    -0.105 C  
HETATM   12  C   UNL     1      -9.453  11.559  66.450  1.00  0.00    -0.230 C  
BRANCH  11  13
HETATM   13  C   UNL     1      -8.664  10.312  64.316  1.00  0.00    -0.206 C  
HETATM   14  O   UNL     1      -8.763  10.951  63.279  1.00  0.00    -0.165 OA 
BRANCH  13  15
HETATM   15  O   UNL     1      -8.866   8.973  64.435  1.00  0.00    -0.170 OA 
BRANCH  15  16
HETATM   16  C   UNL     1      -9.481   8.604  65.686  1.00  0.00    -0.044 C  
BRANCH  16  17
HETATM   17  C   UNL     1      -8.631   7.521  66.371  1.00  0.00    -0.140 C  
BRANCH  17  18
HETATM   18  N   UNL     1      -9.316   6.688  67.375  1.00  0.00    -0.127 NA 
HETATM   19  C   UNL     1      -8.329   7.704  69.502  1.00  0.00    -0.130 C  
HETATM   20  C   UNL     1      -8.499   6.463  68.588  1.00  0.00    -0.123 C  
HETATM   21  N   UNL     1      -9.610   8.308  69.949  1.00  0.00    -0.170 NA 
HETATM   22  C   UNL     1     -10.583   7.353  67.774  1.00  0.00    -0.210 C  
HETATM   23  C   UNL     1     -10.409   8.570  68.723  1.00  0.00    -0.213 C  
BRANCH  21  24
HETATM   24  C   UNL     1     -10.331   7.429  70.921  1.00  0.00    -0.200 C  
BRANCH  24  25
HETATM   25  C   UNL     1      -9.516   7.130  72.191  1.00  0.00    -0.152 A  
HETATM   26  C   UNL     1      -9.098   5.810  72.455  1.00  0.00    -0.136 A  
HETATM   27  C   UNL     1      -9.122   8.134  73.090  1.00  0.00    -0.335 A  
HETATM   28  C   UNL     1      -8.324   5.510  73.579  1.00  0.00    -0.113 A  
HETATM   29  C   UNL     1      -7.966   6.517  74.470  1.00  0.00    -0.121 A  
HETATM   30  C   UNL     1      -8.366   7.828  74.226  1.00  0.00    -0.293 A  
ENDBRANCH  24  25
BRANCH  24  31
HETATM   31  C   UNL     1     -11.744   7.945  71.235  1.00  0.00    -0.313 A  
HETATM   32  C   UNL     1     -14.258   8.874  72.088  1.00  0.00    -0.463 A  
HETATM   33  C   UNL     1     -14.112   7.560  71.652  1.00  0.00    -0.562 A  
HETATM   34  C   UNL     1     -11.915   9.276  71.659  1.00  0.00    -0.448 A  
HETATM   35  C   UNL     1     -12.864   7.097  71.232  1.00  0.00    -0.399 A  
HETATM   36  C   UNL     1     -13.161   9.732  72.091  1.00  0.00    -0.530 A  
ENDBRANCH  24  31
ENDBRANCH  21  24
ENDBRANCH  17  18
ENDBRANCH  16  17
ENDBRANCH  15  16
ENDBRANCH  13  15
ENDBRANCH  11  13
BRANCH  12  37
HETATM   37  C   UNL     1     -10.468  12.263  65.535  1.00  0.00    -0.296 A  
HETATM   38  C   UNL     1     -12.503  12.226  64.205  1.00  0.00    -0.530 A  
HETATM   39  O   UNL     1     -10.342  16.372  64.960  1.00  0.00    -0.615 OA 
HETATM   40  C   UNL     1     -10.391  13.659  65.354  1.00  0.00    -0.345 A  
HETATM   41  O   UNL     1     -12.177  16.328  63.760  1.00  0.00    -0.923 OA 
HETATM   42  C   UNL     1     -11.371  14.322  64.604  1.00  0.00    -0.373 A  
HETATM   43  C   UNL     1     -12.434  13.611  64.037  1.00  0.00    -0.285 A  
HETATM   44  N   UNL     1     -11.291  15.780  64.431  1.00  0.00    -0.357 N  
HETATM   45  C   UNL     1     -11.522  11.556  64.938  1.00  0.00    -0.123 A  
ENDBRANCH  12  37
ENDBRANCH   3   5
ENDBRANCH   2   3
TORSDOF 11
ENDMDL
MODEL       18
REMARK 921   NORMALIZED FREE ENERGY PREDICTED BY IDOCK:   -6.16 KCAL/MOL
REMARK 922        TOTAL FREE ENERGY PREDICTED BY IDOCK:  -11.98 KCAL/MOL
REMARK 923 INTER-LIGAND FREE ENERGY PREDICTED BY IDOCK:  -10.52 KCAL/MOL
REMARK 924 INTRA-LIGAND FREE ENERGY PREDICTED BY IDOCK:   -1.45 KCAL/MOL
REMARK 927      BINDING AFFINITY PREDICTED BY RF-SCORE:    0.00 PKD
ROOT
HETATM    1  C   UNL     1     -10.800  19.697  66.685  1.00  0.00    -0.362 C  
HETATM    2  O   UNL     1     -10.580  18.356  67.131  1.00  0.00    -0.400 OA 
ENDROOT
BRANCH   2   3
HETATM    3  C   UNL     1     -10.070  17.545  66.169  1.00  0.00    -0.310 C  
HETATM    4  O   UNL     1     -10.557  17.391  65.057  1.00  0.00    -0.617 OA 
BRANCH   3   5
HETATM    5  C   UNL     1      -8.860  16.838  66.666  1.00  0.00    -0.286 C  
HETATM    6  C   UNL     1      -7.611  17.255  66.332  1.00  0.00    -0.314 C  
HETATM    7  N   UNL     1      -6.508  16.541  66.778  1.00  0.00    -0.265 NA 
HETATM    8  C   UNL     1      -7.248  18.448  65.485  1.00  0.00    -0.031 C  
HETATM    9  C   UNL     1      -6.568  15.303  67.381  1.00  0.00    -0.086 C  
HETATM   10  C   UNL     1      -5.252  14.576  67.537  1.00  0.00     0.216 C  
HETATM   11  C   UNL     1      -7.765  14.806  67.764  1.00  0.00    -0.170 C  
HETATM   12  C   UNL     1      -9.063  15.591  67.540  1.00  0.00    -0.198 C  
BRANCH  11  13
HETATM   13  C   UNL     1      -7.844  13.419  68.267  1.00  0.00    -0.143 C  
HETATM   14  O   UNL     1      -7.909  13.133  69.454  1.00  0.00     0.400 OA 
BRANCH  13  15
HETATM   15  O   UNL     1      -7.807  12.524  67.246  1.00  0.00    -0.165 OA 
BRANCH  15  16
HETATM   16  C   UNL     1      -6.828  11.483  67.443  1.00  0.00    -0.104 C  
BRANCH  16  17
HETATM   17  C   UNL     1      -7.546  10.164  67.770  1.00  0.00    -0.090 C  
BRANCH  17  18
HETATM   18  N   UNL     1      -7.844   9.915  69.191  1.00  0.00    -0.096 NA 
HETATM   19  C   UNL     1     -10.308   9.263  68.990  1.00  0.00    -0.214 C  
HETATM   20  C   UNL     1      -9.242  10.242  69.550  1.00  0.00    -0.170 C  
HETATM   21  N   UNL     1     -10.085   7.845  69.367  1.00  0.00    -0.191 NA 
HETATM   22  C   UNL     1      -7.601   8.481  69.493  1.00  0.00    -0.089 C  
HETATM   23  C   UNL     1      -8.693   7.510  68.966  1.00  0.00    -0.136 C  
BRANCH  21  24
HETATM   24  C   UNL     1     -10.330   7.610  70.824  1.00  0.00    -0.203 C  
BRANCH  24  25
HETATM   25  C   UNL     1     -11.766   7.944  71.261  1.00  0.00    -0.313 A  
HETATM   26  C   UNL     1     -12.023   9.148  71.947  1.00  0.00    -0.443 A  
HETATM   27  C   UNL     1     -12.859   7.114  70.962  1.00  0.00    -0.268 A  
HETATM   28  C   UNL     1     -13.321   9.500  72.325  1.00  0.00    -0.526 A  
HETATM   29  C   UNL     1     -14.387   8.651  72.040  1.00  0.00    -0.512 A  
HETATM   30  C   UNL     1     -14.155   7.458  71.361  1.00  0.00    -0.491 A  
ENDBRANCH  24  25
BRANCH  24  31
HETATM   31  C   UNL     1      -9.888   6.207  71.270  1.00  0.00    -0.204 A  
HETATM   32  C   UNL     1      -8.823   3.699  71.968  1.00  0.00    -0.128 A  
HETATM   33  C   UNL     1      -9.701   3.808  70.893  1.00  0.00    -0.248 A  
HETATM   34  C   UNL     1      -9.017   6.073  72.366  1.00  0.00    -0.137 A  
HETATM   35  C   UNL     1     -10.227   5.053  70.542  1.00  0.00    -0.316 A  
HETATM   36  C   UNL     1      -8.482   4.830  72.705  1.00  0.00    -0.112 A  
ENDBRANCH  24  31
ENDBRANCH  21  24
ENDBRANCH  17  18
ENDBRANCH  16  17
ENDBRANCH  15  16
ENDBRANCH  13  15
ENDBRANCH  11  13
BRANCH  12  37
HETATM   37  C   UNL     1     -10.171  14.666  67.011  1.00  0.00    -0.261 A  
HETATM   38  C   UNL     1     -12.437  13.792  67.127  1.00  0.00    -0.086 A  
HETATM   39  O   UNL     1      -9.736  12.651  63.408  1.00  0.00    -0.165 OA 
HETATM   40  C   UNL     1      -9.987  13.989  65.788  1.00  0.00    -0.319 A  
HETATM   41  O   UNL     1     -11.781  11.866  63.524  1.00  0.00    -0.456 OA 
HETATM   42  C   UNL     1     -11.030  13.225  65.249  1.00  0.00    -0.291 A  
HETATM   43  C   UNL     1     -12.259  13.132  65.910  1.00  0.00    -0.497 A  
HETATM   44  N   UNL     1     -10.834  12.532  63.967  1.00  0.00    -0.373 N  
HETATM   45  C   UNL     1     -11.398  14.544  67.680  1.00  0.00    -0.354 A  
ENDBRANCH  12  37
ENDBRANCH   3   5
ENDBRANCH   2   3
TORSDOF 11
ENDMDL
MODEL       19
REMARK 921   NORMALIZED FREE ENERGY PREDICTED BY IDOCK:   -6.14 KCAL/MOL
REMARK 922        TOTAL FREE ENERGY PREDICTED BY IDOCK:  -11.95 KCAL/MOL
REMARK 923 INTER-LIGAND FREE ENERGY PREDICTED BY IDOCK:   -9.72 KCAL/MOL
REMARK 924 INTRA-LIGAND FREE ENERGY PREDICTED BY IDOCK:   -2.23 KCAL/MOL
REMARK 927      BINDING AFFINITY PREDICTED BY RF-SCORE:    0.00 PKD
ROOT
HETATM    1  C   UNL     1     -12.732  15.360  70.797  1.00  0.00    -0.459 C  
HETATM    2  O   UNL     1     -11.489  16.001  70.497  1.00  0.00    -0.354 OA 
ENDROOT
BRANCH   2   3
HETATM    3  C   UNL     1     -11.198  16.020  69.172  1.00  0.00    -0.342 C  
HETATM    4  O   UNL     1     -12.030  16.073  68.275  1.00  0.00    -0.163 OA 
BRANCH   3   5
HETATM    5  C   UNL     1      -9.730  15.923  68.955  1.00  0.00    -0.243 C  
HETATM    6  C   UNL     1      -8.981  17.027  68.697  1.00  0.00    -0.267 C  
HETATM    7  N   UNL     1      -7.622  16.890  68.455  1.00  0.00    -0.209 NA 
HETATM    8  C   UNL     1      -9.461  18.454  68.623  1.00  0.00    -0.356 C  
HETATM    9  C   UNL     1      -6.978  15.688  68.253  1.00  0.00    -0.114 C  
HETATM   10  C   UNL     1      -5.563  15.772  67.732  1.00  0.00    -0.155 C  
HETATM   11  C   UNL     1      -7.636  14.532  68.497  1.00  0.00    -0.123 C  
HETATM   12  C   UNL     1      -9.086  14.529  68.993  1.00  0.00    -0.053 C  
BRANCH  11  13
HETATM   13  C   UNL     1      -7.000  13.249  68.134  1.00  0.00    -0.114 C  
HETATM   14  O   UNL     1      -6.892  12.849  66.984  1.00  0.00    -0.051 OA 
BRANCH  13  15
HETATM   15  O   UNL     1      -6.583  12.578  69.240  1.00  0.00    -0.102 OA 
BRANCH  15  16
HETATM   16  C   UNL     1      -6.467  11.156  69.026  1.00  0.00    -0.066 C  
BRANCH  16  17
HETATM   17  C   UNL     1      -7.116  10.409  70.203  1.00  0.00    -0.117 C  
BRANCH  17  18
HETATM   18  N   UNL     1      -8.469   9.873  69.972  1.00  0.00    -0.194 NA 
HETATM   19  C   UNL     1      -7.851   7.644  68.883  1.00  0.00    -0.123 C  
HETATM   20  C   UNL     1      -8.550   9.023  68.763  1.00  0.00    -0.132 C  
HETATM   21  N   UNL     1      -8.327   6.820  70.023  1.00  0.00    -0.133 NA 
HETATM   22  C   UNL     1      -8.876   9.062  71.148  1.00  0.00    -0.215 C  
HETATM   23  C   UNL     1      -8.203   7.665  71.241  1.00  0.00    -0.099 C  
BRANCH  21  24
HETATM   24  C   UNL     1      -9.724   6.329  69.812  1.00  0.00    -0.160 C  
BRANCH  24  25
HETATM   25  C   UNL     1      -9.936   5.673  68.436  1.00  0.00    -0.201 A  
HETATM   26  C   UNL     1      -9.285   4.459  68.136  1.00  0.00    -0.178 A  
HETATM   27  C   UNL     1     -10.799   6.210  67.468  1.00  0.00    -0.422 A  
HETATM   28  C   UNL     1      -9.485   3.817  66.912  1.00  0.00    -0.224 A  
HETATM   29  C   UNL     1     -10.326   4.381  65.957  1.00  0.00    -0.210 A  
HETATM   30  C   UNL     1     -10.981   5.578  66.234  1.00  0.00    -0.031 A  
ENDBRANCH  24  25
BRANCH  24  31
HETATM   31  C   UNL     1     -10.212   5.445  70.969  1.00  0.00    -0.296 A  
HETATM   32  C   UNL     1     -10.972   4.010  73.266  1.00  0.00    -0.313 A  
HETATM   33  C   UNL     1      -9.937   3.540  72.462  1.00  0.00    -0.230 A  
HETATM   34  C   UNL     1     -11.270   5.892  71.782  1.00  0.00    -0.311 A  
HETATM   35  C   UNL     1      -9.555   4.254  71.325  1.00  0.00    -0.242 A  
HETATM   36  C   UNL     1     -11.639   5.184  72.926  1.00  0.00    -0.282 A  
ENDBRANCH  24  31
ENDBRANCH  21  24
ENDBRANCH  17  18
ENDBRANCH  16  17
ENDBRANCH  15  16
ENDBRANCH  13  15
ENDBRANCH  11  13
BRANCH  12  37
HETATM   37  C   UNL     1      -9.913  13.471  68.243  1.00  0.00    -0.237 A  
HETATM   38  C   UNL     1     -11.376  11.529  68.251  1.00  0.00    -0.352 A  
HETATM   39  O   UNL     1     -10.605  13.792  64.163  1.00  0.00    -0.264 OA 
HETATM   40  C   UNL     1     -10.121  13.605  66.855  1.00  0.00    -0.260 A  
HETATM   41  O   UNL     1     -11.921  12.038  64.181  1.00  0.00    -0.381 OA 
HETATM   42  C   UNL     1     -10.955  12.703  66.183  1.00  0.00    -0.282 A  
HETATM   43  C   UNL     1     -11.592  11.670  66.879  1.00  0.00    -0.246 A  
HETATM   44  N   UNL     1     -11.177  12.857  64.738  1.00  0.00    -0.296 N  
HETATM   45  C   UNL     1     -10.534  12.415  68.926  1.00  0.00    -0.118 A  
ENDBRANCH  12  37
ENDBRANCH   3   5
ENDBRANCH   2   3
TORSDOF 11
ENDMDL
MODEL       20
REMARK 921   NORMALIZED FREE ENERGY PREDICTED BY IDOCK:   -6.14 KCAL/MOL
REMARK 922        TOTAL FREE ENERGY PREDICTED BY IDOCK:  -11.94 KCAL/MOL
REMARK 923 INTER-LIGAND FREE ENERGY PREDICTED BY IDOCK:  -10.43 KCAL/MOL
REMARK 924 INTRA-LIGAND FREE ENERGY PREDICTED BY IDOCK:   -1.52 KCAL/MOL
REMARK 927      BINDING AFFINITY PREDICTED BY RF-SCORE:    0.00 PKD
ROOT
HETATM    1  C   UNL     1     -10.768  19.347  65.538  1.00  0.00    -0.157 C  
HETATM    2  O   UNL     1     -10.726  17.919  65.480  1.00  0.00    -0.585 OA 
ENDROOT
BRANCH   2   3
HETATM    3  C   UNL     1      -9.775  17.375  66.281  1.00  0.00    -0.261 C  
HETATM    4  O   UNL     1      -8.621  17.153  65.942  1.00  0.00    -0.522 OA 
BRANCH   3   5
HETATM    5  C   UNL     1     -10.341  17.045  67.616  1.00  0.00    -0.332 C  
HETATM    6  C   UNL     1     -10.037  17.786  68.714  1.00  0.00    -0.381 C  
HETATM    7  N   UNL     1     -10.548  17.419  69.951  1.00  0.00     0.208 NA 
HETATM    8  C   UNL     1      -9.162  19.012  68.769  1.00  0.00    -0.388 C  
HETATM    9  C   UNL     1     -11.191  16.228  70.211  1.00  0.00    -0.333 C  
HETATM   10  C   UNL     1     -11.420  15.901  71.668  1.00  0.00    -0.473 C  
HETATM   11  C   UNL     1     -11.549  15.427  69.182  1.00  0.00    -0.354 C  
HETATM   12  C   UNL     1     -11.251  15.812  67.729  1.00  0.00    -0.286 C  
BRANCH  11  13
HETATM   13  C   UNL     1     -12.098  14.085  69.469  1.00  0.00    -0.347 C  
HETATM   14  O   UNL     1     -13.276  13.876  69.720  1.00  0.00     0.500 OA 
BRANCH  13  15
HETATM   15  O   UNL     1     -11.123  13.139  69.442  1.00  0.00    -0.190 OA 
BRANCH  15  16
HETATM   16  C   UNL     1     -11.608  11.839  69.048  1.00  0.00    -0.311 C  
BRANCH  16  17
HETATM   17  C   UNL     1     -11.338  10.831  70.177  1.00  0.00    -0.309 C  
BRANCH  17  18
HETATM   18  N   UNL     1     -10.068  10.088  70.102  1.00  0.00    -0.249 NA 
HETATM   19  C   UNL     1     -10.929   7.741  70.636  1.00  0.00    -0.249 C  
HETATM   20  C   UNL     1     -10.022   8.936  71.030  1.00  0.00    -0.256 C  
HETATM   21  N   UNL     1     -10.673   7.209  69.274  1.00  0.00    -0.227 NA 
HETATM   22  C   UNL     1      -9.881   9.587  68.716  1.00  0.00    -0.169 C  
HETATM   23  C   UNL     1     -10.762   8.364  68.341  1.00  0.00    -0.023 C  
BRANCH  21  24
HETATM   24  C   UNL     1      -9.354   6.509  69.187  1.00  0.00    -0.133 C  
BRANCH  24  25
HETATM   25  C   UNL     1      -9.065   5.605  70.398  1.00  0.00    -0.164 A  
HETATM   26  C   UNL     1      -9.823   4.432  70.588  1.00  0.00    -0.280 A  
HETATM   27  C   UNL     1      -8.033   5.873  71.311  1.00  0.00    -0.113 A  
HETATM   28  C   UNL     1      -9.562   3.569  71.655  1.00  0.00    -0.228 A  
HETATM   29  C   UNL     1      -8.549   3.867  72.562  1.00  0.00    -0.104 A  
HETATM   30  C   UNL     1      -7.787   5.020  72.392  1.00  0.00    -0.100 A  
ENDBRANCH  24  25
BRANCH  24  31
HETATM   31  C   UNL     1      -9.169   5.779  67.848  1.00  0.00    -0.108 A  
HETATM   32  C   UNL     1      -8.843   4.702  65.270  1.00  0.00    -0.145 A  
HETATM   33  C   UNL     1     -10.073   4.605  65.915  1.00  0.00    -0.280 A  
HETATM   34  C   UNL     1      -7.928   5.848  67.189  1.00  0.00    -0.102 A  
HETATM   35  C   UNL     1     -10.238   5.144  67.192  1.00  0.00    -0.254 A  
HETATM   36  C   UNL     1      -7.770   5.322  65.906  1.00  0.00    -0.091 A  
ENDBRANCH  24  31
ENDBRANCH  21  24
ENDBRANCH  17  18
ENDBRANCH  16  17
ENDBRANCH  15  16
ENDBRANCH  13  15
ENDBRANCH  11  13
BRANCH  12  37
HETATM   37  C   UNL     1     -10.715  14.603  66.946  1.00  0.00    -0.294 A  
HETATM   38  C   UNL     1      -9.014  12.906  66.572  1.00  0.00    -0.086 A  
HETATM   39  O   UNL     1     -13.090  12.624  64.176  1.00  0.00    -0.715 OA 
HETATM   40  C   UNL     1     -11.544  13.959  66.005  1.00  0.00    -0.359 A  
HETATM   41  O   UNL     1     -11.548  11.100  63.844  1.00  0.00    -0.038 OA 
HETATM   42  C   UNL     1     -11.101  12.797  65.362  1.00  0.00    -0.284 A  
HETATM   43  C   UNL     1      -9.841  12.261  65.650  1.00  0.00    -0.247 A  
HETATM   44  N   UNL     1     -11.978  12.125  64.391  1.00  0.00    -0.374 N  
HETATM   45  C   UNL     1      -9.442  14.074  67.207  1.00  0.00    -0.231 A  
ENDBRANCH  12  37
ENDBRANCH   3   5
ENDBRANCH   2   3
TORSDOF 11
ENDMDL
MODEL       21
REMARK 921   NORMALIZED FREE ENERGY PREDICTED BY IDOCK:   -6.13 KCAL/MOL
REMARK 922        TOTAL FREE ENERGY PREDICTED BY IDOCK:  -11.94 KCAL/MOL
REMARK 923 INTER-LIGAND FREE ENERGY PREDICTED BY IDOCK:  -10.31 KCAL/MOL
REMARK 924 INTRA-LIGAND FREE ENERGY PREDICTED BY IDOCK:   -1.63 KCAL/MOL
REMARK 927      BINDING AFFINITY PREDICTED BY RF-SCORE:    0.00 PKD
ROOT
HETATM    1  C   UNL     1      -7.829  16.939  66.209  1.00  0.00    -0.311 C  
HETATM    2  O   UNL     1      -8.497  15.676  66.266  1.00  0.00    -0.286 OA 
ENDROOT
BRANCH   2   3
HETATM    3  C   UNL     1      -9.821  15.753  65.977  1.00  0.00    -0.337 C  
HETATM    4  O   UNL     1     -10.281  16.117  64.903  1.00  0.00    -0.502 OA 
BRANCH   3   5
HETATM    5  C   UNL     1     -10.639  15.375  67.160  1.00  0.00    -0.305 C  
HETATM    6  C   UNL     1     -10.921  16.275  68.139  1.00  0.00    -0.343 C  
HETATM    7  N   UNL     1     -11.648  15.872  69.250  1.00  0.00    -0.371 NA 
HETATM    8  C   UNL     1     -10.515  17.726  68.184  1.00  0.00    -0.382 C  
HETATM    9  C   UNL     1     -11.951  14.562  69.556  1.00  0.00    -0.319 C  
HETATM   10  C   UNL     1     -12.503  14.313  70.940  1.00  0.00    -0.424 C  
HETATM   11  C   UNL     1     -11.721  13.595  68.640  1.00  0.00    -0.389 C  
HETATM   12  C   UNL     1     -11.125  13.922  67.266  1.00  0.00    -0.312 C  
BRANCH  11  13
HETATM   13  C   UNL     1     -11.901  12.179  69.024  1.00  0.00    -0.306 C  
HETATM   14  O   UNL     1     -12.395  11.337  68.289  1.00  0.00    -0.542 OA 
BRANCH  13  15
HETATM   15  O   UNL     1     -11.473  11.957  70.295  1.00  0.00    -0.172 OA 
BRANCH  15  16
HETATM   16  C   UNL     1     -12.120  10.829  70.918  1.00  0.00    -0.370 C  
BRANCH  16  17
HETATM   17  C   UNL     1     -11.104   9.687  71.085  1.00  0.00    -0.374 C  
BRANCH  17  18
HETATM   18  N   UNL     1     -11.258   8.536  70.179  1.00  0.00    -0.193 NA 
HETATM   19  C   UNL     1      -8.917   8.497  69.155  1.00  0.00    -0.146 C  
HETATM   20  C   UNL     1     -10.445   8.660  68.949  1.00  0.00    -0.192 C  
HETATM   21  N   UNL     1      -8.526   7.220  69.804  1.00  0.00    -0.135 NA 
HETATM   22  C   UNL     1     -10.849   7.299  70.893  1.00  0.00    -0.243 C  
HETATM   23  C   UNL     1      -9.315   7.120  71.060  1.00  0.00    -0.158 C  
BRANCH  21  24
HETATM   24  C   UNL     1      -8.743   6.047  68.902  1.00  0.00    -0.122 C  
BRANCH  24  25
HETATM   25  C   UNL     1      -8.060   6.199  67.531  1.00  0.00    -0.109 A  
HETATM   26  C   UNL     1      -8.829   6.094  66.355  1.00  0.00    -0.144 A  
HETATM   27  C   UNL     1      -6.693   6.490  67.396  1.00  0.00    -0.067 A  
HETATM   28  C   UNL     1      -8.248   6.265  65.095  1.00  0.00    -0.138 A  
HETATM   29  C   UNL     1      -6.886   6.528  64.985  1.00  0.00    -0.047 A  
HETATM   30  C   UNL     1      -6.109   6.638  66.135  1.00  0.00    -0.033 A  
ENDBRANCH  24  25
BRANCH  24  31
HETATM   31  C   UNL     1      -8.401   4.714  69.586  1.00  0.00    -0.077 A  
HETATM   32  C   UNL     1      -7.902   2.382  71.077  1.00  0.00    -0.046 A  
HETATM   33  C   UNL     1      -6.873   3.287  70.835  1.00  0.00    -0.033 A  
HETATM   34  C   UNL     1      -9.423   3.777  69.822  1.00  0.00    -0.256 A  
HETATM   35  C   UNL     1      -7.120   4.448  70.100  1.00  0.00    -0.045 A  
HETATM   36  C   UNL     1      -9.176   2.624  70.570  1.00  0.00    -0.206 A  
ENDBRANCH  24  31
ENDBRANCH  21  24
ENDBRANCH  17  18
ENDBRANCH  16  17
ENDBRANCH  15  16
ENDBRANCH  13  15
ENDBRANCH  11  13
BRANCH  12  37
HETATM   37  C   UNL     1     -10.039  12.902  66.889  1.00  0.00    -0.241 A  
HETATM   38  C   UNL     1      -8.054  11.615  67.451  1.00  0.00    -0.153 A  
HETATM   39  O   UNL     1     -10.316  10.672  63.398  1.00  0.00    -0.233 OA 
HETATM   40  C   UNL     1     -10.159  12.168  65.691  1.00  0.00    -0.274 A  
HETATM   41  O   UNL     1      -8.523   9.519  63.914  1.00  0.00    -0.164 OA 
HETATM   42  C   UNL     1      -9.228  11.166  65.389  1.00  0.00    -0.205 A  
HETATM   43  C   UNL     1      -8.181  10.879  66.271  1.00  0.00    -0.165 A  
HETATM   44  N   UNL     1      -9.368  10.396  64.144  1.00  0.00    -0.252 N  
HETATM   45  C   UNL     1      -8.969  12.626  67.753  1.00  0.00    -0.189 A  
ENDBRANCH  12  37
ENDBRANCH   3   5
ENDBRANCH   2   3
TORSDOF 11
ENDMDL
MODEL       22
REMARK 921   NORMALIZED FREE ENERGY PREDICTED BY IDOCK:   -6.12 KCAL/MOL
REMARK 922        TOTAL FREE ENERGY PREDICTED BY IDOCK:  -11.92 KCAL/MOL
REMARK 923 INTER-LIGAND FREE ENERGY PREDICTED BY IDOCK:  -10.04 KCAL/MOL
REMARK 924 INTRA-LIGAND FREE ENERGY PREDICTED BY IDOCK:   -1.88 KCAL/MOL
REMARK 927      BINDING AFFINITY PREDICTED BY RF-SCORE:    0.00 PKD
ROOT
HETATM    1  C   UNL     1      -5.796  14.242  71.167  1.00  0.00    -0.200 C  
HETATM    2  O   UNL     1      -6.411  15.308  70.438  1.00  0.00    -0.110 OA 
ENDROOT
BRANCH   2   3
HETATM    3  C   UNL     1      -6.105  15.301  69.115  1.00  0.00    -0.102 C  
HETATM    4  O   UNL     1      -5.167  15.907  68.614  1.00  0.00    -0.095 OA 
BRANCH   3   5
HETATM    5  C   UNL     1      -7.091  14.492  68.353  1.00  0.00    -0.111 C  
HETATM    6  C   UNL     1      -6.729  13.340  67.730  1.00  0.00    -0.153 C  
HETATM    7  N   UNL     1      -7.668  12.637  66.990  1.00  0.00    -0.077 NA 
HETATM    8  C   UNL     1      -5.364  12.699  67.729  1.00  0.00    -0.112 C  
HETATM    9  C   UNL     1      -8.918  13.112  66.654  1.00  0.00    -0.125 C  
HETATM   10  C   UNL     1      -9.675  12.317  65.617  1.00  0.00    -0.205 C  
HETATM   11  C   UNL     1      -9.375  14.245  67.233  1.00  0.00    -0.215 C  
HETATM   12  C   UNL     1      -8.532  15.017  68.253  1.00  0.00    -0.147 C  
BRANCH  11  13
HETATM   13  C   UNL     1     -10.645  14.835  66.760  1.00  0.00    -0.302 C  
HETATM   14  O   UNL     1     -10.791  15.327  65.650  1.00  0.00    -0.333 OA 
BRANCH  13  15
HETATM   15  O   UNL     1     -11.601  14.779  67.724  1.00  0.00    -0.335 OA 
BRANCH  15  16
HETATM   16  C   UNL     1     -12.380  13.565  67.677  1.00  0.00    -0.003 C  
BRANCH  16  17
HETATM   17  C   UNL     1     -11.947  12.639  68.825  1.00  0.00    -0.237 C  
BRANCH  17  18
HETATM   18  N   UNL     1     -12.272  11.210  68.672  1.00  0.00    -0.549 NA 
HETATM   19  C   UNL     1      -9.921  10.225  68.864  1.00  0.00    -0.201 C  
HETATM   20  C   UNL     1     -11.195  10.444  68.006  1.00  0.00    -0.272 C  
HETATM   21  N   UNL     1     -10.176   9.567  70.171  1.00  0.00    -0.228 NA 
HETATM   22  C   UNL     1     -12.512  10.620  70.014  1.00  0.00    -0.225 C  
HETATM   23  C   UNL     1     -11.230  10.365  70.852  1.00  0.00    -0.125 C  
BRANCH  21  24
HETATM   24  C   UNL     1     -10.567   8.133  70.006  1.00  0.00    -0.239 C  
BRANCH  24  25
HETATM   25  C   UNL     1      -9.814   7.425  68.866  1.00  0.00    -0.157 A  
HETATM   26  C   UNL     1     -10.528   6.952  67.747  1.00  0.00    -0.279 A  
HETATM   27  C   UNL     1      -8.418   7.267  68.867  1.00  0.00    -0.126 A  
HETATM   28  C   UNL     1      -9.871   6.339  66.678  1.00  0.00    -0.201 A  
HETATM   29  C   UNL     1      -8.489   6.171  66.711  1.00  0.00    -0.111 A  
HETATM   30  C   UNL     1      -7.764   6.633  67.806  1.00  0.00    -0.107 A  
ENDBRANCH  24  25
BRANCH  24  31
HETATM   31  C   UNL     1     -10.501   7.356  71.329  1.00  0.00    -0.221 A  
HETATM   32  C   UNL     1     -10.650   6.024  73.802  1.00  0.00    -0.265 A  
HETATM   33  C   UNL     1      -9.926   7.208  73.691  1.00  0.00    -0.367 A  
HETATM   34  C   UNL     1     -11.210   6.147  71.456  1.00  0.00    -0.346 A  
HETATM   35  C   UNL     1      -9.855   7.872  72.465  1.00  0.00    -0.299 A  
HETATM   36  C   UNL     1     -11.291   5.492  72.686  1.00  0.00    -0.346 A  
ENDBRANCH  24  31
ENDBRANCH  21  24
ENDBRANCH  17  18
ENDBRANCH  16  17
ENDBRANCH  15  16
ENDBRANCH  13  15
ENDBRANCH  11  13
BRANCH  12  37
HETATM   37  C   UNL     1      -8.597  16.529  67.978  1.00  0.00    -0.184 A  
HETATM   38  C   UNL     1      -9.280  18.772  68.621  1.00  0.00    -0.386 A  
HETATM   39  O   UNL     1      -6.409  18.238  64.892  1.00  0.00    -0.332 OA 
HETATM   40  C   UNL     1      -7.849  17.076  66.916  1.00  0.00    -0.249 A  
HETATM   41  O   UNL     1      -7.033  20.257  65.479  1.00  0.00    -0.291 OA 
HETATM   42  C   UNL     1      -7.822  18.462  66.721  1.00  0.00    -0.235 A  
HETATM   43  C   UNL     1      -8.528  19.314  67.577  1.00  0.00    -0.324 A  
HETATM   44  N   UNL     1      -7.030  19.025  65.618  1.00  0.00    -0.268 N  
HETATM   45  C   UNL     1      -9.323  17.389  68.814  1.00  0.00    -0.244 A  
ENDBRANCH  12  37
ENDBRANCH   3   5
ENDBRANCH   2   3
TORSDOF 11
ENDMDL
MODEL       23
REMARK 921   NORMALIZED FREE ENERGY PREDICTED BY IDOCK:   -6.12 KCAL/MOL
REMARK 922        TOTAL FREE ENERGY PREDICTED BY IDOCK:  -11.91 KCAL/MOL
REMARK 923 INTER-LIGAND FREE ENERGY PREDICTED BY IDOCK:  -10.45 KCAL/MOL
REMARK 924 INTRA-LIGAND FREE ENERGY PREDICTED BY IDOCK:   -1.46 KCAL/MOL
REMARK 927      BINDING AFFINITY PREDICTED BY RF-SCORE:    0.00 PKD
ROOT
HETATM    1  C   UNL     1     -10.758   6.321  66.940  1.00  0.00    -0.339 C  
HETATM    2  O   UNL     1     -11.051   7.691  67.229  1.00  0.00    -0.157 OA 
ENDROOT
BRANCH   2   3
HETATM    3  C   UNL     1     -10.148   8.558  66.705  1.00  0.00    -0.299 C  
HETATM    4  O   UNL     1     -10.381   9.343  65.796  1.00  0.00    -0.139 OA 
BRANCH   3   5
HETATM    5  C   UNL     1      -8.823   8.393  67.359  1.00  0.00    -0.140 C  
HETATM    6  C   UNL     1      -7.858   7.609  66.812  1.00  0.00    -0.107 C  
HETATM    7  N   UNL     1      -6.651   7.443  67.476  1.00  0.00    -0.059 NA 
HETATM    8  C   UNL     1      -7.937   6.844  65.515  1.00  0.00    -0.126 C  
HETATM    9  C   UNL     1      -6.405   7.853  68.768  1.00  0.00    -0.044 C  
HETATM   10  C   UNL     1      -5.133   7.336  69.399  1.00  0.00    -0.015 C  
HETATM   11  C   UNL     1      -7.299   8.650  69.395  1.00  0.00    -0.072 C  
HETATM   12  C   UNL     1      -8.586   9.107  68.699  1.00  0.00    -0.128 C  
BRANCH  11  13
HETATM   13  C   UNL     1      -7.110   8.962  70.827  1.00  0.00    -0.078 C  
HETATM   14  O   UNL     1      -7.092   8.113  71.707  1.00  0.00    -0.065 OA 
BRANCH  13  15
HETATM   15  O   UNL     1      -6.988  10.300  71.026  1.00  0.00    -0.278 OA 
BRANCH  15  16
HETATM   16  C   UNL     1      -6.109  10.935  70.075  1.00  0.00    -0.121 C  
BRANCH  16  17
HETATM   17  C   UNL     1      -6.486  12.420  69.945  1.00  0.00     0.024 C  
BRANCH  17  18
HETATM   18  N   UNL     1      -6.600  12.950  68.575  1.00  0.00    -0.080 NA 
HETATM   19  C   UNL     1      -9.147  13.071  68.388  1.00  0.00    -0.129 C  
HETATM   20  C   UNL     1      -7.812  12.470  67.874  1.00  0.00    -0.144 C  
HETATM   21  N   UNL     1      -9.192  14.555  68.365  1.00  0.00    -0.191 NA 
HETATM   22  C   UNL     1      -6.642  14.434  68.631  1.00  0.00    -0.088 C  
HETATM   23  C   UNL     1      -7.995  15.030  69.107  1.00  0.00    -0.195 C  
BRANCH  21  24
HETATM   24  C   UNL     1      -9.246  15.090  66.969  1.00  0.00    -0.230 C  
BRANCH  24  25
HETATM   25  C   UNL     1     -10.300  14.394  66.091  1.00  0.00    -0.305 A  
HETATM   26  C   UNL     1      -9.886  13.626  64.984  1.00  0.00    -0.087 A  
HETATM   27  C   UNL     1     -11.674  14.448  66.374  1.00  0.00    -0.397 A  
HETATM   28  C   UNL     1     -10.814  12.950  64.188  1.00  0.00    -0.445 A  
HETATM   29  C   UNL     1     -12.174  13.038  64.472  1.00  0.00    -0.476 A  
HETATM   30  C   UNL     1     -12.603  13.789  65.563  1.00  0.00    -0.551 A  
ENDBRANCH  24  25
BRANCH  24  31
HETATM   31  C   UNL     1      -9.369  16.621  66.937  1.00  0.00    -0.246 A  
HETATM   32  C   UNL     1      -9.393  19.430  67.085  1.00  0.00    -0.390 A  
HETATM   33  C   UNL     1     -10.426  18.693  67.659  1.00  0.00    -0.468 A  
HETATM   34  C   UNL     1      -8.345  17.384  66.344  1.00  0.00    -0.302 A  
HETATM   35  C   UNL     1     -10.412  17.299  67.590  1.00  0.00    -0.363 A  
HETATM   36  C   UNL     1      -8.354  18.777  66.427  1.00  0.00    -0.294 A  
ENDBRANCH  24  31
ENDBRANCH  21  24
ENDBRANCH  17  18
ENDBRANCH  16  17
ENDBRANCH  15  16
ENDBRANCH  13  15
ENDBRANCH  11  13
BRANCH  12  37
HETATM   37  C   UNL     1      -9.787   8.996  69.653  1.00  0.00    -0.182 A  
HETATM   38  C   UNL     1     -11.104   7.737  71.264  1.00  0.00    -0.271 A  
HETATM   39  O   UNL     1     -12.106  12.314  70.571  1.00  0.00    -0.364 OA 
HETATM   40  C   UNL     1     -10.560  10.140  69.936  1.00  0.00    -0.331 A  
HETATM   41  O   UNL     1     -13.289  11.169  72.020  1.00  0.00    -0.454 OA 
HETATM   42  C   UNL     1     -11.592  10.071  70.880  1.00  0.00    -0.378 A  
HETATM   43  C   UNL     1     -11.860   8.874  71.554  1.00  0.00    -0.402 A  
HETATM   44  N   UNL     1     -12.385  11.272  71.179  1.00  0.00    -0.352 N  
HETATM   45  C   UNL     1     -10.083   7.794  70.313  1.00  0.00    -0.195 A  
ENDBRANCH  12  37
ENDBRANCH   3   5
ENDBRANCH   2   3
TORSDOF 11
ENDMDL
MODEL       24
REMARK 921   NORMALIZED FREE ENERGY PREDICTED BY IDOCK:   -6.10 KCAL/MOL
REMARK 922        TOTAL FREE ENERGY PREDICTED BY IDOCK:  -11.88 KCAL/MOL
REMARK 923 INTER-LIGAND FREE ENERGY PREDICTED BY IDOCK:  -10.79 KCAL/MOL
REMARK 924 INTRA-LIGAND FREE ENERGY PREDICTED BY IDOCK:   -1.09 KCAL/MOL
REMARK 927      BINDING AFFINITY PREDICTED BY RF-SCORE:    0.00 PKD
ROOT
HETATM    1  C   UNL     1     -11.093   6.425  66.993  1.00  0.00    -0.329 C  
HETATM    2  O   UNL     1     -10.944   7.772  67.450  1.00  0.00    -0.189 OA 
ENDROOT
BRANCH   2   3
HETATM    3  C   UNL     1      -9.971   8.457  66.797  1.00  0.00    -0.284 C  
HETATM    4  O   UNL     1     -10.119   9.027  65.724  1.00  0.00    -0.169 OA 
BRANCH   3   5
HETATM    5  C   UNL     1      -8.688   8.385  67.544  1.00  0.00    -0.136 C  
HETATM    6  C   UNL     1      -7.819   7.357  67.358  1.00  0.00    -0.111 C  
HETATM    7  N   UNL     1      -6.653   7.301  68.108  1.00  0.00    -0.048 NA 
HETATM    8  C   UNL     1      -7.971   6.201  66.402  1.00  0.00    -0.106 C  
HETATM    9  C   UNL     1      -6.379   8.107  69.192  1.00  0.00    -0.039 C  
HETATM   10  C   UNL     1      -5.192   7.704  70.036  1.00  0.00    -0.023 C  
HETATM   11  C   UNL     1      -7.177   9.166  69.452  1.00  0.00    -0.067 C  
HETATM   12  C   UNL     1      -8.386   9.491  68.567  1.00  0.00    -0.118 C  
BRANCH  11  13
HETATM   13  C   UNL     1      -6.974   9.935  70.698  1.00  0.00    -0.064 C  
HETATM   14  O   UNL     1      -7.053   9.445  71.815  1.00  0.00    -0.319 OA 
BRANCH  13  15
HETATM   15  O   UNL     1      -6.720  11.243  70.431  1.00  0.00    -0.193 OA 
BRANCH  15  16
HETATM   16  C   UNL     1      -5.889  11.430  69.267  1.00  0.00    -0.051 C  
BRANCH  16  17
HETATM   17  C   UNL     1      -5.689  12.935  69.021  1.00  0.00    -0.072 C  
BRANCH  17  18
HETATM   18  N   UNL     1      -6.229  13.469  67.759  1.00  0.00    -0.153 NA 
HETATM   19  C   UNL     1      -8.713  13.522  68.360  1.00  0.00    -0.140 C  
HETATM   20  C   UNL     1      -7.585  12.961  67.454  1.00  0.00    -0.148 C  
HETATM   21  N   UNL     1      -8.799  15.005  68.372  1.00  0.00    -0.171 NA 
HETATM   22  C   UNL     1      -6.287  14.951  67.845  1.00  0.00    -0.159 C  
HETATM   23  C   UNL     1      -7.443  15.508  68.720  1.00  0.00    -0.141 C  
BRANCH  21  24
HETATM   24  C   UNL     1      -9.289  15.546  67.067  1.00  0.00    -0.224 C  
BRANCH  24  25
HETATM   25  C   UNL     1     -10.432  14.717  66.456  1.00  0.00    -0.291 A  
HETATM   26  C   UNL     1     -10.250  14.098  65.203  1.00  0.00    -0.411 A  
HETATM   27  C   UNL     1     -11.651  14.506  67.120  1.00  0.00    -0.406 A  
HETATM   28  C   UNL     1     -11.253  13.307  64.637  1.00  0.00    -0.370 A  
HETATM   29  C   UNL     1     -12.463  13.131  65.302  1.00  0.00    -0.550 A  
HETATM   30  C   UNL     1     -12.662  13.733  66.541  1.00  0.00    -0.073 A  
ENDBRANCH  24  25
BRANCH  24  31
HETATM   31  C   UNL     1      -9.623  17.044  67.146  1.00  0.00    -0.253 A  
HETATM   32  C   UNL     1     -10.498  19.707  67.382  1.00  0.00    -0.596 A  
HETATM   33  C   UNL     1     -10.403  19.113  66.127  1.00  0.00    -0.561 A  
HETATM   34  C   UNL     1      -9.704  17.667  68.405  1.00  0.00    -0.321 A  
HETATM   35  C   UNL     1      -9.974  17.790  66.009  1.00  0.00    -0.219 A  
HETATM   36  C   UNL     1     -10.148  18.986  68.521  1.00  0.00    -0.467 A  
ENDBRANCH  24  31
ENDBRANCH  21  24
ENDBRANCH  17  18
ENDBRANCH  16  17
ENDBRANCH  15  16
ENDBRANCH  13  15
ENDBRANCH  11  13
BRANCH  12  37
HETATM   37  C   UNL     1      -9.607   9.854  69.429  1.00  0.00    -0.229 A  
HETATM   38  C   UNL     1     -11.546  11.251  69.874  1.00  0.00    -0.413 A  
HETATM   39  O   UNL     1     -10.903   7.342  72.469  1.00  0.00    -0.237 OA 
HETATM   40  C   UNL     1     -10.015   8.983  70.460  1.00  0.00    -0.263 A  
HETATM   41  O   UNL     1     -12.648   8.611  72.863  1.00  0.00    -0.289 OA 
HETATM   42  C   UNL     1     -11.183   9.254  71.182  1.00  0.00    -0.343 A  
HETATM   43  C   UNL     1     -11.957  10.382  70.886  1.00  0.00    -0.478 A  
HETATM   44  N   UNL     1     -11.609   8.335  72.247  1.00  0.00    -0.358 N  
HETATM   45  C   UNL     1     -10.374  10.996  69.158  1.00  0.00    -0.210 A  
ENDBRANCH  12  37
ENDBRANCH   3   5
ENDBRANCH   2   3
TORSDOF 11
ENDMDL
MODEL       25
REMARK 921   NORMALIZED FREE ENERGY PREDICTED BY IDOCK:   -6.09 KCAL/MOL
REMARK 922        TOTAL FREE ENERGY PREDICTED BY IDOCK:  -11.86 KCAL/MOL
REMARK 923 INTER-LIGAND FREE ENERGY PREDICTED BY IDOCK:  -10.26 KCAL/MOL
REMARK 924 INTRA-LIGAND FREE ENERGY PREDICTED BY IDOCK:   -1.60 KCAL/MOL
REMARK 927      BINDING AFFINITY PREDICTED BY RF-SCORE:    0.00 PKD
ROOT
HETATM    1  C   UNL     1     -12.047  15.979  72.772  1.00  0.00    -0.531 C  
HETATM    2  O   UNL     1     -11.567  15.247  71.641  1.00  0.00    -0.351 OA 
ENDROOT
BRANCH   2   3
HETATM    3  C   UNL     1     -12.517  15.036  70.694  1.00  0.00    -0.365 C  
HETATM    4  O   UNL     1     -13.458  15.785  70.471  1.00  0.00    -0.366 OA 
BRANCH   3   5
HETATM    5  C   UNL     1     -12.280  13.746  69.994  1.00  0.00    -0.407 C  
HETATM    6  C   UNL     1     -12.521  12.556  70.604  1.00  0.00    -0.238 C  
HETATM    7  N   UNL     1     -12.244  11.374  69.934  1.00  0.00    -0.293 NA 
HETATM    8  C   UNL     1     -13.066  12.342  71.994  1.00  0.00    -0.470 C  
HETATM    9  C   UNL     1     -11.545  11.290  68.749  1.00  0.00    -0.316 C  
HETATM   10  C   UNL     1     -11.110   9.905  68.330  1.00  0.00    -0.193 C  
HETATM   11  C   UNL     1     -11.269  12.419  68.058  1.00  0.00    -0.317 C  
HETATM   12  C   UNL     1     -11.715  13.795  68.566  1.00  0.00    -0.391 C  
BRANCH  11  13
HETATM   13  C   UNL     1     -10.391  12.343  66.872  1.00  0.00    -0.224 C  
HETATM   14  O   UNL     1     -10.805  12.343  65.722  1.00  0.00    -0.263 OA 
BRANCH  13  15
HETATM   15  O   UNL     1      -9.084  12.248  67.234  1.00  0.00    -0.172 OA 
BRANCH  15  16
HETATM   16  C   UNL     1      -8.369  11.230  66.504  1.00  0.00    -0.168 C  
BRANCH  16  17
HETATM   17  C   UNL     1      -7.823  10.185  67.491  1.00  0.00    -0.102 C  
BRANCH  17  18
HETATM   18  N   UNL     1      -7.161   9.009  66.899  1.00  0.00    -0.085 NA 
HETATM   19  C   UNL     1      -8.252   7.170  68.302  1.00  0.00    -0.124 C  
HETATM   20  C   UNL     1      -6.959   7.914  67.874  1.00  0.00    -0.077 C  
HETATM   21  N   UNL     1      -9.028   6.604  67.169  1.00  0.00    -0.117 NA 
HETATM   22  C   UNL     1      -7.992   8.497  65.779  1.00  0.00    -0.107 C  
HETATM   23  C   UNL     1      -9.264   7.718  66.213  1.00  0.00    -0.166 C  
BRANCH  21  24
HETATM   24  C   UNL     1      -8.322   5.449  66.533  1.00  0.00    -0.109 C  
BRANCH  24  25
HETATM   25  C   UNL     1      -8.141   4.250  67.480  1.00  0.00    -0.099 A  
HETATM   26  C   UNL     1      -6.870   3.658  67.619  1.00  0.00    -0.050 A  
HETATM   27  C   UNL     1      -9.190   3.740  68.262  1.00  0.00    -0.215 A  
HETATM   28  C   UNL     1      -6.662   2.593  68.499  1.00  0.00    -0.036 A  
HETATM   29  C   UNL     1      -7.722   2.088  69.246  1.00  0.00    -0.045 A  
HETATM   30  C   UNL     1      -8.986   2.660  69.126  1.00  0.00    -0.171 A  
ENDBRANCH  24  25
BRANCH  24  31
HETATM   31  C   UNL     1      -8.953   5.049  65.190  1.00  0.00    -0.143 A  
HETATM   32  C   UNL     1     -10.044   4.045  62.800  1.00  0.00    -0.154 A  
HETATM   33  C   UNL     1      -8.800   4.671  62.789  1.00  0.00    -0.127 A  
HETATM   34  C   UNL     1     -10.218   4.433  65.177  1.00  0.00    -0.199 A  
HETATM   35  C   UNL     1      -8.256   5.165  63.975  1.00  0.00    -0.131 A  
HETATM   36  C   UNL     1     -10.753   3.927  63.992  1.00  0.00    -0.226 A  
ENDBRANCH  24  31
ENDBRANCH  21  24
ENDBRANCH  17  18
ENDBRANCH  16  17
ENDBRANCH  15  16
ENDBRANCH  13  15
ENDBRANCH  11  13
BRANCH  12  37
HETATM   37  C   UNL     1     -10.584  14.824  68.407  1.00  0.00    -0.242 A  
HETATM   38  C   UNL     1      -8.358  15.627  68.964  1.00  0.00    -0.235 A  
HETATM   39  O   UNL     1     -10.733  17.729  65.447  1.00  0.00    -0.626 OA 
HETATM   40  C   UNL     1     -10.671  15.803  67.398  1.00  0.00    -0.317 A  
HETATM   41  O   UNL     1      -8.725  18.448  65.958  1.00  0.00    -0.499 OA 
HETATM   42  C   UNL     1      -9.600  16.680  67.181  1.00  0.00    -0.241 A  
HETATM   43  C   UNL     1      -8.438  16.589  67.955  1.00  0.00    -0.182 A  
HETATM   44  N   UNL     1      -9.694  17.691  66.117  1.00  0.00    -0.253 N  
HETATM   45  C   UNL     1      -9.426  14.759  69.197  1.00  0.00    -0.115 A  
ENDBRANCH  12  37
ENDBRANCH   3   5
ENDBRANCH   2   3
TORSDOF 11
ENDMDL
MODEL       26
REMARK 921   NORMALIZED FREE ENERGY PREDICTED BY IDOCK:   -6.08 KCAL/MOL
REMARK 922        TOTAL FREE ENERGY PREDICTED BY IDOCK:  -11.85 KCAL/MOL
REMARK 923 INTER-LIGAND FREE ENERGY PREDICTED BY IDOCK:  -11.01 KCAL/MOL
REMARK 924 INTRA-LIGAND FREE ENERGY PREDICTED BY IDOCK:   -0.84 KCAL/MOL
REMARK 927      BINDING AFFINITY PREDICTED BY RF-SCORE:    0.00 PKD
ROOT
HETATM    1  C   UNL     1      -7.182  17.447  66.120  1.00  0.00    -0.292 C  
HETATM    2  O   UNL     1      -8.267  16.546  66.362  1.00  0.00    -0.275 OA 
ENDROOT
BRANCH   2   3
HETATM    3  C   UNL     1      -9.479  17.156  66.384  1.00  0.00    -0.269 C  
HETATM    4  O   UNL     1      -9.925  17.853  65.482  1.00  0.00    -0.481 OA 
BRANCH   3   5
HETATM    5  C   UNL     1     -10.174  16.895  67.672  1.00  0.00    -0.306 C  
HETATM    6  C   UNL     1      -9.992  17.703  68.749  1.00  0.00    -0.358 C  
HETATM    7  N   UNL     1     -10.623  17.400  69.947  1.00  0.00     0.208 NA 
HETATM    8  C   UNL     1      -9.140  18.944  68.819  1.00  0.00    -0.352 C  
HETATM    9  C   UNL     1     -11.278  16.216  70.210  1.00  0.00    -0.381 C  
HETATM   10  C   UNL     1     -11.651  15.970  71.654  1.00  0.00    -0.538 C  
HETATM   11  C   UNL     1     -11.520  15.351  69.200  1.00  0.00    -0.344 C  
HETATM   12  C   UNL     1     -11.079  15.656  67.764  1.00  0.00    -0.311 C  
BRANCH  11  13
HETATM   13  C   UNL     1     -12.082  14.020  69.509  1.00  0.00    -0.347 C  
HETATM   14  O   UNL     1     -12.635  13.310  68.681  1.00  0.00     0.189 OA 
BRANCH  13  15
HETATM   15  O   UNL     1     -11.926  13.714  70.824  1.00  0.00    -0.311 OA 
BRANCH  15  16
HETATM   16  C   UNL     1     -13.004  12.912  71.349  1.00  0.00    -0.270 C  
BRANCH  16  17
HETATM   17  C   UNL     1     -12.449  11.558  71.819  1.00  0.00     0.033 C  
BRANCH  17  18
HETATM   18  N   UNL     1     -12.549  10.441  70.863  1.00  0.00    -0.355 NA 
HETATM   19  C   UNL     1     -10.156  10.452  69.962  1.00  0.00    -0.025 C  
HETATM   20  C   UNL     1     -11.673  10.617  69.683  1.00  0.00    -0.296 C  
HETATM   21  N   UNL     1      -9.792   9.153  70.581  1.00  0.00    -0.228 NA 
HETATM   22  C   UNL     1     -12.169   9.180  71.550  1.00  0.00    -0.349 C  
HETATM   23  C   UNL     1     -10.645   9.001  71.790  1.00  0.00    -0.356 C  
BRANCH  21  24
HETATM   24  C   UNL     1      -9.954   8.014  69.625  1.00  0.00    -0.188 C  
BRANCH  24  25
HETATM   25  C   UNL     1      -9.269   8.258  68.268  1.00  0.00    -0.135 A  
HETATM   26  C   UNL     1      -7.892   8.553  68.227  1.00  0.00    -0.106 A  
HETATM   27  C   UNL     1      -9.953   8.151  67.047  1.00  0.00    -0.329 A  
HETATM   28  C   UNL     1      -7.231   8.742  67.010  1.00  0.00    -0.079 A  
HETATM   29  C   UNL     1      -7.934   8.655  65.812  1.00  0.00    -0.106 A  
HETATM   30  C   UNL     1      -9.295   8.362  65.831  1.00  0.00    -0.205 A  
ENDBRANCH  24  25
BRANCH  24  31
HETATM   31  C   UNL     1      -9.561   6.667  70.250  1.00  0.00    -0.169 A  
HETATM   32  C   UNL     1      -8.618   4.198  71.213  1.00  0.00    -0.122 A  
HETATM   33  C   UNL     1      -9.721   4.240  70.365  1.00  0.00    -0.280 A  
HETATM   34  C   UNL     1      -8.461   6.607  71.126  1.00  0.00    -0.126 A  
HETATM   35  C   UNL     1     -10.187   5.464  69.883  1.00  0.00    -0.351 A  
HETATM   36  C   UNL     1      -7.989   5.381  71.595  1.00  0.00    -0.116 A  
ENDBRANCH  24  31
ENDBRANCH  21  24
ENDBRANCH  17  18
ENDBRANCH  16  17
ENDBRANCH  15  16
ENDBRANCH  13  15
ENDBRANCH  11  13
BRANCH  12  37
HETATM   37  C   UNL     1     -10.453  14.412  67.113  1.00  0.00    -0.263 A  
HETATM   38  C   UNL     1      -8.949  12.504  67.202  1.00  0.00    -0.200 A  
HETATM   39  O   UNL     1     -11.927  12.897  63.540  1.00  0.00    -0.500 OA 
HETATM   40  C   UNL     1     -10.972  13.929  65.894  1.00  0.00    -0.284 A  
HETATM   41  O   UNL     1     -10.564  11.181  63.629  1.00  0.00    -0.371 OA 
HETATM   42  C   UNL     1     -10.476  12.740  65.346  1.00  0.00    -0.286 A  
HETATM   43  C   UNL     1      -9.472  12.019  66.001  1.00  0.00    -0.229 A  
HETATM   44  N   UNL     1     -11.030  12.237  64.081  1.00  0.00    -0.331 N  
HETATM   45  C   UNL     1      -9.427  13.697  67.748  1.00  0.00    -0.221 A  
ENDBRANCH  12  37
ENDBRANCH   3   5
ENDBRANCH   2   3
TORSDOF 11
ENDMDL
MODEL       27
REMARK 921   NORMALIZED FREE ENERGY PREDICTED BY IDOCK:   -6.01 KCAL/MOL
REMARK 922        TOTAL FREE ENERGY PREDICTED BY IDOCK:  -11.73 KCAL/MOL
REMARK 923 INTER-LIGAND FREE ENERGY PREDICTED BY IDOCK:   -9.85 KCAL/MOL
REMARK 924 INTRA-LIGAND FREE ENERGY PREDICTED BY IDOCK:   -1.88 KCAL/MOL
REMARK 927      BINDING AFFINITY PREDICTED BY RF-SCORE:    0.00 PKD
ROOT
HETATM    1  C   UNL     1     -12.810  15.534  71.074  1.00  0.00    -0.482 C  
HETATM    2  O   UNL     1     -11.514  15.998  70.688  1.00  0.00    -0.362 OA 
ENDROOT
BRANCH   2   3
HETATM    3  C   UNL     1     -11.330  16.026  69.344  1.00  0.00    -0.355 C  
HETATM    4  O   UNL     1     -12.231  16.075  68.517  1.00  0.00    -0.013 OA 
BRANCH   3   5
HETATM    5  C   UNL     1      -9.883  15.945  69.011  1.00  0.00    -0.234 C  
HETATM    6  C   UNL     1      -9.164  17.059  68.713  1.00  0.00    -0.252 C  
HETATM    7  N   UNL     1      -7.828  16.938  68.362  1.00  0.00    -0.218 NA 
HETATM    8  C   UNL     1      -9.659  18.483  68.700  1.00  0.00    -0.382 C  
HETATM    9  C   UNL     1      -7.194  15.745  68.089  1.00  0.00    -0.118 C  
HETATM   10  C   UNL     1      -5.824  15.848  67.460  1.00  0.00    -0.152 C  
HETATM   11  C   UNL     1      -7.821  14.580  68.366  1.00  0.00    -0.135 C  
HETATM   12  C   UNL     1      -9.228  14.556  68.974  1.00  0.00    -0.059 C  
BRANCH  11  13
HETATM   13  C   UNL     1      -7.207  13.308  67.932  1.00  0.00    -0.137 C  
HETATM   14  O   UNL     1      -7.405  12.798  66.839  1.00  0.00     0.016 OA 
BRANCH  13  15
HETATM   15  O   UNL     1      -6.426  12.781  68.912  1.00  0.00    -0.079 OA 
BRANCH  15  16
HETATM   16  C   UNL     1      -6.268  11.351  68.800  1.00  0.00    -0.050 C  
BRANCH  16  17
HETATM   17  C   UNL     1      -6.728  10.685  70.107  1.00  0.00    -0.140 C  
BRANCH  17  18
HETATM   18  N   UNL     1      -6.640   9.215  70.159  1.00  0.00    -0.044 NA 
HETATM   19  C   UNL     1      -8.950   8.695  71.123  1.00  0.00    -0.201 C  
HETATM   20  C   UNL     1      -7.408   8.634  71.283  1.00  0.00    -0.096 C  
HETATM   21  N   UNL     1      -9.456   8.061  69.880  1.00  0.00    -0.160 NA 
HETATM   22  C   UNL     1      -7.163   8.652  68.888  1.00  0.00    -0.077 C  
HETATM   23  C   UNL     1      -8.710   8.679  68.751  1.00  0.00    -0.135 C  
BRANCH  21  24
HETATM   24  C   UNL     1      -9.307   6.573  69.912  1.00  0.00    -0.152 C  
BRANCH  24  25
HETATM   25  C   UNL     1      -9.935   5.926  71.159  1.00  0.00    -0.236 A  
HETATM   26  C   UNL     1     -11.281   6.192  71.478  1.00  0.00    -0.346 A  
HETATM   27  C   UNL     1      -9.232   5.030  71.980  1.00  0.00    -0.160 A  
HETATM   28  C   UNL     1     -11.894   5.591  72.581  1.00  0.00    -0.176 A  
HETATM   29  C   UNL     1     -11.170   4.726  73.396  1.00  0.00    -0.425 A  
HETATM   30  C   UNL     1      -9.839   4.447  73.097  1.00  0.00    -0.173 A  
ENDBRANCH  24  25
BRANCH  24  31
HETATM   31  C   UNL     1      -9.774   5.912  68.606  1.00  0.00    -0.155 A  
HETATM   32  C   UNL     1     -10.407   4.835  66.085  1.00  0.00    -0.337 A  
HETATM   33  C   UNL     1     -11.153   5.893  66.598  1.00  0.00    -0.104 A  
HETATM   34  C   UNL     1      -9.046   4.829  68.080  1.00  0.00    -0.141 A  
HETATM   35  C   UNL     1     -10.837   6.432  67.847  1.00  0.00    -0.404 A  
HETATM   36  C   UNL     1      -9.355   4.302  66.826  1.00  0.00    -0.180 A  
ENDBRANCH  24  31
ENDBRANCH  21  24
ENDBRANCH  17  18
ENDBRANCH  16  17
ENDBRANCH  15  16
ENDBRANCH  13  15
ENDBRANCH  11  13
BRANCH  12  37
HETATM   37  C   UNL     1     -10.103  13.503  68.275  1.00  0.00    -0.247 A  
HETATM   38  C   UNL     1     -11.296  11.385  68.300  1.00  0.00    -0.354 A  
HETATM   39  O   UNL     1     -11.870  14.287  64.601  1.00  0.00    -0.400 OA 
HETATM   40  C   UNL     1     -10.681  13.798  67.023  1.00  0.00    -0.283 A  
HETATM   41  O   UNL     1     -12.940  12.372  64.632  1.00  0.00    -0.793 OA 
HETATM   42  C   UNL     1     -11.560  12.886  66.426  1.00  0.00    -0.371 A  
HETATM   43  C   UNL     1     -11.879  11.683  67.066  1.00  0.00    -0.038 A  
HETATM   44  N   UNL     1     -12.168  13.206  65.127  1.00  0.00    -0.423 N  
HETATM   45  C   UNL     1     -10.407  12.282  68.895  1.00  0.00    -0.085 A  
ENDBRANCH  12  37
ENDBRANCH   3   5
ENDBRANCH   2   3
TORSDOF 11
ENDMDL
MODEL       28
REMARK 921   NORMALIZED FREE ENERGY PREDICTED BY IDOCK:   -5.99 KCAL/MOL
REMARK 922        TOTAL FREE ENERGY PREDICTED BY IDOCK:  -11.70 KCAL/MOL
REMARK 923 INTER-LIGAND FREE ENERGY PREDICTED BY IDOCK:  -10.61 KCAL/MOL
REMARK 924 INTRA-LIGAND FREE ENERGY PREDICTED BY IDOCK:   -1.10 KCAL/MOL
REMARK 927      BINDING AFFINITY PREDICTED BY RF-SCORE:    0.00 PKD
ROOT
HETATM    1  C   UNL     1     -10.686   6.376  71.379  1.00  0.00    -0.245 C  
HETATM    2  O   UNL     1     -11.342   7.591  71.006  1.00  0.00    -0.262 OA 
ENDROOT
BRANCH   2   3
HETATM    3  C   UNL     1     -10.561   8.691  71.154  1.00  0.00    -0.228 C  
HETATM    4  O   UNL     1      -9.839   8.910  72.118  1.00  0.00    -0.312 OA 
BRANCH   3   5
HETATM    5  C   UNL     1     -10.736   9.617  70.003  1.00  0.00    -0.298 C  
HETATM    6  C   UNL     1     -11.874  10.341  69.847  1.00  0.00    -0.193 C  
HETATM    7  N   UNL     1     -12.018  11.159  68.735  1.00  0.00    -0.523 NA 
HETATM    8  C   UNL     1     -13.070  10.363  70.764  1.00  0.00    -0.362 C  
HETATM    9  C   UNL     1     -11.175  11.156  67.645  1.00  0.00    -0.297 C  
HETATM   10  C   UNL     1     -11.657  11.912  66.429  1.00  0.00    -0.315 C  
HETATM   11  C   UNL     1     -10.008  10.476  67.709  1.00  0.00    -0.198 C  
HETATM   12  C   UNL     1      -9.603   9.703  68.969  1.00  0.00    -0.168 C  
BRANCH  11  13
HETATM   13  C   UNL     1      -9.180  10.347  66.492  1.00  0.00    -0.160 C  
HETATM   14  O   UNL     1      -9.209   9.372  65.755  1.00  0.00    -0.184 OA 
BRANCH  13  15
HETATM   15  O   UNL     1      -8.378  11.432  66.326  1.00  0.00    -0.168 OA 
BRANCH  15  16
HETATM   16  C   UNL     1      -7.317  11.503  67.301  1.00  0.00    -0.131 C  
BRANCH  16  17
HETATM   17  C   UNL     1      -6.543  12.819  67.115  1.00  0.00     0.056 C  
BRANCH  17  18
HETATM   18  N   UNL     1      -6.735  13.844  68.155  1.00  0.00    -0.108 NA 
HETATM   19  C   UNL     1      -8.335  15.403  66.912  1.00  0.00    -0.255 C  
HETATM   20  C   UNL     1      -6.958  15.196  67.595  1.00  0.00    -0.182 C  
HETATM   21  N   UNL     1      -9.496  15.101  67.786  1.00  0.00    -0.194 NA 
HETATM   22  C   UNL     1      -7.911  13.478  68.987  1.00  0.00     0.157 C  
HETATM   23  C   UNL     1      -9.288  13.726  68.313  1.00  0.00    -0.209 C  
BRANCH  21  24
HETATM   24  C   UNL     1      -9.650  16.111  68.878  1.00  0.00    -0.245 C  
BRANCH  24  25
HETATM   25  C   UNL     1      -9.645  17.563  68.369  1.00  0.00    -0.303 A  
HETATM   26  C   UNL     1     -10.730  18.035  67.602  1.00  0.00    -0.360 A  
HETATM   27  C   UNL     1      -8.617  18.468  68.676  1.00  0.00    -0.323 A  
HETATM   28  C   UNL     1     -10.776  19.359  67.156  1.00  0.00    -0.593 A  
HETATM   29  C   UNL     1      -9.734  20.232  67.452  1.00  0.00    -0.584 A  
HETATM   30  C   UNL     1      -8.654  19.786  68.210  1.00  0.00    -0.317 A  
ENDBRANCH  24  25
BRANCH  24  31
HETATM   31  C   UNL     1     -10.851  15.808  69.787  1.00  0.00    -0.314 A  
HETATM   32  C   UNL     1     -12.870  15.096  71.611  1.00  0.00    -0.439 A  
HETATM   33  C   UNL     1     -12.809  14.480  70.364  1.00  0.00    -0.315 A  
HETATM   34  C   UNL     1     -10.942  16.436  71.043  1.00  0.00     0.157 A  
HETATM   35  C   UNL     1     -11.804  14.829  69.460  1.00  0.00    -0.366 A  
HETATM   36  C   UNL     1     -11.939  16.074  71.951  1.00  0.00    -0.606 A  
ENDBRANCH  24  31
ENDBRANCH  21  24
ENDBRANCH  17  18
ENDBRANCH  16  17
ENDBRANCH  15  16
ENDBRANCH  13  15
ENDBRANCH  11  13
BRANCH  12  37
HETATM   37  C   UNL     1      -9.029   8.325  68.599  1.00  0.00    -0.137 A  
HETATM   38  C   UNL     1      -7.310   6.619  68.813  1.00  0.00    -0.090 A  
HETATM   39  O   UNL     1     -11.268   5.588  66.425  1.00  0.00    -0.065 OA 
HETATM   40  C   UNL     1      -9.812   7.423  67.851  1.00  0.00    -0.177 A  
HETATM   41  O   UNL     1      -9.710   4.057  66.622  1.00  0.00    -0.205 OA 
HETATM   42  C   UNL     1      -9.338   6.130  67.596  1.00  0.00    -0.112 A  
HETATM   43  C   UNL     1      -8.092   5.721  68.084  1.00  0.00    -0.104 A  
HETATM   44  N   UNL     1     -10.167   5.191  66.826  1.00  0.00    -0.229 N  
HETATM   45  C   UNL     1      -7.769   7.915  69.059  1.00  0.00    -0.101 A  
ENDBRANCH  12  37
ENDBRANCH   3   5
ENDBRANCH   2   3
TORSDOF 11
ENDMDL
MODEL       29
REMARK 921   NORMALIZED FREE ENERGY PREDICTED BY IDOCK:   -5.99 KCAL/MOL
REMARK 922        TOTAL FREE ENERGY PREDICTED BY IDOCK:  -11.70 KCAL/MOL
REMARK 923 INTER-LIGAND FREE ENERGY PREDICTED BY IDOCK:   -9.05 KCAL/MOL
REMARK 924 INTRA-LIGAND FREE ENERGY PREDICTED BY IDOCK:   -2.65 KCAL/MOL
REMARK 927      BINDING AFFINITY PREDICTED BY RF-SCORE:    0.00 PKD
ROOT
HETATM    1  C   UNL     1     -11.498  15.833  64.383  1.00  0.00    -0.263 C  
HETATM    2  O   UNL     1     -10.664  14.767  64.847  1.00  0.00    -0.401 OA 
ENDROOT
BRANCH   2   3
HETATM    3  C   UNL     1      -9.968  15.078  65.970  1.00  0.00    -0.310 C  
HETATM    4  O   UNL     1      -8.824  15.513  65.984  1.00  0.00    -0.308 OA 
BRANCH   3   5
HETATM    5  C   UNL     1     -10.771  14.777  67.184  1.00  0.00    -0.299 C  
HETATM    6  C   UNL     1     -11.047  15.739  68.104  1.00  0.00    -0.341 C  
HETATM    7  N   UNL     1     -11.760  15.408  69.248  1.00  0.00    -0.330 NA 
HETATM    8  C   UNL     1     -10.646  17.191  68.048  1.00  0.00    -0.374 C  
HETATM    9  C   UNL     1     -12.054  14.121  69.643  1.00  0.00    -0.349 C  
HETATM   10  C   UNL     1     -12.590  13.964  71.047  1.00  0.00    -0.444 C  
HETATM   11  C   UNL     1     -11.830  13.096  68.792  1.00  0.00    -0.361 C  
HETATM   12  C   UNL     1     -11.251  13.333  67.392  1.00  0.00    -0.316 C  
BRANCH  11  13
HETATM   13  C   UNL     1     -12.000  11.708  69.271  1.00  0.00    -0.317 C  
HETATM   14  O   UNL     1     -12.648  10.861  68.673  1.00  0.00    -0.255 OA 
BRANCH  13  15
HETATM   15  O   UNL     1     -11.370  11.519  70.460  1.00  0.00    -0.019 OA 
BRANCH  15  16
HETATM   16  C   UNL     1     -11.916  10.420  71.219  1.00  0.00    -0.330 C  
BRANCH  16  17
HETATM   17  C   UNL     1     -10.946   9.228  71.157  1.00  0.00    -0.339 C  
BRANCH  17  18
HETATM   18  N   UNL     1     -11.084   8.332  69.996  1.00  0.00    -0.200 NA 
HETATM   19  C   UNL     1      -8.657   8.315  69.194  1.00  0.00    -0.138 C  
HETATM   20  C   UNL     1     -10.141   8.659  68.904  1.00  0.00    -0.202 C  
HETATM   21  N   UNL     1      -8.424   6.894  69.556  1.00  0.00    -0.132 NA 
HETATM   22  C   UNL     1     -10.837   6.933  70.432  1.00  0.00    -0.261 C  
HETATM   23  C   UNL     1      -9.344   6.583  70.682  1.00  0.00    -0.162 C  
BRANCH  21  24
HETATM   24  C   UNL     1      -8.626   5.981  68.388  1.00  0.00    -0.111 C  
BRANCH  24  25
HETATM   25  C   UNL     1      -7.879   6.438  67.123  1.00  0.00    -0.108 A  
HETATM   26  C   UNL     1      -6.499   6.715  67.190  1.00  0.00    -0.042 A  
HETATM   27  C   UNL     1      -8.509   6.549  65.873  1.00  0.00    -0.147 A  
HETATM   28  C   UNL     1      -5.783   7.096  66.052  1.00  0.00    -0.031 A  
HETATM   29  C   UNL     1      -6.433   7.223  64.828  1.00  0.00    -0.037 A  
HETATM   30  C   UNL     1      -7.796   6.952  64.739  1.00  0.00    -0.119 A  
ENDBRANCH  24  25
BRANCH  24  31
HETATM   31  C   UNL     1      -8.343   4.512  68.741  1.00  0.00    -0.086 A  
HETATM   32  C   UNL     1      -7.672   1.811  69.144  1.00  0.00    -0.044 A  
HETATM   33  C   UNL     1      -8.944   2.153  68.694  1.00  0.00    -0.172 A  
HETATM   34  C   UNL     1      -7.070   4.149  69.216  1.00  0.00    -0.050 A  
HETATM   35  C   UNL     1      -9.277   3.493  68.489  1.00  0.00    -0.225 A  
HETATM   36  C   UNL     1      -6.735   2.807  69.406  1.00  0.00    -0.034 A  
ENDBRANCH  24  31
ENDBRANCH  21  24
ENDBRANCH  17  18
ENDBRANCH  16  17
ENDBRANCH  15  16
ENDBRANCH  13  15
ENDBRANCH  11  13
BRANCH  12  37
HETATM   37  C   UNL     1     -10.164  12.293  67.072  1.00  0.00    -0.230 A  
HETATM   38  C   UNL     1      -9.277  10.521  65.663  1.00  0.00    -0.221 A  
HETATM   39  O   UNL     1      -6.559  12.263  69.129  1.00  0.00    -0.095 OA 
HETATM   40  C   UNL     1      -8.955  12.304  67.796  1.00  0.00    -0.177 A  
HETATM   41  O   UNL     1      -5.769  10.663  67.854  1.00  0.00    -0.043 OA 
HETATM   42  C   UNL     1      -7.921  11.428  67.444  1.00  0.00    -0.139 A  
HETATM   43  C   UNL     1      -8.074  10.542  66.372  1.00  0.00    -0.135 A  
HETATM   44  N   UNL     1      -6.658  11.455  68.197  1.00  0.00    -0.056 N  
HETATM   45  C   UNL     1     -10.318  11.381  66.017  1.00  0.00    -0.297 A  
ENDBRANCH  12  37
ENDBRANCH   3   5
ENDBRANCH   2   3
TORSDOF 11
ENDMDL
MODEL       30
REMARK 921   NORMALIZED FREE ENERGY PREDICTED BY IDOCK:   -5.93 KCAL/MOL
REMARK 922        TOTAL FREE ENERGY PREDICTED BY IDOCK:  -11.60 KCAL/MOL
REMARK 923 INTER-LIGAND FREE ENERGY PREDICTED BY IDOCK:  -10.21 KCAL/MOL
REMARK 924 INTRA-LIGAND FREE ENERGY PREDICTED BY IDOCK:   -1.39 KCAL/MOL
REMARK 927      BINDING AFFINITY PREDICTED BY RF-SCORE:    0.00 PKD
ROOT
HETATM    1  C   UNL     1     -10.653  19.332  66.550  1.00  0.00    -0.446 C  
HETATM    2  O   UNL     1     -10.517  18.001  67.057  1.00  0.00    -0.362 OA 
ENDROOT
BRANCH   2   3
HETATM    3  C   UNL     1     -10.117  17.106  66.119  1.00  0.00    -0.305 C  
HETATM    4  O   UNL     1     -10.564  17.041  64.982  1.00  0.00    -0.703 OA 
BRANCH   3   5
HETATM    5  C   UNL     1      -9.091  16.186  66.676  1.00  0.00    -0.282 C  
HETATM    6  C   UNL     1      -7.765  16.475  66.595  1.00  0.00    -0.283 C  
HETATM    7  N   UNL     1      -6.836  15.569  67.085  1.00  0.00    -0.262 NA 
HETATM    8  C   UNL     1      -7.140  17.710  66.000  1.00  0.00    -0.318 C  
HETATM    9  C   UNL     1      -7.128  14.281  67.479  1.00  0.00    -0.167 C  
HETATM   10  C   UNL     1      -5.944  13.373  67.715  1.00  0.00    -0.141 C  
HETATM   11  C   UNL     1      -8.420  13.901  67.604  1.00  0.00    -0.193 C  
HETATM   12  C   UNL     1      -9.569  14.872  67.313  1.00  0.00    -0.216 C  
BRANCH  11  13
HETATM   13  C   UNL     1      -8.732  12.482  67.876  1.00  0.00    -0.180 C  
HETATM   14  O   UNL     1      -8.291  11.554  67.214  1.00  0.00    -0.141 OA 
BRANCH  13  15
HETATM   15  O   UNL     1      -9.583  12.360  68.928  1.00  0.00     0.011 OA 
BRANCH  15  16
HETATM   16  C   UNL     1     -10.655  11.426  68.681  1.00  0.00    -0.199 C  
BRANCH  16  17
HETATM   17  C   UNL     1     -10.917  10.604  69.954  1.00  0.00    -0.274 C  
BRANCH  17  18
HETATM   18  N   UNL     1      -9.806   9.761  70.429  1.00  0.00    -0.252 NA 
HETATM   19  C   UNL     1     -11.140   7.737  71.241  1.00  0.00    -0.246 C  
HETATM   20  C   UNL     1     -10.184   8.910  71.580  1.00  0.00    -0.345 C  
HETATM   21  N   UNL     1     -10.635   6.830  70.180  1.00  0.00    -0.208 NA 
HETATM   22  C   UNL     1      -9.355   8.882  69.320  1.00  0.00    -0.149 C  
HETATM   23  C   UNL     1     -10.296   7.686  69.012  1.00  0.00    -0.213 C  
BRANCH  21  24
HETATM   24  C   UNL     1      -9.468   6.020  70.648  1.00  0.00    -0.168 C  
BRANCH  24  25
HETATM   25  C   UNL     1      -9.704   5.344  72.010  1.00  0.00    -0.198 A  
HETATM   26  C   UNL     1     -11.004   4.935  72.368  1.00  0.00    -0.159 A  
HETATM   27  C   UNL     1      -8.660   5.068  72.908  1.00  0.00    -0.118 A  
HETATM   28  C   UNL     1     -11.247   4.285  73.581  1.00  0.00    -0.325 A  
HETATM   29  C   UNL     1     -10.201   4.044  74.466  1.00  0.00    -0.256 A  
HETATM   30  C   UNL     1      -8.908   4.437  74.130  1.00  0.00    -0.102 A  
ENDBRANCH  24  25
BRANCH  24  31
HETATM   31  C   UNL     1      -8.976   5.034  69.578  1.00  0.00    -0.129 A  
HETATM   32  C   UNL     1      -8.102   3.021  67.818  1.00  0.00    -0.082 A  
HETATM   33  C   UNL     1      -7.182   3.897  68.385  1.00  0.00    -0.055 A  
HETATM   34  C   UNL     1      -9.894   4.152  68.977  1.00  0.00    -0.106 A  
HETATM   35  C   UNL     1      -7.614   4.894  69.263  1.00  0.00    -0.060 A  
HETATM   36  C   UNL     1      -9.457   3.148  68.111  1.00  0.00    -0.217 A  
ENDBRANCH  24  31
ENDBRANCH  21  24
ENDBRANCH  17  18
ENDBRANCH  16  17
ENDBRANCH  15  16
ENDBRANCH  13  15
ENDBRANCH  11  13
BRANCH  12  37
HETATM   37  C   UNL     1     -10.670  14.180  66.494  1.00  0.00    -0.289 A  
HETATM   38  C   UNL     1     -13.020  13.770  66.022  1.00  0.00    -0.128 A  
HETATM   39  O   UNL     1      -9.761  12.087  63.026  1.00  0.00    -0.383 OA 
HETATM   40  C   UNL     1     -10.326  13.469  65.326  1.00  0.00    -0.344 A  
HETATM   41  O   UNL     1     -11.883  11.722  62.610  1.00  0.00     0.442 OA 
HETATM   42  C   UNL     1     -11.331  12.921  64.519  1.00  0.00    -0.341 A  
HETATM   43  C   UNL     1     -12.680  13.078  64.858  1.00  0.00    -0.456 A  
HETATM   44  N   UNL     1     -10.964  12.192  63.296  1.00  0.00    -0.391 N  
HETATM   45  C   UNL     1     -12.024  14.307  66.840  1.00  0.00    -0.467 A  
ENDBRANCH  12  37
ENDBRANCH   3   5
ENDBRANCH   2   3
TORSDOF 11
ENDMDL
MODEL       31
REMARK 921   NORMALIZED FREE ENERGY PREDICTED BY IDOCK:   -5.88 KCAL/MOL
REMARK 922        TOTAL FREE ENERGY PREDICTED BY IDOCK:  -11.52 KCAL/MOL
REMARK 923 INTER-LIGAND FREE ENERGY PREDICTED BY IDOCK:   -9.66 KCAL/MOL
REMARK 924 INTRA-LIGAND FREE ENERGY PREDICTED BY IDOCK:   -1.85 KCAL/MOL
REMARK 927      BINDING AFFINITY PREDICTED BY RF-SCORE:    0.00 PKD
ROOT
HETATM    1  C   UNL     1      -7.989   5.228  70.666  1.00  0.00    -0.103 C  
HETATM    2  O   UNL     1      -8.819   6.376  70.468  1.00  0.00    -0.142 OA 
ENDROOT
BRANCH   2   3
HETATM    3  C   UNL     1      -8.786   7.249  71.507  1.00  0.00    -0.122 C  
HETATM    4  O   UNL     1      -7.782   7.539  72.143  1.00  0.00    -0.085 OA 
BRANCH   3   5
HETATM    5  C   UNL     1     -10.147   7.775  71.794  1.00  0.00    -0.223 C  
HETATM    6  C   UNL     1     -11.058   7.037  72.483  1.00  0.00    -0.274 C  
HETATM    7  N   UNL     1     -12.332   7.544  72.690  1.00  0.00     0.014 NA 
HETATM    8  C   UNL     1     -10.857   5.664  73.070  1.00  0.00    -0.308 C  
HETATM    9  C   UNL     1     -12.838   8.671  72.079  1.00  0.00    -0.379 C  
HETATM   10  C   UNL     1     -14.325   8.894  72.221  1.00  0.00    -0.418 C  
HETATM   11  C   UNL     1     -12.007   9.478  71.382  1.00  0.00    -0.464 C  
HETATM   12  C   UNL     1     -10.512   9.166  71.254  1.00  0.00    -0.398 C  
BRANCH  11  13
HETATM   13  C   UNL     1     -12.574  10.597  70.601  1.00  0.00    -0.365 C  
HETATM   14  O   UNL     1     -12.898  10.507  69.426  1.00  0.00    -0.082 OA 
BRANCH  13  15
HETATM   15  O   UNL     1     -12.658  11.727  71.353  1.00  0.00    -0.337 OA 
BRANCH  15  16
HETATM   16  C   UNL     1     -11.682  12.723  70.985  1.00  0.00     0.886 C  
BRANCH  16  17
HETATM   17  C   UNL     1     -12.286  14.124  71.178  1.00  0.00    -0.372 C  
BRANCH  17  18
HETATM   18  N   UNL     1     -12.613  14.870  69.950  1.00  0.00    -0.221 NA 
HETATM   19  C   UNL     1     -10.264  15.631  69.289  1.00  0.00    -0.250 C  
HETATM   20  C   UNL     1     -11.705  16.015  69.716  1.00  0.00    -0.265 C  
HETATM   21  N   UNL     1     -10.199  14.772  68.079  1.00  0.00    -0.224 NA 
HETATM   22  C   UNL     1     -12.527  13.951  68.786  1.00  0.00     0.208 C  
HETATM   23  C   UNL     1     -11.081  13.603  68.337  1.00  0.00    -0.264 C  
BRANCH  21  24
HETATM   24  C   UNL     1     -10.592  15.518  66.844  1.00  0.00    -0.307 C  
BRANCH  24  25
HETATM   25  C   UNL     1      -9.650  16.689  66.515  1.00  0.00    -0.292 A  
HETATM   26  C   UNL     1      -8.270  16.450  66.360  1.00  0.00    -0.366 A  
HETATM   27  C   UNL     1     -10.114  17.999  66.312  1.00  0.00    -0.363 A  
HETATM   28  C   UNL     1      -7.391  17.484  66.024  1.00  0.00    -0.288 A  
HETATM   29  C   UNL     1      -7.870  18.779  65.852  1.00  0.00    -0.101 A  
HETATM   30  C   UNL     1      -9.231  19.036  65.998  1.00  0.00    -0.077 A  
ENDBRANCH  24  25
BRANCH  24  31
HETATM   31  C   UNL     1     -10.813  14.584  65.644  1.00  0.00    -0.329 A  
HETATM   32  C   UNL     1     -11.413  12.736  63.610  1.00  0.00    -0.544 A  
HETATM   33  C   UNL     1     -10.239  12.604  64.348  1.00  0.00    -0.344 A  
HETATM   34  C   UNL     1     -11.983  14.714  64.874  1.00  0.00    -0.402 A  
HETATM   35  C   UNL     1      -9.943  13.518  65.361  1.00  0.00    -0.220 A  
HETATM   36  C   UNL     1     -12.284  13.791  63.871  1.00  0.00    -0.402 A  
ENDBRANCH  24  31
ENDBRANCH  21  24
ENDBRANCH  17  18
ENDBRANCH  16  17
ENDBRANCH  15  16
ENDBRANCH  13  15
ENDBRANCH  11  13
BRANCH  12  37
HETATM   37  C   UNL     1     -10.033   9.387  69.809  1.00  0.00    -0.217 A  
HETATM   38  C   UNL     1     -10.210   8.937  67.427  1.00  0.00    -0.313 A  
HETATM   39  O   UNL     1      -7.312  12.385  68.893  1.00  0.00    -0.100 OA 
HETATM   40  C   UNL     1      -9.101  10.408  69.534  1.00  0.00    -0.129 A  
HETATM   41  O   UNL     1      -7.477  11.970  66.745  1.00  0.00    -0.092 OA 
HETATM   42  C   UNL     1      -8.737  10.684  68.210  1.00  0.00    -0.135 A  
HETATM   43  C   UNL     1      -9.297   9.958  67.153  1.00  0.00    -0.170 A  
HETATM   44  N   UNL     1      -7.773  11.758  67.930  1.00  0.00    -0.116 N  
HETATM   45  C   UNL     1     -10.567   8.647  68.745  1.00  0.00    -0.169 A  
ENDBRANCH  12  37
ENDBRANCH   3   5
ENDBRANCH   2   3
TORSDOF 11
ENDMDL
MODEL       32
REMARK 921   NORMALIZED FREE ENERGY PREDICTED BY IDOCK:   -5.85 KCAL/MOL
REMARK 922        TOTAL FREE ENERGY PREDICTED BY IDOCK:  -11.48 KCAL/MOL
REMARK 923 INTER-LIGAND FREE ENERGY PREDICTED BY IDOCK:  -10.48 KCAL/MOL
REMARK 924 INTRA-LIGAND FREE ENERGY PREDICTED BY IDOCK:   -1.00 KCAL/MOL
REMARK 927      BINDING AFFINITY PREDICTED BY RF-SCORE:    0.00 PKD
ROOT
HETATM    1  C   UNL     1      -6.446   9.878  64.261  1.00  0.00    -0.126 C  
HETATM    2  O   UNL     1      -7.366  10.335  65.257  1.00  0.00    -0.141 OA 
ENDROOT
BRANCH   2   3
HETATM    3  C   UNL     1      -8.544   9.662  65.251  1.00  0.00    -0.152 C  
HETATM    4  O   UNL     1      -8.654   8.448  65.141  1.00  0.00    -0.175 OA 
BRANCH   3   5
HETATM    5  C   UNL     1      -9.688  10.606  65.354  1.00  0.00    -0.306 C  
HETATM    6  C   UNL     1     -10.261  11.144  64.245  1.00  0.00    -0.340 C  
HETATM    7  N   UNL     1     -11.297  12.057  64.384  1.00  0.00    -0.336 NA 
HETATM    8  C   UNL     1      -9.891  10.875  62.809  1.00  0.00    -0.255 C  
HETATM    9  C   UNL     1     -11.679  12.634  65.577  1.00  0.00    -0.402 C  
HETATM   10  C   UNL     1     -12.633  13.801  65.475  1.00  0.00    -0.551 C  
HETATM   11  C   UNL     1     -11.175  12.158  66.737  1.00  0.00    -0.375 C  
HETATM   12  C   UNL     1     -10.182  10.989  66.757  1.00  0.00    -0.272 C  
BRANCH  11  13
HETATM   13  C   UNL     1     -11.464  12.873  67.997  1.00  0.00    -0.319 C  
HETATM   14  O   UNL     1     -11.107  14.021  68.221  1.00  0.00    -0.239 OA 
BRANCH  13  15
HETATM   15  O   UNL     1     -12.146  12.081  68.866  1.00  0.00    -0.274 OA 
BRANCH  15  16
HETATM   16  C   UNL     1     -12.092  12.558  70.226  1.00  0.00    -0.294 C  
BRANCH  16  17
HETATM   17  C   UNL     1     -12.586  11.453  71.173  1.00  0.00    -0.386 C  
BRANCH  17  18
HETATM   18  N   UNL     1     -12.659  10.093  70.611  1.00  0.00    -0.294 NA 
HETATM   19  C   UNL     1     -10.441   9.166  71.478  1.00  0.00    -0.352 C  
HETATM   20  C   UNL     1     -11.330   9.543  70.265  1.00  0.00    -0.236 C  
HETATM   21  N   UNL     1     -11.074   8.206  72.418  1.00  0.00    -0.343 NA 
HETATM   22  C   UNL     1     -13.300   9.192  71.603  1.00  0.00    -0.383 C  
HETATM   23  C   UNL     1     -12.391   8.784  72.795  1.00  0.00    -0.010 C  
BRANCH  21  24
HETATM   24  C   UNL     1     -11.202   6.841  71.819  1.00  0.00    -0.259 C  
BRANCH  24  25
HETATM   25  C   UNL     1     -10.499   6.706  70.458  1.00  0.00    -0.240 A  
HETATM   26  C   UNL     1      -9.097   6.833  70.382  1.00  0.00    -0.153 A  
HETATM   27  C   UNL     1     -11.194   6.410  69.274  1.00  0.00    -0.440 A  
HETATM   28  C   UNL     1      -8.423   6.678  69.168  1.00  0.00    -0.124 A  
HETATM   29  C   UNL     1      -9.135   6.409  68.003  1.00  0.00    -0.113 A  
HETATM   30  C   UNL     1     -10.520   6.278  68.056  1.00  0.00    -0.278 A  
ENDBRANCH  24  25
BRANCH  24  31
HETATM   31  C   UNL     1     -10.799   5.733  72.804  1.00  0.00    -0.295 A  
HETATM   32  C   UNL     1      -9.862   3.625  74.413  1.00  0.00    -0.169 A  
HETATM   33  C   UNL     1     -11.059   3.490  73.716  1.00  0.00    -0.286 A  
HETATM   34  C   UNL     1      -9.602   5.859  73.533  1.00  0.00    -0.141 A  
HETATM   35  C   UNL     1     -11.523   4.534  72.913  1.00  0.00    -0.111 A  
HETATM   36  C   UNL     1      -9.134   4.808  74.323  1.00  0.00    -0.111 A  
ENDBRANCH  24  31
ENDBRANCH  21  24
ENDBRANCH  17  18
ENDBRANCH  16  17
ENDBRANCH  15  16
ENDBRANCH  13  15
ENDBRANCH  11  13
BRANCH  12  37
HETATM   37  C   UNL     1      -9.032  11.272  67.737  1.00  0.00    -0.141 A  
HETATM   38  C   UNL     1      -7.555  10.559  69.532  1.00  0.00    -0.148 A  
HETATM   39  O   UNL     1      -6.706  14.691  67.378  1.00  0.00    -0.254 OA 
HETATM   40  C   UNL     1      -8.268  12.447  67.593  1.00  0.00    -0.169 A  
HETATM   41  O   UNL     1      -5.381  14.040  69.000  1.00  0.00    -0.076 OA 
HETATM   42  C   UNL     1      -7.155  12.663  68.416  1.00  0.00    -0.101 A  
HETATM   43  C   UNL     1      -6.790  11.717  69.380  1.00  0.00    -0.067 A  
HETATM   44  N   UNL     1      -6.356  13.886  68.251  1.00  0.00    -0.097 N  
HETATM   45  C   UNL     1      -8.674  10.343  68.725  1.00  0.00    -0.146 A  
ENDBRANCH  12  37
ENDBRANCH   3   5
ENDBRANCH   2   3
TORSDOF 11
ENDMDL
MODEL       33
REMARK 921   NORMALIZED FREE ENERGY PREDICTED BY IDOCK:   -5.85 KCAL/MOL
REMARK 922        TOTAL FREE ENERGY PREDICTED BY IDOCK:  -11.48 KCAL/MOL
REMARK 923 INTER-LIGAND FREE ENERGY PREDICTED BY IDOCK:   -9.76 KCAL/MOL
REMARK 924 INTRA-LIGAND FREE ENERGY PREDICTED BY IDOCK:   -1.72 KCAL/MOL
REMARK 927      BINDING AFFINITY PREDICTED BY RF-SCORE:    0.00 PKD
ROOT
HETATM    1  C   UNL     1      -6.248   4.717  72.164  1.00  0.00    -0.021 C  
HETATM    2  O   UNL     1      -7.248   5.737  72.082  1.00  0.00    -0.085 OA 
ENDROOT
BRANCH   2   3
HETATM    3  C   UNL     1      -6.778   6.913  71.594  1.00  0.00    -0.053 C  
HETATM    4  O   UNL     1      -5.593   7.199  71.483  1.00  0.00    -0.035 OA 
BRANCH   3   5
HETATM    5  C   UNL     1      -7.901   7.825  71.252  1.00  0.00    -0.086 C  
HETATM    6  C   UNL     1      -8.742   8.298  72.208  1.00  0.00    -0.200 C  
HETATM    7  N   UNL     1      -9.806   9.110  71.844  1.00  0.00    -0.252 NA 
HETATM    8  C   UNL     1      -8.674   8.032  73.691  1.00  0.00    -0.332 C  
HETATM    9  C   UNL     1     -10.217   9.328  70.546  1.00  0.00    -0.251 C  
HETATM   10  C   UNL     1     -11.554  10.012  70.378  1.00  0.00    -0.379 C  
HETATM   11  C   UNL     1      -9.440   8.907  69.523  1.00  0.00    -0.159 C  
HETATM   12  C   UNL     1      -8.110   8.188  69.774  1.00  0.00    -0.116 C  
BRANCH  11  13
HETATM   13  C   UNL     1      -9.953   9.003  68.140  1.00  0.00    -0.175 C  
HETATM   14  O   UNL     1     -10.746   8.208  67.656  1.00  0.00    -0.221 OA 
BRANCH  13  15
HETATM   15  O   UNL     1      -9.408  10.063  67.487  1.00  0.00    -0.143 OA 
BRANCH  15  16
HETATM   16  C   UNL     1     -10.212  10.517  66.379  1.00  0.00    -0.237 C  
BRANCH  16  17
HETATM   17  C   UNL     1      -9.815  11.958  66.018  1.00  0.00    -0.235 C  
BRANCH  17  18
HETATM   18  N   UNL     1     -10.839  12.993  66.237  1.00  0.00    -0.277 NA 
HETATM   19  C   UNL     1     -10.299  13.605  68.660  1.00  0.00    -0.219 C  
HETATM   20  C   UNL     1     -11.318  13.039  67.637  1.00  0.00    -0.300 C  
HETATM   21  N   UNL     1      -9.799  14.964  68.329  1.00  0.00    -0.214 NA 
HETATM   22  C   UNL     1     -10.269  14.320  65.889  1.00  0.00    -0.324 C  
HETATM   23  C   UNL     1      -9.281  14.901  66.937  1.00  0.00    -0.246 C  
BRANCH  21  24
HETATM   24  C   UNL     1     -10.861  16.004  68.494  1.00  0.00    -0.304 C  
BRANCH  24  25
HETATM   25  C   UNL     1     -11.639  15.875  69.815  1.00  0.00    -0.340 A  
HETATM   26  C   UNL     1     -12.956  15.372  69.801  1.00  0.00     0.226 A  
HETATM   27  C   UNL     1     -11.073  16.194  71.060  1.00  0.00    -0.178 A  
HETATM   28  C   UNL     1     -13.678  15.206  70.986  1.00  0.00    -0.450 A  
HETATM   29  C   UNL     1     -13.105  15.552  72.206  1.00  0.00    -0.517 A  
HETATM   30  C   UNL     1     -11.805  16.048  72.243  1.00  0.00    -0.628 A  
ENDBRANCH  24  25
BRANCH  24  31
HETATM   31  C   UNL     1     -10.325  17.425  68.262  1.00  0.00    -0.374 A  
HETATM   32  C   UNL     1      -9.256  19.935  67.577  1.00  0.00    -0.448 A  
HETATM   33  C   UNL     1      -8.570  19.102  68.456  1.00  0.00    -0.398 A  
HETATM   34  C   UNL     1     -11.015  18.290  67.392  1.00  0.00    -0.132 A  
HETATM   35  C   UNL     1      -9.097  17.854  68.793  1.00  0.00    -0.213 A  
HETATM   36  C   UNL     1     -10.478  19.530  67.046  1.00  0.00    -0.587 A  
ENDBRANCH  24  31
ENDBRANCH  21  24
ENDBRANCH  17  18
ENDBRANCH  16  17
ENDBRANCH  15  16
ENDBRANCH  13  15
ENDBRANCH  11  13
BRANCH  12  37
HETATM   37  C   UNL     1      -7.962   6.978  68.837  1.00  0.00    -0.120 A  
HETATM   38  C   UNL     1      -6.896   5.879  66.949  1.00  0.00    -0.063 A  
HETATM   39  O   UNL     1      -9.867   3.384  69.665  1.00  0.00    -0.071 OA 
HETATM   40  C   UNL     1      -8.630   5.775  69.142  1.00  0.00    -0.110 A  
HETATM   41  O   UNL     1      -8.901   2.403  67.958  1.00  0.00    -0.097 OA 
HETATM   42  C   UNL     1      -8.422   4.639  68.351  1.00  0.00    -0.090 A  
HETATM   43  C   UNL     1      -7.547   4.684  67.259  1.00  0.00    -0.086 A  
HETATM   44  N   UNL     1      -9.112   3.385  68.684  1.00  0.00    -0.135 N  
HETATM   45  C   UNL     1      -7.110   7.021  67.724  1.00  0.00    -0.085 A  
ENDBRANCH  12  37
ENDBRANCH   3   5
ENDBRANCH   2   3
TORSDOF 11
ENDMDL
MODEL       34
REMARK 921   NORMALIZED FREE ENERGY PREDICTED BY IDOCK:   -5.85 KCAL/MOL
REMARK 922        TOTAL FREE ENERGY PREDICTED BY IDOCK:  -11.47 KCAL/MOL
REMARK 923 INTER-LIGAND FREE ENERGY PREDICTED BY IDOCK:  -10.04 KCAL/MOL
REMARK 924 INTRA-LIGAND FREE ENERGY PREDICTED BY IDOCK:   -1.43 KCAL/MOL
REMARK 927      BINDING AFFINITY PREDICTED BY RF-SCORE:    0.00 PKD
ROOT
HETATM    1  C   UNL     1     -11.655  16.038  64.369  1.00  0.00    -0.212 C  
HETATM    2  O   UNL     1     -12.464  14.928  63.972  1.00  0.00    -0.807 OA 
ENDROOT
BRANCH   2   3
HETATM    3  C   UNL     1     -12.630  14.004  64.953  1.00  0.00    -0.342 C  
HETATM    4  O   UNL     1     -13.528  14.024  65.785  1.00  0.00    -0.480 OA 
BRANCH   3   5
HETATM    5  C   UNL     1     -11.547  12.987  64.904  1.00  0.00    -0.362 C  
HETATM    6  C   UNL     1     -11.624  11.913  64.075  1.00  0.00    -0.389 C  
HETATM    7  N   UNL     1     -10.615  10.962  64.092  1.00  0.00    -0.343 NA 
HETATM    8  C   UNL     1     -12.728  11.598  63.097  1.00  0.00    -0.047 C  
HETATM    9  C   UNL     1      -9.612  10.899  65.035  1.00  0.00    -0.251 C  
HETATM   10  C   UNL     1      -8.783   9.636  65.041  1.00  0.00    -0.202 C  
HETATM   11  C   UNL     1      -9.444  11.927  65.897  1.00  0.00    -0.227 C  
HETATM   12  C   UNL     1     -10.350  13.163  65.850  1.00  0.00    -0.295 C  
BRANCH  11  13
HETATM   13  C   UNL     1      -8.473  11.792  67.001  1.00  0.00    -0.175 C  
HETATM   14  O   UNL     1      -7.493  12.512  67.132  1.00  0.00    -0.143 OA 
BRANCH  13  15
HETATM   15  O   UNL     1      -8.800  10.758  67.820  1.00  0.00    -0.129 OA 
BRANCH  15  16
HETATM   16  C   UNL     1      -8.224  10.877  69.137  1.00  0.00    -0.084 C  
BRANCH  16  17
HETATM   17  C   UNL     1      -8.897   9.866  70.080  1.00  0.00    -0.104 C  
BRANCH  17  18
HETATM   18  N   UNL     1      -8.051   8.766  70.574  1.00  0.00    -0.110 NA 
HETATM   19  C   UNL     1      -9.875   7.175  71.396  1.00  0.00    -0.176 C  
HETATM   20  C   UNL     1      -8.646   8.059  71.731  1.00  0.00    -0.133 C  
HETATM   21  N   UNL     1      -9.620   6.154  70.349  1.00  0.00    -0.163 NA 
HETATM   22  C   UNL     1      -7.841   7.786  69.478  1.00  0.00    -0.111 C  
HETATM   23  C   UNL     1      -9.062   6.875  69.175  1.00  0.00    -0.136 C  
BRANCH  21  24
HETATM   24  C   UNL     1      -8.710   5.071  70.836  1.00  0.00    -0.122 C  
BRANCH  24  25
HETATM   25  C   UNL     1      -9.165   4.448  72.168  1.00  0.00    -0.164 A  
HETATM   26  C   UNL     1     -10.517   4.094  72.345  1.00  0.00    -0.172 A  
HETATM   27  C   UNL     1      -8.271   4.168  73.214  1.00  0.00    -0.090 A  
HETATM   28  C   UNL     1     -10.956   3.491  73.527  1.00  0.00    -0.330 A  
HETATM   29  C   UNL     1     -10.058   3.245  74.560  1.00  0.00    -0.205 A  
HETATM   30  C   UNL     1      -8.717   3.585  74.405  1.00  0.00    -0.089 A  
ENDBRANCH  24  25
BRANCH  24  31
HETATM   31  C   UNL     1      -8.431   4.015  69.756  1.00  0.00    -0.089 A  
HETATM   32  C   UNL     1      -7.926   2.298  67.585  1.00  0.00    -0.064 A  
HETATM   33  C   UNL     1      -9.193   2.339  68.162  1.00  0.00    -0.247 A  
HETATM   34  C   UNL     1      -7.151   3.945  69.174  1.00  0.00    -0.047 A  
HETATM   35  C   UNL     1      -9.446   3.194  69.236  1.00  0.00    -0.179 A  
HETATM   36  C   UNL     1      -6.906   3.099  68.091  1.00  0.00    -0.049 A  
ENDBRANCH  24  31
ENDBRANCH  21  24
ENDBRANCH  17  18
ENDBRANCH  16  17
ENDBRANCH  15  16
ENDBRANCH  13  15
ENDBRANCH  11  13
BRANCH  12  37
HETATM   37  C   UNL     1     -10.769  13.582  67.269  1.00  0.00    -0.272 A  
HETATM   38  C   UNL     1     -11.175  15.304  68.937  1.00  0.00    -0.291 A  
HETATM   39  O   UNL     1     -12.443  10.844  69.901  1.00  0.00    -0.319 OA 
HETATM   40  C   UNL     1     -11.326  12.625  68.141  1.00  0.00    -0.334 A  
HETATM   41  O   UNL     1     -12.803  12.404  71.400  1.00  0.00    -0.367 OA 
HETATM   42  C   UNL     1     -11.803  13.018  69.398  1.00  0.00    -0.322 A  
HETATM   43  C   UNL     1     -11.739  14.358  69.795  1.00  0.00    -0.361 A  
HETATM   44  N   UNL     1     -12.394  12.016  70.297  1.00  0.00    -0.240 N  
HETATM   45  C   UNL     1     -10.683  14.918  67.688  1.00  0.00    -0.270 A  
ENDBRANCH  12  37
ENDBRANCH   3   5
ENDBRANCH   2   3
TORSDOF 11
ENDMDL
MODEL       35
REMARK 921   NORMALIZED FREE ENERGY PREDICTED BY IDOCK:   -5.85 KCAL/MOL
REMARK 922        TOTAL FREE ENERGY PREDICTED BY IDOCK:  -11.47 KCAL/MOL
REMARK 923 INTER-LIGAND FREE ENERGY PREDICTED BY IDOCK:   -9.20 KCAL/MOL
REMARK 924 INTRA-LIGAND FREE ENERGY PREDICTED BY IDOCK:   -2.26 KCAL/MOL
REMARK 927      BINDING AFFINITY PREDICTED BY RF-SCORE:    0.00 PKD
ROOT
HETATM    1  C   UNL     1      -6.116  15.054  69.786  1.00  0.00    -0.135 C  
HETATM    2  O   UNL     1      -6.018  13.838  69.040  1.00  0.00    -0.077 OA 
ENDROOT
BRANCH   2   3
HETATM    3  C   UNL     1      -6.673  13.882  67.852  1.00  0.00    -0.159 C  
HETATM    4  O   UNL     1      -6.537  14.762  67.012  1.00  0.00    -0.143 OA 
BRANCH   3   5
HETATM    5  C   UNL     1      -7.610  12.735  67.727  1.00  0.00    -0.141 C  
HETATM    6  C   UNL     1      -7.258  11.604  67.060  1.00  0.00    -0.143 C  
HETATM    7  N   UNL     1      -8.177  10.574  66.926  1.00  0.00    -0.121 NA 
HETATM    8  C   UNL     1      -5.934  11.315  66.400  1.00  0.00    -0.128 C  
HETATM    9  C   UNL     1      -9.515  10.670  67.245  1.00  0.00    -0.158 C  
HETATM   10  C   UNL     1     -10.395   9.538  66.768  1.00  0.00    -0.298 C  
HETATM   11  C   UNL     1      -9.961  11.751  67.923  1.00  0.00    -0.187 C  
HETATM   12  C   UNL     1      -9.010  12.877  68.344  1.00  0.00    -0.124 C  
BRANCH  11  13
HETATM   13  C   UNL     1     -11.414  11.926  68.129  1.00  0.00    -0.320 C  
HETATM   14  O   UNL     1     -12.225  11.978  67.215  1.00  0.00    -0.496 OA 
BRANCH  13  15
HETATM   15  O   UNL     1     -11.712  12.045  69.449  1.00  0.00    -0.297 OA 
BRANCH  15  16
HETATM   16  C   UNL     1     -12.473  10.931  69.959  1.00  0.00    -0.263 C  
BRANCH  16  17
HETATM   17  C   UNL     1     -11.668  10.226  71.062  1.00  0.00    -0.370 C  
BRANCH  17  18
HETATM   18  N   UNL     1     -11.812   8.762  71.145  1.00  0.00    -0.292 NA 
HETATM   19  C   UNL     1      -9.705   8.065  69.876  1.00  0.00    -0.180 C  
HETATM   20  C   UNL     1     -11.253   8.063  69.966  1.00  0.00    -0.090 C  
HETATM   21  N   UNL     1      -9.028   7.504  71.073  1.00  0.00    -0.147 NA 
HETATM   22  C   UNL     1     -11.112   8.273  72.360  1.00  0.00    -0.377 C  
HETATM   23  C   UNL     1      -9.562   8.239  72.250  1.00  0.00    -0.285 C  
BRANCH  21  24
HETATM   24  C   UNL     1      -9.230   6.026  71.186  1.00  0.00    -0.150 C  
BRANCH  24  25
HETATM   25  C   UNL     1      -8.856   5.262  69.904  1.00  0.00    -0.132 A  
HETATM   26  C   UNL     1      -7.603   5.486  69.299  1.00  0.00    -0.086 A  
HETATM   27  C   UNL     1      -9.700   4.300  69.325  1.00  0.00    -0.240 A  
HETATM   28  C   UNL     1      -7.217   4.782  68.156  1.00  0.00    -0.065 A  
HETATM   29  C   UNL     1      -8.080   3.850  67.585  1.00  0.00    -0.090 A  
HETATM   30  C   UNL     1      -9.321   3.612  68.168  1.00  0.00    -0.236 A  
ENDBRANCH  24  25
BRANCH  24  31
HETATM   31  C   UNL     1      -8.559   5.441  72.438  1.00  0.00    -0.122 A  
HETATM   32  C   UNL     1      -7.204   4.178  74.555  1.00  0.00    -0.070 A  
HETATM   33  C   UNL     1      -8.562   3.942  74.358  1.00  0.00    -0.095 A  
HETATM   34  C   UNL     1      -7.192   5.684  72.667  1.00  0.00    -0.090 A  
HETATM   35  C   UNL     1      -9.234   4.564  73.304  1.00  0.00    -0.122 A  
HETATM   36  C   UNL     1      -6.519   5.049  73.712  1.00  0.00    -0.063 A  
ENDBRANCH  24  31
ENDBRANCH  21  24
ENDBRANCH  17  18
ENDBRANCH  16  17
ENDBRANCH  15  16
ENDBRANCH  13  15
ENDBRANCH  11  13
BRANCH  12  37
HETATM   37  C   UNL     1      -9.643  14.251  68.071  1.00  0.00    -0.223 A  
HETATM   38  C   UNL     1     -10.308  16.465  68.825  1.00  0.00    -0.275 A  
HETATM   39  O   UNL     1     -10.582  15.446  64.208  1.00  0.00     0.032 OA 
HETATM   40  C   UNL     1      -9.959  14.622  66.748  1.00  0.00    -0.265 A  
HETATM   41  O   UNL     1     -11.181  17.440  64.899  1.00  0.00    -0.744 OA 
HETATM   42  C   UNL     1     -10.442  15.909  66.479  1.00  0.00    -0.304 A  
HETATM   43  C   UNL     1     -10.608  16.837  67.513  1.00  0.00    -0.309 A  
HETATM   44  N   UNL     1     -10.756  16.292  65.095  1.00  0.00    -0.388 N  
HETATM   45  C   UNL     1      -9.840  15.180  69.104  1.00  0.00    -0.237 A  
ENDBRANCH  12  37
ENDBRANCH   3   5
ENDBRANCH   2   3
TORSDOF 11
ENDMDL
MODEL       36
REMARK 921   NORMALIZED FREE ENERGY PREDICTED BY IDOCK:   -5.83 KCAL/MOL
REMARK 922        TOTAL FREE ENERGY PREDICTED BY IDOCK:  -11.45 KCAL/MOL
REMARK 923 INTER-LIGAND FREE ENERGY PREDICTED BY IDOCK:  -10.59 KCAL/MOL
REMARK 924 INTRA-LIGAND FREE ENERGY PREDICTED BY IDOCK:   -0.86 KCAL/MOL
REMARK 927      BINDING AFFINITY PREDICTED BY RF-SCORE:    0.00 PKD
ROOT
HETATM    1  C   UNL     1      -8.817   2.972  69.887  1.00  0.00    -0.091 C  
HETATM    2  O   UNL     1      -9.633   3.869  70.645  1.00  0.00    -0.164 OA 
ENDROOT
BRANCH   2   3
HETATM    3  C   UNL     1      -8.925   4.638  71.512  1.00  0.00    -0.133 C  
HETATM    4  O   UNL     1      -7.975   4.246  72.177  1.00  0.00    -0.086 OA 
BRANCH   3   5
HETATM    5  C   UNL     1      -9.489   6.012  71.575  1.00  0.00    -0.164 C  
HETATM    6  C   UNL     1     -10.661   6.265  72.215  1.00  0.00    -0.229 C  
HETATM    7  N   UNL     1     -11.178   7.552  72.213  1.00  0.00    -0.266 NA 
HETATM    8  C   UNL     1     -11.524   5.275  72.955  1.00  0.00    -0.339 C  
HETATM    9  C   UNL     1     -10.703   8.587  71.436  1.00  0.00    -0.250 C  
HETATM   10  C   UNL     1     -11.571   9.822  71.370  1.00  0.00    -0.452 C  
HETATM   11  C   UNL     1      -9.535   8.437  70.771  1.00  0.00    -0.199 C  
HETATM   12  C   UNL     1      -8.727   7.138  70.860  1.00  0.00    -0.146 C  
BRANCH  11  13
HETATM   13  C   UNL     1      -9.107   9.484  69.820  1.00  0.00    -0.205 C  
HETATM   14  O   UNL     1      -8.112  10.177  69.980  1.00  0.00    -0.166 OA 
BRANCH  13  15
HETATM   15  O   UNL     1      -9.972   9.584  68.777  1.00  0.00    -0.164 OA 
BRANCH  15  16
HETATM   16  C   UNL     1      -9.704  10.719  67.928  1.00  0.00    -0.167 C  
BRANCH  16  17
HETATM   17  C   UNL     1     -10.850  10.880  66.917  1.00  0.00    -0.249 C  
BRANCH  17  18
HETATM   18  N   UNL     1     -11.708  12.066  67.082  1.00  0.00    -0.566 NA 
HETATM   19  C   UNL     1     -10.835  12.899  69.336  1.00  0.00     0.105 C  
HETATM   20  C   UNL     1     -12.023  12.354  68.499  1.00  0.00    -0.223 C  
HETATM   21  N   UNL     1     -10.210  14.123  68.774  1.00  0.00    -0.233 NA 
HETATM   22  C   UNL     1     -11.020  13.248  66.501  1.00  0.00    -0.286 C  
HETATM   23  C   UNL     1      -9.859  13.814  67.363  1.00  0.00    -0.238 C  
BRANCH  21  24
HETATM   24  C   UNL     1     -11.111  15.312  68.889  1.00  0.00    -0.266 C  
BRANCH  24  25
HETATM   25  C   UNL     1     -11.808  15.417  70.256  1.00  0.00    -0.368 A  
HETATM   26  C   UNL     1     -13.202  15.227  70.343  1.00  0.00    -0.171 A  
HETATM   27  C   UNL     1     -11.103  15.650  71.448  1.00  0.00    -0.293 A  
HETATM   28  C   UNL     1     -13.861  15.278  71.574  1.00  0.00    -0.617 A  
HETATM   29  C   UNL     1     -13.145  15.534  72.740  1.00  0.00    -0.579 A  
HETATM   30  C   UNL     1     -11.767  15.722  72.676  1.00  0.00    -0.542 A  
ENDBRANCH  24  25
BRANCH  24  31
HETATM   31  C   UNL     1     -10.407  16.616  68.483  1.00  0.00    -0.303 A  
HETATM   32  C   UNL     1      -9.126  19.077  68.021  1.00  0.00    -0.350 A  
HETATM   33  C   UNL     1     -10.472  18.923  67.703  1.00  0.00    -0.514 A  
HETATM   34  C   UNL     1      -9.042  16.785  68.778  1.00  0.00    -0.259 A  
HETATM   35  C   UNL     1     -11.111  17.703  67.937  1.00  0.00     0.041 A  
HETATM   36  C   UNL     1      -8.410  18.010  68.557  1.00  0.00    -0.313 A  
ENDBRANCH  24  31
ENDBRANCH  21  24
ENDBRANCH  17  18
ENDBRANCH  16  17
ENDBRANCH  15  16
ENDBRANCH  13  15
ENDBRANCH  11  13
BRANCH  12  37
HETATM   37  C   UNL     1      -8.216   6.721  69.471  1.00  0.00    -0.131 A  
HETATM   38  C   UNL     1      -6.391   6.154  67.968  1.00  0.00    -0.036 A  
HETATM   39  O   UNL     1     -10.846   5.526  66.491  1.00  0.00    -0.288 OA 
HETATM   40  C   UNL     1      -9.137   6.330  68.478  1.00  0.00    -0.125 A  
HETATM   41  O   UNL     1      -9.193   5.020  65.142  1.00  0.00    -0.155 OA 
HETATM   42  C   UNL     1      -8.675   5.853  67.245  1.00  0.00    -0.108 A  
HETATM   43  C   UNL     1      -7.303   5.754  66.990  1.00  0.00    -0.080 A  
HETATM   44  N   UNL     1      -9.642   5.435  66.220  1.00  0.00    -0.156 N  
HETATM   45  C   UNL     1      -6.843   6.645  69.195  1.00  0.00    -0.069 A  
ENDBRANCH  12  37
ENDBRANCH   3   5
ENDBRANCH   2   3
TORSDOF 11
ENDMDL
MODEL       37
REMARK 921   NORMALIZED FREE ENERGY PREDICTED BY IDOCK:   -5.83 KCAL/MOL
REMARK 922        TOTAL FREE ENERGY PREDICTED BY IDOCK:  -11.44 KCAL/MOL
REMARK 923 INTER-LIGAND FREE ENERGY PREDICTED BY IDOCK:   -9.72 KCAL/MOL
REMARK 924 INTRA-LIGAND FREE ENERGY PREDICTED BY IDOCK:   -1.71 KCAL/MOL
REMARK 927      BINDING AFFINITY PREDICTED BY RF-SCORE:    0.00 PKD
ROOT
HETATM    1  C   UNL     1     -10.253   5.662  72.780  1.00  0.00    -0.185 C  
HETATM    2  O   UNL     1     -10.720   7.014  72.750  1.00  0.00    -0.236 OA 
ENDROOT
BRANCH   2   3
HETATM    3  C   UNL     1     -11.710   7.221  71.845  1.00  0.00    -0.287 C  
HETATM    4  O   UNL     1     -12.575   6.404  71.557  1.00  0.00    -0.206 OA 
BRANCH   3   5
HETATM    5  C   UNL     1     -11.576   8.562  71.218  1.00  0.00    -0.332 C  
HETATM    6  C   UNL     1     -12.495   9.539  71.437  1.00  0.00    -0.362 C  
HETATM    7  N   UNL     1     -12.359  10.763  70.798  1.00  0.00    -0.349 NA 
HETATM    8  C   UNL     1     -13.714   9.458  72.321  1.00  0.00    -0.495 C  
HETATM    9  C   UNL     1     -11.464  11.022  69.782  1.00  0.00    -0.311 C  
HETATM   10  C   UNL     1     -11.663  12.320  69.036  1.00  0.00    -0.376 C  
HETATM   11  C   UNL     1     -10.501  10.117  69.498  1.00  0.00    -0.263 C  
HETATM   12  C   UNL     1     -10.384   8.803  70.280  1.00  0.00    -0.227 C  
BRANCH  11  13
HETATM   13  C   UNL     1      -9.642  10.324  68.313  1.00  0.00    -0.142 C  
HETATM   14  O   UNL     1     -10.042  10.226  67.162  1.00  0.00    -0.191 OA 
BRANCH  13  15
HETATM   15  O   UNL     1      -8.364  10.607  68.677  1.00  0.00    -0.121 OA 
BRANCH  15  16
HETATM   16  C   UNL     1      -7.729  11.568  67.808  1.00  0.00    -0.124 C  
BRANCH  16  17
HETATM   17  C   UNL     1      -7.852  12.971  68.424  1.00  0.00    -0.134 C  
BRANCH  17  18
HETATM   18  N   UNL     1      -7.635  14.108  67.512  1.00  0.00    -0.179 NA 
HETATM   19  C   UNL     1      -8.991  15.892  68.743  1.00  0.00    -0.216 C  
HETATM   20  C   UNL     1      -8.788  15.035  67.466  1.00  0.00    -0.185 C  
HETATM   21  N   UNL     1      -7.804  16.697  69.128  1.00  0.00    -0.214 NA 
HETATM   22  C   UNL     1      -6.437  14.865  67.958  1.00  0.00    -0.150 C  
HETATM   23  C   UNL     1      -6.658  15.753  69.214  1.00  0.00    -0.160 C  
BRANCH  21  24
HETATM   24  C   UNL     1      -7.551  17.813  68.164  1.00  0.00    -0.250 C  
BRANCH  24  25
HETATM   25  C   UNL     1      -8.840  18.408  67.572  1.00  0.00    -0.267 A  
HETATM   26  C   UNL     1      -9.690  19.180  68.389  1.00  0.00    -0.451 A  
HETATM   27  C   UNL     1      -9.190  18.257  66.221  1.00  0.00    -0.216 A  
HETATM   28  C   UNL     1     -10.848  19.768  67.874  1.00  0.00    -0.234 A  
HETATM   29  C   UNL     1     -11.189  19.584  66.537  1.00  0.00     0.059 A  
HETATM   30  C   UNL     1     -10.362  18.827  65.712  1.00  0.00    -0.254 A  
ENDBRANCH  24  25
BRANCH  24  31
HETATM   31  C   UNL     1      -6.619  18.886  68.748  1.00  0.00    -0.296 A  
HETATM   32  C   UNL     1      -5.149  21.008  69.866  1.00  0.00    -0.400 A  
HETATM   33  C   UNL     1      -5.173  20.828  68.486  1.00  0.00    -0.331 A  
HETATM   34  C   UNL     1      -6.565  19.070  70.142  1.00  0.00     0.113 A  
HETATM   35  C   UNL     1      -5.906  19.778  67.929  1.00  0.00    -0.225 A  
HETATM   36  C   UNL     1      -5.844  20.129  70.694  1.00  0.00    -0.372 A  
ENDBRANCH  24  31
ENDBRANCH  21  24
ENDBRANCH  17  18
ENDBRANCH  16  17
ENDBRANCH  15  16
ENDBRANCH  13  15
ENDBRANCH  11  13
BRANCH  12  37
HETATM   37  C   UNL     1     -10.130   7.625  69.325  1.00  0.00    -0.190 A  
HETATM   38  C   UNL     1     -10.850   6.174  67.512  1.00  0.00    -0.422 A  
HETATM   39  O   UNL     1      -6.380   5.866  69.049  1.00  0.00    -0.037 OA 
HETATM   40  C   UNL     1      -8.847   7.044  69.263  1.00  0.00    -0.139 A  
HETATM   41  O   UNL     1      -7.040   4.560  67.415  1.00  0.00    -0.062 OA 
HETATM   42  C   UNL     1      -8.580   6.039  68.325  1.00  0.00    -0.115 A  
HETATM   43  C   UNL     1      -9.575   5.608  67.441  1.00  0.00    -0.123 A  
HETATM   44  N   UNL     1      -7.236   5.447  68.258  1.00  0.00    -0.070 N  
HETATM   45  C   UNL     1     -11.128   7.166  68.454  1.00  0.00     0.003 A  
ENDBRANCH  12  37
ENDBRANCH   3   5
ENDBRANCH   2   3
TORSDOF 11
ENDMDL
MODEL       38
REMARK 921   NORMALIZED FREE ENERGY PREDICTED BY IDOCK:   -5.81 KCAL/MOL
REMARK 922        TOTAL FREE ENERGY PREDICTED BY IDOCK:  -11.41 KCAL/MOL
REMARK 923 INTER-LIGAND FREE ENERGY PREDICTED BY IDOCK:   -9.80 KCAL/MOL
REMARK 924 INTRA-LIGAND FREE ENERGY PREDICTED BY IDOCK:   -1.61 KCAL/MOL
REMARK 927      BINDING AFFINITY PREDICTED BY RF-SCORE:    0.00 PKD
ROOT
HETATM    1  C   UNL     1     -10.051   6.359  74.468  1.00  0.00    -0.339 C  
HETATM    2  O   UNL     1     -10.834   6.875  73.387  1.00  0.00    -0.306 OA 
ENDROOT
BRANCH   2   3
HETATM    3  C   UNL     1     -10.130   7.676  72.547  1.00  0.00    -0.229 C  
HETATM    4  O   UNL     1      -9.555   8.704  72.881  1.00  0.00    -0.183 OA 
BRANCH   3   5
HETATM    5  C   UNL     1     -10.187   7.156  71.156  1.00  0.00    -0.200 C  
HETATM    6  C   UNL     1     -11.375   6.930  70.535  1.00  0.00    -0.327 C  
HETATM    7  N   UNL     1     -11.388   6.401  69.253  1.00  0.00    -0.378 NA 
HETATM    8  C   UNL     1     -12.753   7.179  71.093  1.00  0.00    -0.363 C  
HETATM    9  C   UNL     1     -10.285   5.886  68.606  1.00  0.00    -0.192 C  
HETATM   10  C   UNL     1     -10.559   5.110  67.339  1.00  0.00    -0.108 C  
HETATM   11  C   UNL     1      -9.055   6.072  69.137  1.00  0.00    -0.124 C  
HETATM   12  C   UNL     1      -8.860   6.843  70.448  1.00  0.00    -0.152 C  
BRANCH  11  13
HETATM   13  C   UNL     1      -7.895   5.391  68.527  1.00  0.00    -0.088 C  
HETATM   14  O   UNL     1      -7.430   4.340  68.946  1.00  0.00    -0.055 OA 
BRANCH  13  15
HETATM   15  O   UNL     1      -7.410   6.097  67.472  1.00  0.00    -0.074 OA 
BRANCH  15  16
HETATM   16  C   UNL     1      -6.972   7.423  67.834  1.00  0.00    -0.072 C  
BRANCH  16  17
HETATM   17  C   UNL     1      -7.458   8.426  66.775  1.00  0.00    -0.083 C  
BRANCH  17  18
HETATM   18  N   UNL     1      -7.589   9.827  67.212  1.00  0.00    -0.088 NA 
HETATM   19  C   UNL     1      -9.813  10.404  66.091  1.00  0.00    -0.222 C  
HETATM   20  C   UNL     1      -8.291  10.673  66.221  1.00  0.00    -0.155 C  
HETATM   21  N   UNL     1     -10.561  10.523  67.368  1.00  0.00    -0.244 NA 
HETATM   22  C   UNL     1      -8.346   9.868  68.489  1.00  0.00    -0.108 C  
HETATM   23  C   UNL     1      -9.876   9.639  68.348  1.00  0.00    -0.153 C  
BRANCH  21  24
HETATM   24  C   UNL     1     -10.638  11.941  67.839  1.00  0.00    -0.201 C  
BRANCH  24  25
HETATM   25  C   UNL     1     -11.024  12.931  66.726  1.00  0.00    -0.300 A  
HETATM   26  C   UNL     1     -10.119  13.944  66.351  1.00  0.00    -0.298 A  
HETATM   27  C   UNL     1     -12.236  12.842  66.023  1.00  0.00    -0.431 A  
HETATM   28  C   UNL     1     -10.421  14.836  65.319  1.00  0.00    -0.427 A  
HETATM   29  C   UNL     1     -11.639  14.744  64.651  1.00  0.00    -0.401 A  
HETATM   30  C   UNL     1     -12.546  13.749  65.005  1.00  0.00    -0.427 A  
ENDBRANCH  24  25
BRANCH  24  31
HETATM   31  C   UNL     1     -11.514  12.091  69.092  1.00  0.00    -0.357 A  
HETATM   32  C   UNL     1     -12.875  12.431  71.531  1.00  0.00    -0.377 A  
HETATM   33  C   UNL     1     -12.628  11.150  71.043  1.00  0.00    -0.503 A  
HETATM   34  C   UNL     1     -11.792  13.378  69.590  1.00  0.00    -0.394 A  
HETATM   35  C   UNL     1     -11.949  10.981  69.835  1.00  0.00    -0.427 A  
HETATM   36  C   UNL     1     -12.459  13.544  70.805  1.00  0.00    -0.428 A  
ENDBRANCH  24  31
ENDBRANCH  21  24
ENDBRANCH  17  18
ENDBRANCH  16  17
ENDBRANCH  15  16
ENDBRANCH  13  15
ENDBRANCH  11  13
BRANCH  12  37
HETATM   37  C   UNL     1      -7.856   6.118  71.358  1.00  0.00    -0.108 A  
HETATM   38  C   UNL     1      -5.740   6.058  72.553  1.00  0.00    -0.036 A  
HETATM   39  O   UNL     1      -8.884   2.597  73.301  1.00  0.00    -0.077 OA 
HETATM   40  C   UNL     1      -8.234   4.919  71.996  1.00  0.00    -0.115 A  
HETATM   41  O   UNL     1      -6.971   2.551  74.372  1.00  0.00    -0.032 OA 
HETATM   42  C   UNL     1      -7.363   4.306  72.905  1.00  0.00    -0.074 A  
HETATM   43  C   UNL     1      -6.120   4.878  73.195  1.00  0.00    -0.030 A  
HETATM   44  N   UNL     1      -7.770   3.062  73.575  1.00  0.00    -0.055 N  
HETATM   45  C   UNL     1      -6.596   6.668  71.634  1.00  0.00    -0.054 A  
ENDBRANCH  12  37
ENDBRANCH   3   5
ENDBRANCH   2   3
TORSDOF 11
ENDMDL
MODEL       39
REMARK 921   NORMALIZED FREE ENERGY PREDICTED BY IDOCK:   -5.79 KCAL/MOL
REMARK 922        TOTAL FREE ENERGY PREDICTED BY IDOCK:  -11.38 KCAL/MOL
REMARK 923 INTER-LIGAND FREE ENERGY PREDICTED BY IDOCK:  -10.09 KCAL/MOL
REMARK 924 INTRA-LIGAND FREE ENERGY PREDICTED BY IDOCK:   -1.29 KCAL/MOL
REMARK 927      BINDING AFFINITY PREDICTED BY RF-SCORE:    0.00 PKD
ROOT
HETATM    1  C   UNL     1     -11.779  16.064  64.453  1.00  0.00    -0.134 C  
HETATM    2  O   UNL     1     -12.482  14.924  63.953  1.00  0.00    -0.806 OA 
ENDROOT
BRANCH   2   3
HETATM    3  C   UNL     1     -12.645  13.944  64.878  1.00  0.00    -0.347 C  
HETATM    4  O   UNL     1     -13.610  13.842  65.623  1.00  0.00    -0.478 OA 
BRANCH   3   5
HETATM    5  C   UNL     1     -11.470  13.033  64.890  1.00  0.00    -0.348 C  
HETATM    6  C   UNL     1     -11.380  11.984  64.031  1.00  0.00    -0.403 C  
HETATM    7  N   UNL     1     -10.290  11.130  64.105  1.00  0.00    -0.336 NA 
HETATM    8  C   UNL     1     -12.370  11.599  62.961  1.00  0.00     0.027 C  
HETATM    9  C   UNL     1      -9.361  11.130  65.123  1.00  0.00    -0.213 C  
HETATM   10  C   UNL     1      -8.419   9.950  65.164  1.00  0.00    -0.158 C  
HETATM   11  C   UNL     1      -9.359  12.141  66.021  1.00  0.00    -0.174 C  
HETATM   12  C   UNL     1     -10.371  13.289  65.933  1.00  0.00    -0.293 C  
BRANCH  11  13
HETATM   13  C   UNL     1      -8.466  12.062  67.196  1.00  0.00    -0.180 C  
HETATM   14  O   UNL     1      -7.528  12.822  67.386  1.00  0.00    -0.150 OA 
BRANCH  13  15
HETATM   15  O   UNL     1      -8.813  11.027  68.006  1.00  0.00    -0.130 OA 
BRANCH  15  16
HETATM   16  C   UNL     1      -7.706  10.524  68.784  1.00  0.00    -0.109 C  
BRANCH  16  17
HETATM   17  C   UNL     1      -8.247   9.776  70.013  1.00  0.00    -0.191 C  
BRANCH  17  18
HETATM   18  N   UNL     1      -9.228   8.709  69.752  1.00  0.00    -0.152 NA 
HETATM   19  C   UNL     1      -7.628   6.735  69.472  1.00  0.00    -0.099 C  
HETATM   20  C   UNL     1      -8.706   7.659  68.848  1.00  0.00    -0.135 C  
HETATM   21  N   UNL     1      -8.060   6.055  70.720  1.00  0.00    -0.117 NA 
HETATM   22  C   UNL     1      -9.611   8.076  71.040  1.00  0.00    -0.160 C  
HETATM   23  C   UNL     1      -8.544   7.119  71.639  1.00  0.00    -0.114 C  
BRANCH  21  24
HETATM   24  C   UNL     1      -9.101   5.015  70.456  1.00  0.00    -0.138 C  
BRANCH  24  25
HETATM   25  C   UNL     1      -8.654   3.952  69.437  1.00  0.00    -0.111 A  
HETATM   26  C   UNL     1      -9.517   3.594  68.381  1.00  0.00    -0.214 A  
HETATM   27  C   UNL     1      -7.388   3.347  69.482  1.00  0.00    -0.045 A  
HETATM   28  C   UNL     1      -9.128   2.660  67.417  1.00  0.00    -0.205 A  
HETATM   29  C   UNL     1      -7.876   2.055  67.495  1.00  0.00    -0.060 A  
HETATM   30  C   UNL     1      -7.008   2.397  68.529  1.00  0.00    -0.044 A  
ENDBRANCH  24  25
BRANCH  24  31
HETATM   31  C   UNL     1      -9.648   4.396  71.752  1.00  0.00    -0.221 A  
HETATM   32  C   UNL     1     -10.771   3.061  73.958  1.00  0.00    -0.278 A  
HETATM   33  C   UNL     1     -11.344   4.241  73.493  1.00  0.00    -0.316 A  
HETATM   34  C   UNL     1      -9.070   3.214  72.250  1.00  0.00    -0.142 A  
HETATM   35  C   UNL     1     -10.790   4.902  72.395  1.00  0.00    -0.204 A  
HETATM   36  C   UNL     1      -9.634   2.548  73.339  1.00  0.00    -0.128 A  
ENDBRANCH  24  31
ENDBRANCH  21  24
ENDBRANCH  17  18
ENDBRANCH  16  17
ENDBRANCH  15  16
ENDBRANCH  13  15
ENDBRANCH  11  13
BRANCH  12  37
HETATM   37  C   UNL     1     -10.936  13.621  67.324  1.00  0.00    -0.299 A  
HETATM   38  C   UNL     1     -12.030  12.938  69.385  1.00  0.00    -0.327 A  
HETATM   39  O   UNL     1     -10.245  17.314  69.088  1.00  0.00    -0.321 OA 
HETATM   40  C   UNL     1     -10.691  14.889  67.890  1.00  0.00    -0.265 A  
HETATM   41  O   UNL     1     -11.235  16.689  70.942  1.00  0.00    -0.209 OA 
HETATM   42  C   UNL     1     -11.115  15.165  69.196  1.00  0.00    -0.258 A  
HETATM   43  C   UNL     1     -11.775  14.188  69.951  1.00  0.00    -0.372 A  
HETATM   44  N   UNL     1     -10.844  16.485  69.784  1.00  0.00    -0.336 N  
HETATM   45  C   UNL     1     -11.624  12.659  68.078  1.00  0.00    -0.394 A  
ENDBRANCH  12  37
ENDBRANCH   3   5
ENDBRANCH   2   3
TORSDOF 11
ENDMDL
MODEL       40
REMARK 921   NORMALIZED FREE ENERGY PREDICTED BY IDOCK:   -5.78 KCAL/MOL
REMARK 922        TOTAL FREE ENERGY PREDICTED BY IDOCK:  -11.36 KCAL/MOL
REMARK 923 INTER-LIGAND FREE ENERGY PREDICTED BY IDOCK:  -10.49 KCAL/MOL
REMARK 924 INTRA-LIGAND FREE ENERGY PREDICTED BY IDOCK:   -0.87 KCAL/MOL
REMARK 927      BINDING AFFINITY PREDICTED BY RF-SCORE:    0.00 PKD
ROOT
HETATM    1  C   UNL     1      -9.978   6.608  73.991  1.00  0.00    -0.320 C  
HETATM    2  O   UNL     1     -10.738   7.682  73.430  1.00  0.00    -0.379 OA 
ENDROOT
BRANCH   2   3
HETATM    3  C   UNL     1     -11.407   7.336  72.300  1.00  0.00    -0.272 C  
HETATM    4  O   UNL     1     -11.873   6.227  72.078  1.00  0.00    -0.320 OA 
BRANCH   3   5
HETATM    5  C   UNL     1     -11.458   8.479  71.351  1.00  0.00    -0.344 C  
HETATM    6  C   UNL     1     -12.461   9.395  71.402  1.00  0.00    -0.352 C  
HETATM    7  N   UNL     1     -12.499  10.421  70.470  1.00  0.00    -0.322 NA 
HETATM    8  C   UNL     1     -13.603   9.436  72.385  1.00  0.00    -0.498 C  
HETATM    9  C   UNL     1     -11.706  10.489  69.345  1.00  0.00    -0.223 C  
HETATM   10  C   UNL     1     -12.092  11.530  68.320  1.00  0.00    -0.073 C  
HETATM   11  C   UNL     1     -10.671   9.628  69.208  1.00  0.00    -0.246 C  
HETATM   12  C   UNL     1     -10.363   8.575  70.278  1.00  0.00    -0.218 C  
BRANCH  11  13
HETATM   13  C   UNL     1      -9.919   9.600  67.936  1.00  0.00    -0.166 C  
HETATM   14  O   UNL     1     -10.315   9.031  66.929  1.00  0.00    -0.256 OA 
BRANCH  13  15
HETATM   15  O   UNL     1      -8.737  10.260  68.051  1.00  0.00    -0.121 OA 
BRANCH  15  16
HETATM   16  C   UNL     1      -8.504  11.191  66.973  1.00  0.00    -0.146 C  
BRANCH  16  17
HETATM   17  C   UNL     1      -7.300  12.081  67.321  1.00  0.00    -0.151 C  
BRANCH  17  18
HETATM   18  N   UNL     1      -7.522  13.110  68.352  1.00  0.00    -0.118 NA 
HETATM   19  C   UNL     1      -7.974  15.122  66.841  1.00  0.00    -0.120 C  
HETATM   20  C   UNL     1      -7.083  14.457  67.923  1.00  0.00    -0.159 C  
HETATM   21  N   UNL     1      -9.405  15.233  67.219  1.00  0.00    -0.201 NA 
HETATM   22  C   UNL     1      -8.970  13.166  68.678  1.00  0.00     0.049 C  
HETATM   23  C   UNL     1      -9.851  13.870  67.609  1.00  0.00    -0.236 C  
BRANCH  21  24
HETATM   24  C   UNL     1      -9.617  16.235  68.309  1.00  0.00    -0.218 C  
BRANCH  24  25
HETATM   25  C   UNL     1      -9.854  17.662  67.786  1.00  0.00    -0.292 A  
HETATM   26  C   UNL     1      -9.652  18.761  68.645  1.00  0.00    -0.432 A  
HETATM   27  C   UNL     1     -10.222  17.929  66.458  1.00  0.00    -0.379 A  
HETATM   28  C   UNL     1      -9.821  20.072  68.192  1.00  0.00    -0.499 A  
HETATM   29  C   UNL     1     -10.210  20.312  66.877  1.00  0.00    -0.504 A  
HETATM   30  C   UNL     1     -10.412  19.240  66.012  1.00  0.00    -0.573 A  
ENDBRANCH  24  25
BRANCH  24  31
HETATM   31  C   UNL     1     -10.694  15.787  69.310  1.00  0.00    -0.246 A  
HETATM   32  C   UNL     1     -12.763  15.239  71.135  1.00  0.00    -0.476 A  
HETATM   33  C   UNL     1     -11.454  15.384  71.588  1.00  0.00    -0.492 A  
HETATM   34  C   UNL     1     -12.019  15.616  68.869  1.00  0.00    -0.298 A  
HETATM   35  C   UNL     1     -10.427  15.660  70.684  1.00  0.00    -0.023 A  
HETATM   36  C   UNL     1     -13.045  15.354  69.777  1.00  0.00     0.392 A  
ENDBRANCH  24  31
ENDBRANCH  21  24
ENDBRANCH  17  18
ENDBRANCH  16  17
ENDBRANCH  15  16
ENDBRANCH  13  15
ENDBRANCH  11  13
BRANCH  12  37
HETATM   37  C   UNL     1     -10.047   7.218  69.627  1.00  0.00    -0.195 A  
HETATM   38  C   UNL     1     -10.644   5.393  68.136  1.00  0.00    -0.146 A  
HETATM   39  O   UNL     1      -6.291   5.490  69.999  1.00  0.00    -0.031 OA 
HETATM   40  C   UNL     1      -8.764   6.654  69.781  1.00  0.00    -0.140 A  
HETATM   41  O   UNL     1      -6.840   3.847  68.654  1.00  0.00    -0.045 OA 
HETATM   42  C   UNL     1      -8.435   5.470  69.109  1.00  0.00    -0.104 A  
HETATM   43  C   UNL     1      -9.369   4.842  68.278  1.00  0.00    -0.168 A  
HETATM   44  N   UNL     1      -7.091   4.896  69.265  1.00  0.00    -0.054 N  
HETATM   45  C   UNL     1     -10.984   6.565  68.814  1.00  0.00    -0.371 A  
ENDBRANCH  12  37
ENDBRANCH   3   5
ENDBRANCH   2   3
TORSDOF 11
ENDMDL
MODEL       41
REMARK 921   NORMALIZED FREE ENERGY PREDICTED BY IDOCK:   -5.77 KCAL/MOL
REMARK 922        TOTAL FREE ENERGY PREDICTED BY IDOCK:  -11.35 KCAL/MOL
REMARK 923 INTER-LIGAND FREE ENERGY PREDICTED BY IDOCK:  -10.63 KCAL/MOL
REMARK 924 INTRA-LIGAND FREE ENERGY PREDICTED BY IDOCK:   -0.72 KCAL/MOL
REMARK 927      BINDING AFFINITY PREDICTED BY RF-SCORE:    0.00 PKD
ROOT
HETATM    1  C   UNL     1      -9.338  19.215  69.185  1.00  0.00    -0.187 C  
HETATM    2  O   UNL     1     -10.000  17.948  69.152  1.00  0.00    -0.303 OA 
ENDROOT
BRANCH   2   3
HETATM    3  C   UNL     1      -9.236  16.955  68.630  1.00  0.00    -0.265 C  
HETATM    4  O   UNL     1      -8.185  16.556  69.113  1.00  0.00    -0.233 OA 
BRANCH   3   5
HETATM    5  C   UNL     1      -9.830  16.446  67.366  1.00  0.00    -0.244 C  
HETATM    6  C   UNL     1      -9.829  17.197  66.233  1.00  0.00    -0.291 C  
HETATM    7  N   UNL     1     -10.434  16.706  65.085  1.00  0.00    -0.672 NA 
HETATM    8  C   UNL     1      -9.235  18.571  66.055  1.00  0.00     0.003 C  
HETATM    9  C   UNL     1     -11.230  15.581  65.038  1.00  0.00    -0.358 C  
HETATM   10  C   UNL     1     -12.015  15.375  63.764  1.00  0.00     0.402 C  
HETATM   11  C   UNL     1     -11.287  14.762  66.112  1.00  0.00    -0.330 C  
HETATM   12  C   UNL     1     -10.485  15.057  67.385  1.00  0.00    -0.257 C  
BRANCH  11  13
HETATM   13  C   UNL     1     -12.254  13.645  66.118  1.00  0.00    -0.444 C  
HETATM   14  O   UNL     1     -13.467  13.800  66.076  1.00  0.00    -0.011 OA 
BRANCH  13  15
HETATM   15  O   UNL     1     -11.620  12.446  66.202  1.00  0.00    -0.359 OA 
BRANCH  15  16
HETATM   16  C   UNL     1     -10.555  12.303  65.240  1.00  0.00    -0.287 C  
BRANCH  16  17
HETATM   17  C   UNL     1     -10.116  10.830  65.182  1.00  0.00    -0.299 C  
BRANCH  17  18
HETATM   18  N   UNL     1      -9.242  10.364  66.273  1.00  0.00    -0.163 NA 
HETATM   19  C   UNL     1     -11.001   9.282  67.780  1.00  0.00    -0.004 C  
HETATM   20  C   UNL     1      -9.915  10.373  67.591  1.00  0.00    -0.174 C  
HETATM   21  N   UNL     1     -10.514   7.897  67.552  1.00  0.00    -0.259 NA 
HETATM   22  C   UNL     1      -8.797   8.977  65.979  1.00  0.00    -0.175 C  
HETATM   23  C   UNL     1      -9.877   7.884  66.209  1.00  0.00    -0.069 C  
BRANCH  21  24
HETATM   24  C   UNL     1      -9.579   7.451  68.630  1.00  0.00    -0.146 C  
BRANCH  24  25
HETATM   25  C   UNL     1     -10.190   7.535  70.039  1.00  0.00    -0.215 A  
HETATM   26  C   UNL     1      -9.517   8.251  71.049  1.00  0.00    -0.197 A  
HETATM   27  C   UNL     1     -11.431   6.962  70.360  1.00  0.00    -0.387 A  
HETATM   28  C   UNL     1     -10.062   8.379  72.329  1.00  0.00    -0.382 A  
HETATM   29  C   UNL     1     -11.283   7.782  72.631  1.00  0.00    -0.438 A  
HETATM   30  C   UNL     1     -11.966   7.072  71.647  1.00  0.00    -0.365 A  
ENDBRANCH  24  25
BRANCH  24  31
HETATM   31  C   UNL     1      -8.964   6.074  68.335  1.00  0.00    -0.114 A  
HETATM   32  C   UNL     1      -7.910   3.480  68.064  1.00  0.00    -0.068 A  
HETATM   33  C   UNL     1      -7.055   4.565  68.239  1.00  0.00    -0.057 A  
HETATM   34  C   UNL     1      -9.811   4.968  68.136  1.00  0.00    -0.203 A  
HETATM   35  C   UNL     1      -7.577   5.852  68.378  1.00  0.00    -0.090 A  
HETATM   36  C   UNL     1      -9.287   3.681  68.011  1.00  0.00    -0.237 A  
ENDBRANCH  24  31
ENDBRANCH  21  24
ENDBRANCH  17  18
ENDBRANCH  16  17
ENDBRANCH  15  16
ENDBRANCH  13  15
ENDBRANCH  11  13
BRANCH  12  37
HETATM   37  C   UNL     1     -11.348  14.823  68.635  1.00  0.00    -0.305 A  
HETATM   38  C   UNL     1     -13.025  15.581  70.224  1.00  0.00    -0.141 A  
HETATM   39  O   UNL     1     -11.566  11.080  70.416  1.00  0.00    -0.308 OA 
HETATM   40  C   UNL     1     -11.392  13.541  69.221  1.00  0.00    -0.317 A  
HETATM   41  O   UNL     1     -13.076  11.774  71.847  1.00  0.00    -0.468 OA 
HETATM   42  C   UNL     1     -12.253  13.294  70.298  1.00  0.00    -0.321 A  
HETATM   43  C   UNL     1     -13.078  14.308  70.796  1.00  0.00    -0.321 A  
HETATM   44  N   UNL     1     -12.302  11.952  70.895  1.00  0.00    -0.356 N  
HETATM   45  C   UNL     1     -12.159  15.840  69.160  1.00  0.00    -0.217 A  
ENDBRANCH  12  37
ENDBRANCH   3   5
ENDBRANCH   2   3
TORSDOF 11
ENDMDL
MODEL       42
REMARK 921   NORMALIZED FREE ENERGY PREDICTED BY IDOCK:   -5.75 KCAL/MOL
REMARK 922        TOTAL FREE ENERGY PREDICTED BY IDOCK:  -11.31 KCAL/MOL
REMARK 923 INTER-LIGAND FREE ENERGY PREDICTED BY IDOCK:  -10.24 KCAL/MOL
REMARK 924 INTRA-LIGAND FREE ENERGY PREDICTED BY IDOCK:   -1.07 KCAL/MOL
REMARK 927      BINDING AFFINITY PREDICTED BY RF-SCORE:    0.00 PKD
ROOT
HETATM    1  C   UNL     1     -11.152  16.129  65.264  1.00  0.00    -0.181 C  
HETATM    2  O   UNL     1     -11.680  15.080  64.447  1.00  0.00    -0.383 OA 
ENDROOT
BRANCH   2   3
HETATM    3  C   UNL     1     -12.255  14.079  65.161  1.00  0.00    -0.436 C  
HETATM    4  O   UNL     1     -13.359  14.142  65.686  1.00  0.00    -0.602 OA 
BRANCH   3   5
HETATM    5  C   UNL     1     -11.342  12.910  65.254  1.00  0.00    -0.333 C  
HETATM    6  C   UNL     1     -11.364  11.921  64.322  1.00  0.00    -0.353 C  
HETATM    7  N   UNL     1     -10.528  10.823  64.468  1.00  0.00    -0.339 NA 
HETATM    8  C   UNL     1     -12.234  11.851  63.092  1.00  0.00    -0.340 C  
HETATM    9  C   UNL     1      -9.799  10.539  65.602  1.00  0.00    -0.252 C  
HETATM   10  C   UNL     1      -9.176   9.164  65.665  1.00  0.00    -0.296 C  
HETATM   11  C   UNL     1      -9.704  11.466  66.582  1.00  0.00    -0.224 C  
HETATM   12  C   UNL     1     -10.394  12.829  66.460  1.00  0.00    -0.262 C  
BRANCH  11  13
HETATM   13  C   UNL     1      -9.053  11.104  67.858  1.00  0.00    -0.150 C  
HETATM   14  O   UNL     1      -9.599  10.448  68.733  1.00  0.00    -0.161 OA 
BRANCH  13  15
HETATM   15  O   UNL     1      -7.796  11.616  67.931  1.00  0.00    -0.116 OA 
BRANCH  15  16
HETATM   16  C   UNL     1      -6.809  10.637  68.316  1.00  0.00    -0.068 C  
BRANCH  16  17
HETATM   17  C   UNL     1      -6.937  10.350  69.821  1.00  0.00    -0.138 C  
BRANCH  17  18
HETATM   18  N   UNL     1      -6.509   9.014  70.271  1.00  0.00    -0.040 NA 
HETATM   19  C   UNL     1      -8.721   8.175  71.240  1.00  0.00    -0.145 C  
HETATM   20  C   UNL     1      -7.236   8.555  71.476  1.00  0.00    -0.095 C  
HETATM   21  N   UNL     1      -8.923   7.141  70.193  1.00  0.00    -0.145 NA 
HETATM   22  C   UNL     1      -6.741   8.036  69.177  1.00  0.00    -0.048 C  
HETATM   23  C   UNL     1      -8.226   7.628  68.973  1.00  0.00    -0.127 C  
BRANCH  21  24
HETATM   24  C   UNL     1      -8.430   5.799  70.632  1.00  0.00    -0.128 C  
BRANCH  24  25
HETATM   25  C   UNL     1      -9.224   5.217  71.815  1.00  0.00    -0.168 A  
HETATM   26  C   UNL     1      -8.553   4.468  72.802  1.00  0.00    -0.113 A  
HETATM   27  C   UNL     1     -10.599   5.441  71.985  1.00  0.00    -0.284 A  
HETATM   28  C   UNL     1      -9.236   3.957  73.909  1.00  0.00    -0.098 A  
HETATM   29  C   UNL     1     -10.605   4.171  74.044  1.00  0.00    -0.303 A  
HETATM   30  C   UNL     1     -11.286   4.911  73.081  1.00  0.00    -0.403 A  
ENDBRANCH  24  25
BRANCH  24  31
HETATM   31  C   UNL     1      -8.307   4.812  69.461  1.00  0.00    -0.086 A  
HETATM   32  C   UNL     1      -8.227   2.815  67.481  1.00  0.00    -0.087 A  
HETATM   33  C   UNL     1      -7.090   3.094  68.236  1.00  0.00    -0.050 A  
HETATM   34  C   UNL     1      -9.439   4.531  68.674  1.00  0.00    -0.220 A  
HETATM   35  C   UNL     1      -7.131   4.082  69.222  1.00  0.00    -0.047 A  
HETATM   36  C   UNL     1      -9.400   3.533  67.698  1.00  0.00    -0.250 A  
ENDBRANCH  24  31
ENDBRANCH  21  24
ENDBRANCH  17  18
ENDBRANCH  16  17
ENDBRANCH  15  16
ENDBRANCH  13  15
ENDBRANCH  11  13
BRANCH  12  37
HETATM   37  C   UNL     1     -11.079  13.210  67.782  1.00  0.00    -0.287 A  
HETATM   38  C   UNL     1     -12.410  12.613  69.727  1.00  0.00    -0.090 A  
HETATM   39  O   UNL     1     -10.382  16.890  69.573  1.00  0.00    -0.273 OA 
HETATM   40  C   UNL     1     -10.828  14.472  68.359  1.00  0.00    -0.250 A  
HETATM   41  O   UNL     1     -11.586  16.342  71.322  1.00  0.00    -0.437 OA 
HETATM   42  C   UNL     1     -11.367  14.788  69.612  1.00  0.00    -0.283 A  
HETATM   43  C   UNL     1     -12.150  13.857  70.304  1.00  0.00    -0.423 A  
HETATM   44  N   UNL     1     -11.090  16.101  70.212  1.00  0.00    -0.368 N  
HETATM   45  C   UNL     1     -11.889  12.295  68.472  1.00  0.00    -0.359 A  
ENDBRANCH  12  37
ENDBRANCH   3   5
ENDBRANCH   2   3
TORSDOF 11
ENDMDL
MODEL       43
REMARK 921   NORMALIZED FREE ENERGY PREDICTED BY IDOCK:   -5.75 KCAL/MOL
REMARK 922        TOTAL FREE ENERGY PREDICTED BY IDOCK:  -11.31 KCAL/MOL
REMARK 923 INTER-LIGAND FREE ENERGY PREDICTED BY IDOCK:   -8.62 KCAL/MOL
REMARK 924 INTRA-LIGAND FREE ENERGY PREDICTED BY IDOCK:   -2.69 KCAL/MOL
REMARK 927      BINDING AFFINITY PREDICTED BY RF-SCORE:    0.00 PKD
ROOT
HETATM    1  C   UNL     1     -12.476  14.655  69.962  1.00  0.00    -0.284 C  
HETATM    2  O   UNL     1     -12.253  13.671  68.949  1.00  0.00    -0.336 OA 
ENDROOT
BRANCH   2   3
HETATM    3  C   UNL     1     -11.737  14.184  67.804  1.00  0.00    -0.373 C  
HETATM    4  O   UNL     1     -12.374  14.375  66.776  1.00  0.00    -0.392 OA 
BRANCH   3   5
HETATM    5  C   UNL     1     -10.281  14.444  67.954  1.00  0.00    -0.232 C  
HETATM    6  C   UNL     1      -9.780  15.706  67.895  1.00  0.00    -0.211 C  
HETATM    7  N   UNL     1      -8.410  15.904  67.994  1.00  0.00    -0.158 NA 
HETATM    8  C   UNL     1     -10.558  16.985  67.715  1.00  0.00    -0.350 C  
HETATM    9  C   UNL     1      -7.468  14.900  67.947  1.00  0.00    -0.141 C  
HETATM   10  C   UNL     1      -6.032  15.342  67.791  1.00  0.00    -0.164 C  
HETATM   11  C   UNL     1      -7.867  13.610  68.015  1.00  0.00    -0.150 C  
HETATM   12  C   UNL     1      -9.349  13.238  68.139  1.00  0.00    -0.220 C  
BRANCH  11  13
HETATM   13  C   UNL     1      -6.873  12.535  67.810  1.00  0.00    -0.120 C  
HETATM   14  O   UNL     1      -6.319  12.320  66.742  1.00  0.00    -0.143 OA 
BRANCH  13  15
HETATM   15  O   UNL     1      -6.686  11.816  68.949  1.00  0.00    -0.079 OA 
BRANCH  15  16
HETATM   16  C   UNL     1      -5.559  10.920  68.871  1.00  0.00    -0.040 C  
BRANCH  16  17
HETATM   17  C   UNL     1      -5.937   9.570  69.503  1.00  0.00    -0.033 C  
BRANCH  17  18
HETATM   18  N   UNL     1      -7.273   9.045  69.174  1.00  0.00    -0.066 NA 
HETATM   19  C   UNL     1      -6.686   6.575  68.873  1.00  0.00    -0.057 C  
HETATM   20  C   UNL     1      -7.224   7.890  68.250  1.00  0.00    -0.090 C  
HETATM   21  N   UNL     1      -7.424   6.131  70.082  1.00  0.00    -0.091 NA 
HETATM   22  C   UNL     1      -7.949   8.620  70.427  1.00  0.00    -0.101 C  
HETATM   23  C   UNL     1      -7.433   7.281  71.024  1.00  0.00    -0.075 C  
BRANCH  21  24
HETATM   24  C   UNL     1      -8.803   5.656  69.750  1.00  0.00    -0.124 C  
BRANCH  24  25
HETATM   25  C   UNL     1      -8.821   4.502  68.732  1.00  0.00    -0.132 A  
HETATM   26  C   UNL     1      -8.099   3.323  69.004  1.00  0.00    -0.072 A  
HETATM   27  C   UNL     1      -9.573   4.552  67.547  1.00  0.00    -0.211 A  
HETATM   28  C   UNL     1      -8.124   2.242  68.119  1.00  0.00    -0.067 A  
HETATM   29  C   UNL     1      -8.857   2.322  66.939  1.00  0.00    -0.146 A  
HETATM   30  C   UNL     1      -9.579   3.478  66.652  1.00  0.00    -0.132 A  
ENDBRANCH  24  25
BRANCH  24  31
HETATM   31  C   UNL     1      -9.630   5.346  71.007  1.00  0.00    -0.224 A  
HETATM   32  C   UNL     1     -11.050   5.031  73.415  1.00  0.00    -0.404 A  
HETATM   33  C   UNL     1      -9.878   4.311  73.198  1.00  0.00    -0.174 A  
HETATM   34  C   UNL     1     -10.828   6.048  71.236  1.00  0.00    -0.331 A  
HETATM   35  C   UNL     1      -9.170   4.471  72.005  1.00  0.00    -0.170 A  
HETATM   36  C   UNL     1     -11.526   5.898  72.435  1.00  0.00    -0.358 A  
ENDBRANCH  24  31
ENDBRANCH  21  24
ENDBRANCH  17  18
ENDBRANCH  16  17
ENDBRANCH  15  16
ENDBRANCH  13  15
ENDBRANCH  11  13
BRANCH  12  37
HETATM   37  C   UNL     1      -9.695  12.069  67.202  1.00  0.00    -0.203 A  
HETATM   38  C   UNL     1      -9.777  11.089  64.979  1.00  0.00    -0.303 A  
HETATM   39  O   UNL     1     -10.767   8.357  68.718  1.00  0.00    -0.168 OA 
HETATM   40  C   UNL     1     -10.065  10.824  67.750  1.00  0.00    -0.201 A  
HETATM   41  O   UNL     1     -10.841   7.483  66.708  1.00  0.00    -0.292 OA 
HETATM   42  C   UNL     1     -10.283   9.726  66.907  1.00  0.00    -0.245 A  
HETATM   43  C   UNL     1     -10.130   9.852  65.522  1.00  0.00    -0.297 A  
HETATM   44  N   UNL     1     -10.656   8.428  67.488  1.00  0.00    -0.246 N  
HETATM   45  C   UNL     1      -9.572  12.191  65.810  1.00  0.00    -0.209 A  
ENDBRANCH  12  37
ENDBRANCH   3   5
ENDBRANCH   2   3
TORSDOF 11
ENDMDL
MODEL       44
REMARK 921   NORMALIZED FREE ENERGY PREDICTED BY IDOCK:   -5.74 KCAL/MOL
REMARK 922        TOTAL FREE ENERGY PREDICTED BY IDOCK:  -11.29 KCAL/MOL
REMARK 923 INTER-LIGAND FREE ENERGY PREDICTED BY IDOCK:   -9.83 KCAL/MOL
REMARK 924 INTRA-LIGAND FREE ENERGY PREDICTED BY IDOCK:   -1.45 KCAL/MOL
REMARK 927      BINDING AFFINITY PREDICTED BY RF-SCORE:    0.00 PKD
ROOT
HETATM    1  C   UNL     1     -12.884   6.721  71.344  1.00  0.00    -0.229 C  
HETATM    2  O   UNL     1     -11.673   6.275  70.726  1.00  0.00    -0.340 OA 
ENDROOT
BRANCH   2   3
HETATM    3  C   UNL     1     -10.728   5.881  71.617  1.00  0.00    -0.252 C  
HETATM    4  O   UNL     1     -10.879   4.996  72.449  1.00  0.00    -0.213 OA 
BRANCH   3   5
HETATM    5  C   UNL     1      -9.497   6.701  71.473  1.00  0.00    -0.159 C  
HETATM    6  C   UNL     1      -9.471   8.008  71.846  1.00  0.00    -0.182 C  
HETATM    7  N   UNL     1      -8.317   8.753  71.652  1.00  0.00    -0.285 NA 
HETATM    8  C   UNL     1     -10.597   8.798  72.463  1.00  0.00    -0.083 C  
HETATM    9  C   UNL     1      -7.228   8.335  70.918  1.00  0.00    -0.058 C  
HETATM   10  C   UNL     1      -6.198   9.392  70.596  1.00  0.00    -0.067 C  
HETATM   11  C   UNL     1      -7.154   7.047  70.513  1.00  0.00    -0.064 C  
HETATM   12  C   UNL     1      -8.258   6.039  70.850  1.00  0.00    -0.125 C  
BRANCH  11  13
HETATM   13  C   UNL     1      -6.067   6.639  69.598  1.00  0.00    -0.026 C  
HETATM   14  O   UNL     1      -5.392   5.632  69.757  1.00  0.00    -0.004 OA 
BRANCH  13  15
HETATM   15  O   UNL     1      -5.909   7.539  68.592  1.00  0.00    -0.022 OA 
BRANCH  15  16
HETATM   16  C   UNL     1      -6.807   7.312  67.486  1.00  0.00    -0.074 C  
BRANCH  16  17
HETATM   17  C   UNL     1      -7.297   8.664  66.942  1.00  0.00    -0.079 C  
BRANCH  17  18
HETATM   18  N   UNL     1      -8.756   8.853  66.875  1.00  0.00    -0.118 NA 
HETATM   19  C   UNL     1      -9.016  10.700  68.624  1.00  0.00    -0.170 C  
HETATM   20  C   UNL     1      -9.343   9.252  68.174  1.00  0.00    -0.134 C  
HETATM   21  N   UNL     1      -9.399  11.742  67.638  1.00  0.00    -0.176 NA 
HETATM   22  C   UNL     1      -9.063   9.907  65.874  1.00  0.00    -0.162 C  
HETATM   23  C   UNL     1      -8.771  11.358  66.346  1.00  0.00    -0.185 C  
BRANCH  21  24
HETATM   24  C   UNL     1     -10.883  11.887  67.529  1.00  0.00    -0.238 C  
BRANCH  24  25
HETATM   25  C   UNL     1     -11.568  12.167  68.878  1.00  0.00    -0.377 A  
HETATM   26  C   UNL     1     -12.062  11.092  69.645  1.00  0.00    -0.411 A  
HETATM   27  C   UNL     1     -11.683  13.460  69.413  1.00  0.00    -0.382 A  
HETATM   28  C   UNL     1     -12.655  11.307  70.891  1.00  0.00    -0.467 A  
HETATM   29  C   UNL     1     -12.780  12.600  71.391  1.00  0.00    -0.347 A  
HETATM   30  C   UNL     1     -12.297  13.676  70.651  1.00  0.00    -0.440 A  
ENDBRANCH  24  25
BRANCH  24  31
HETATM   31  C   UNL     1     -11.292  12.892  66.441  1.00  0.00    -0.361 A  
HETATM   32  C   UNL     1     -11.853  14.595  64.274  1.00  0.00    -0.355 A  
HETATM   33  C   UNL     1     -11.044  15.038  65.316  1.00  0.00    -0.391 A  
HETATM   34  C   UNL     1     -12.125  12.469  65.389  1.00  0.00    -0.494 A  
HETATM   35  C   UNL     1     -10.761  14.192  66.390  1.00  0.00    -0.288 A  
HETATM   36  C   UNL     1     -12.395  13.312  64.310  1.00  0.00    -0.406 A  
ENDBRANCH  24  31
ENDBRANCH  21  24
ENDBRANCH  17  18
ENDBRANCH  16  17
ENDBRANCH  15  16
ENDBRANCH  13  15
ENDBRANCH  11  13
BRANCH  12  37
HETATM   37  C   UNL     1      -8.598   5.176  69.624  1.00  0.00    -0.100 A  
HETATM   38  C   UNL     1      -8.579   3.038  68.468  1.00  0.00    -0.118 A  
HETATM   39  O   UNL     1     -11.047   6.623  66.601  1.00  0.00    -0.266 OA 
HETATM   40  C   UNL     1      -9.425   5.702  68.610  1.00  0.00    -0.152 A  
HETATM   41  O   UNL     1     -11.022   4.690  65.564  1.00  0.00    -0.255 OA 
HETATM   42  C   UNL     1      -9.821   4.889  67.540  1.00  0.00    -0.167 A  
HETATM   43  C   UNL     1      -9.409   3.554  67.471  1.00  0.00    -0.249 A  
HETATM   44  N   UNL     1     -10.694   5.441  66.494  1.00  0.00    -0.297 N  
HETATM   45  C   UNL     1      -8.167   3.845  69.530  1.00  0.00    -0.066 A  
ENDBRANCH  12  37
ENDBRANCH   3   5
ENDBRANCH   2   3
TORSDOF 11
ENDMDL
MODEL       45
REMARK 921   NORMALIZED FREE ENERGY PREDICTED BY IDOCK:   -5.72 KCAL/MOL
REMARK 922        TOTAL FREE ENERGY PREDICTED BY IDOCK:  -11.27 KCAL/MOL
REMARK 923 INTER-LIGAND FREE ENERGY PREDICTED BY IDOCK:   -9.38 KCAL/MOL
REMARK 924 INTRA-LIGAND FREE ENERGY PREDICTED BY IDOCK:   -1.88 KCAL/MOL
REMARK 927      BINDING AFFINITY PREDICTED BY RF-SCORE:    0.00 PKD
ROOT
HETATM    1  C   UNL     1     -10.880   3.674  73.557  1.00  0.00    -0.231 C  
HETATM    2  O   UNL     1     -10.522   4.120  72.245  1.00  0.00    -0.158 OA 
ENDROOT
BRANCH   2   3
HETATM    3  C   UNL     1     -10.646   5.462  72.080  1.00  0.00    -0.227 C  
HETATM    4  O   UNL     1     -11.711   6.058  71.989  1.00  0.00    -0.307 OA 
BRANCH   3   5
HETATM    5  C   UNL     1      -9.309   6.104  71.984  1.00  0.00    -0.154 C  
HETATM    6  C   UNL     1      -8.788   6.811  73.021  1.00  0.00    -0.126 C  
HETATM    7  N   UNL     1      -7.558   7.434  72.876  1.00  0.00    -0.078 NA 
HETATM    8  C   UNL     1      -9.413   7.028  74.376  1.00  0.00    -0.229 C  
HETATM    9  C   UNL     1      -6.885   7.572  71.681  1.00  0.00    -0.053 C  
HETATM   10  C   UNL     1      -5.707   8.518  71.686  1.00  0.00    -0.042 C  
HETATM   11  C   UNL     1      -7.317   6.896  70.592  1.00  0.00    -0.074 C  
HETATM   12  C   UNL     1      -8.544   5.979  70.657  1.00  0.00    -0.134 C  
BRANCH  11  13
HETATM   13  C   UNL     1      -6.690   7.163  69.281  1.00  0.00    -0.049 C  
HETATM   14  O   UNL     1      -5.836   6.445  68.781  1.00  0.00    -0.018 OA 
BRANCH  13  15
HETATM   15  O   UNL     1      -7.169   8.311  68.733  1.00  0.00    -0.075 OA 
BRANCH  15  16
HETATM   16  C   UNL     1      -6.133   9.141  68.170  1.00  0.00    -0.050 C  
BRANCH  16  17
HETATM   17  C   UNL     1      -6.441  10.616  68.476  1.00  0.00    -0.054 C  
BRANCH  17  18
HETATM   18  N   UNL     1      -6.660  11.494  67.313  1.00  0.00    -0.100 NA 
HETATM   19  C   UNL     1      -9.213  11.616  67.361  1.00  0.00    -0.168 C  
HETATM   20  C   UNL     1      -7.925  11.201  66.603  1.00  0.00    -0.159 C  
HETATM   21  N   UNL     1      -9.255  13.050  67.744  1.00  0.00    -0.191 NA 
HETATM   22  C   UNL     1      -6.692  12.907  67.772  1.00  0.00    -0.141 C  
HETATM   23  C   UNL     1      -8.001  13.328  68.494  1.00  0.00    -0.097 C  
BRANCH  21  24
HETATM   24  C   UNL     1      -9.416  13.941  66.554  1.00  0.00    -0.274 C  
BRANCH  24  25
HETATM   25  C   UNL     1     -10.437  13.412  65.532  1.00  0.00    -0.297 A  
HETATM   26  C   UNL     1     -11.814  13.480  65.824  1.00  0.00    -0.403 A  
HETATM   27  C   UNL     1     -10.058  12.900  64.280  1.00  0.00    -0.251 A  
HETATM   28  C   UNL     1     -12.770  13.044  64.903  1.00  0.00    -0.456 A  
HETATM   29  C   UNL     1     -12.370  12.518  63.679  1.00  0.00    -0.618 A  
HETATM   30  C   UNL     1     -11.015  12.443  63.369  1.00  0.00    -0.442 A  
ENDBRANCH  24  25
BRANCH  24  31
HETATM   31  C   UNL     1      -9.680  15.401  66.951  1.00  0.00    -0.241 A  
HETATM   32  C   UNL     1     -10.437  18.034  67.591  1.00  0.00    -0.422 A  
HETATM   33  C   UNL     1      -9.695  17.783  66.440  1.00  0.00    -0.315 A  
HETATM   34  C   UNL     1     -10.411  15.677  68.121  1.00  0.00    -0.259 A  
HETATM   35  C   UNL     1      -9.323  16.476  66.119  1.00  0.00    -0.339 A  
HETATM   36  C   UNL     1     -10.794  16.983  68.432  1.00  0.00    -0.333 A  
ENDBRANCH  24  31
ENDBRANCH  21  24
ENDBRANCH  17  18
ENDBRANCH  16  17
ENDBRANCH  15  16
ENDBRANCH  13  15
ENDBRANCH  11  13
BRANCH  12  37
HETATM   37  C   UNL     1      -9.444   6.190  69.429  1.00  0.00    -0.153 A  
HETATM   38  C   UNL     1     -10.877   7.610  68.071  1.00  0.00    -0.068 A  
HETATM   39  O   UNL     1      -9.638   3.353  66.405  1.00  0.00    -0.154 OA 
HETATM   40  C   UNL     1      -9.494   5.202  68.425  1.00  0.00    -0.168 A  
HETATM   41  O   UNL     1     -10.932   4.640  65.189  1.00  0.00    -0.182 OA 
HETATM   42  C   UNL     1     -10.231   5.430  67.256  1.00  0.00    -0.214 A  
HETATM   43  C   UNL     1     -10.915   6.636  67.070  1.00  0.00    -0.463 A  
HETATM   44  N   UNL     1     -10.268   4.400  66.208  1.00  0.00    -0.230 N  
HETATM   45  C   UNL     1     -10.156   7.384  69.246  1.00  0.00    -0.186 A  
ENDBRANCH  12  37
ENDBRANCH   3   5
ENDBRANCH   2   3
TORSDOF 11
ENDMDL
MODEL       46
REMARK 921   NORMALIZED FREE ENERGY PREDICTED BY IDOCK:   -5.70 KCAL/MOL
REMARK 922        TOTAL FREE ENERGY PREDICTED BY IDOCK:  -11.23 KCAL/MOL
REMARK 923 INTER-LIGAND FREE ENERGY PREDICTED BY IDOCK:   -8.49 KCAL/MOL
REMARK 924 INTRA-LIGAND FREE ENERGY PREDICTED BY IDOCK:   -2.73 KCAL/MOL
REMARK 927      BINDING AFFINITY PREDICTED BY RF-SCORE:    0.00 PKD
ROOT
HETATM    1  C   UNL     1     -12.572  11.966  63.538  1.00  0.00    -0.459 C  
HETATM    2  O   UNL     1     -12.094  13.291  63.782  1.00  0.00    -0.470 OA 
ENDROOT
BRANCH   2   3
HETATM    3  C   UNL     1     -12.398  13.753  65.021  1.00  0.00    -0.428 C  
HETATM    4  O   UNL     1     -13.494  13.646  65.557  1.00  0.00    -0.507 OA 
BRANCH   3   5
HETATM    5  C   UNL     1     -11.229  14.446  65.624  1.00  0.00    -0.323 C  
HETATM    6  C   UNL     1     -10.783  15.634  65.137  1.00  0.00    -0.443 C  
HETATM    7  N   UNL     1      -9.661  16.226  65.697  1.00  0.00    -0.500 NA 
HETATM    8  C   UNL     1     -11.373  16.426  63.998  1.00  0.00     0.581 C  
HETATM    9  C   UNL     1      -8.816  15.612  66.596  1.00  0.00    -0.292 C  
HETATM   10  C   UNL     1      -7.509  16.318  66.869  1.00  0.00    -0.271 C  
HETATM   11  C   UNL     1      -9.178  14.432  67.149  1.00  0.00    -0.230 C  
HETATM   12  C   UNL     1     -10.509  13.760  66.795  1.00  0.00    -0.270 C  
BRANCH  11  13
HETATM   13  C   UNL     1      -8.208  13.702  67.992  1.00  0.00    -0.162 C  
HETATM   14  O   UNL     1      -8.362  13.510  69.189  1.00  0.00     0.223 OA 
BRANCH  13  15
HETATM   15  O   UNL     1      -7.129  13.306  67.267  1.00  0.00    -0.136 OA 
BRANCH  15  16
HETATM   16  C   UNL     1      -6.033  12.853  68.088  1.00  0.00    -0.087 C  
BRANCH  16  17
HETATM   17  C   UNL     1      -5.661  11.415  67.692  1.00  0.00    -0.050 C  
BRANCH  17  18
HETATM   18  N   UNL     1      -5.596  10.430  68.785  1.00  0.00    -0.041 NA 
HETATM   19  C   UNL     1      -8.098  10.035  69.136  1.00  0.00    -0.126 C  
HETATM   20  C   UNL     1      -6.745  10.528  69.714  1.00  0.00    -0.126 C  
HETATM   21  N   UNL     1      -8.068   8.639  68.630  1.00  0.00    -0.115 NA 
HETATM   22  C   UNL     1      -5.572   9.062  68.206  1.00  0.00    -0.038 C  
HETATM   23  C   UNL     1      -6.938   8.558  67.666  1.00  0.00    -0.078 C  
BRANCH  21  24
HETATM   24  C   UNL     1      -7.940   7.646  69.741  1.00  0.00    -0.116 C  
BRANCH  24  25
HETATM   25  C   UNL     1      -9.088   7.725  70.762  1.00  0.00    -0.149 A  
HETATM   26  C   UNL     1     -10.420   7.572  70.327  1.00  0.00    -0.227 A  
HETATM   27  C   UNL     1      -8.865   7.899  72.138  1.00  0.00    -0.196 A  
HETATM   28  C   UNL     1     -11.483   7.600  71.233  1.00  0.00    -0.293 A  
HETATM   29  C   UNL     1     -11.239   7.798  72.589  1.00  0.00    -0.438 A  
HETATM   30  C   UNL     1      -9.931   7.949  73.041  1.00  0.00    -0.362 A  
ENDBRANCH  24  25
BRANCH  24  31
HETATM   31  C   UNL     1      -7.710   6.218  69.222  1.00  0.00    -0.100 A  
HETATM   32  C   UNL     1      -7.100   3.719  68.084  1.00  0.00    -0.051 A  
HETATM   33  C   UNL     1      -8.296   4.356  67.765  1.00  0.00    -0.098 A  
HETATM   34  C   UNL     1      -6.516   5.549  69.548  1.00  0.00    -0.042 A  
HETATM   35  C   UNL     1      -8.598   5.599  68.326  1.00  0.00    -0.107 A  
HETATM   36  C   UNL     1      -6.211   4.314  68.975  1.00  0.00    -0.031 A  
ENDBRANCH  24  31
ENDBRANCH  21  24
ENDBRANCH  17  18
ENDBRANCH  16  17
ENDBRANCH  15  16
ENDBRANCH  13  15
ENDBRANCH  11  13
BRANCH  12  37
HETATM   37  C   UNL     1     -10.312  12.252  66.571  1.00  0.00    -0.250 A  
HETATM   38  C   UNL     1     -10.869   9.942  67.087  1.00  0.00    -0.227 A  
HETATM   39  O   UNL     1      -8.039  10.840  63.397  1.00  0.00    -0.056 OA 
HETATM   40  C   UNL     1      -9.526  11.806  65.489  1.00  0.00    -0.185 A  
HETATM   41  O   UNL     1      -8.546   8.760  63.873  1.00  0.00    -0.150 OA 
HETATM   42  C   UNL     1      -9.423  10.436  65.217  1.00  0.00    -0.237 A  
HETATM   43  C   UNL     1     -10.101   9.501  66.007  1.00  0.00    -0.319 A  
HETATM   44  N   UNL     1      -8.611   9.980  64.079  1.00  0.00    -0.173 N  
HETATM   45  C   UNL     1     -10.964  11.305  67.374  1.00  0.00    -0.337 A  
ENDBRANCH  12  37
ENDBRANCH   3   5
ENDBRANCH   2   3
TORSDOF 11
ENDMDL
MODEL       47
REMARK 921   NORMALIZED FREE ENERGY PREDICTED BY IDOCK:   -5.66 KCAL/MOL
REMARK 922        TOTAL FREE ENERGY PREDICTED BY IDOCK:  -11.16 KCAL/MOL
REMARK 923 INTER-LIGAND FREE ENERGY PREDICTED BY IDOCK:   -9.82 KCAL/MOL
REMARK 924 INTRA-LIGAND FREE ENERGY PREDICTED BY IDOCK:   -1.35 KCAL/MOL
REMARK 927      BINDING AFFINITY PREDICTED BY RF-SCORE:    0.00 PKD
ROOT
HETATM    1  C   UNL     1      -9.718   3.438  66.511  1.00  0.00     0.042 C  
HETATM    2  O   UNL     1      -8.341   3.827  66.487  1.00  0.00    -0.102 OA 
ENDROOT
BRANCH   2   3
HETATM    3  C   UNL     1      -7.985   4.610  67.537  1.00  0.00    -0.097 C  
HETATM    4  O   UNL     1      -7.953   4.240  68.704  1.00  0.00    -0.073 OA 
BRANCH   3   5
HETATM    5  C   UNL     1      -7.680   5.992  67.082  1.00  0.00    -0.101 C  
HETATM    6  C   UNL     1      -6.433   6.339  66.669  1.00  0.00    -0.046 C  
HETATM    7  N   UNL     1      -6.176   7.650  66.295  1.00  0.00    -0.044 NA 
HETATM    8  C   UNL     1      -5.225   5.443  66.572  1.00  0.00    -0.008 C  
HETATM    9  C   UNL     1      -7.040   8.706  66.494  1.00  0.00    -0.080 C  
HETATM   10  C   UNL     1      -6.465  10.086  66.274  1.00  0.00    -0.081 C  
HETATM   11  C   UNL     1      -8.309   8.461  66.891  1.00  0.00    -0.106 C  
HETATM   12  C   UNL     1      -8.810   7.032  67.127  1.00  0.00    -0.121 C  
BRANCH  11  13
HETATM   13  C   UNL     1      -9.185   9.596  67.251  1.00  0.00    -0.134 C  
HETATM   14  O   UNL     1      -8.953  10.362  68.175  1.00  0.00    -0.128 OA 
BRANCH  13  15
HETATM   15  O   UNL     1     -10.276   9.649  66.444  1.00  0.00    -0.247 OA 
BRANCH  15  16
HETATM   16  C   UNL     1     -10.074  10.470  65.275  1.00  0.00    -0.300 C  
BRANCH  16  17
HETATM   17  C   UNL     1      -9.649  11.882  65.711  1.00  0.00    -0.224 C  
BRANCH  17  18
HETATM   18  N   UNL     1     -10.736  12.845  65.959  1.00  0.00    -0.274 NA 
HETATM   19  C   UNL     1     -10.324  13.305  68.440  1.00  0.00    -0.251 C  
HETATM   20  C   UNL     1     -11.271  12.764  67.337  1.00  0.00    -0.294 C  
HETATM   21  N   UNL     1      -9.886  14.708  68.228  1.00  0.00    -0.216 NA 
HETATM   22  C   UNL     1     -10.226  14.221  65.730  1.00  0.00    -0.334 C  
HETATM   23  C   UNL     1      -9.311  14.774  66.858  1.00  0.00    -0.240 C  
BRANCH  21  24
HETATM   24  C   UNL     1     -11.009  15.678  68.420  1.00  0.00    -0.308 C  
BRANCH  24  25
HETATM   25  C   UNL     1     -11.694  15.550  69.792  1.00  0.00    -0.362 A  
HETATM   26  C   UNL     1     -13.077  15.284  69.856  1.00  0.00     0.209 A  
HETATM   27  C   UNL     1     -10.987  15.639  71.001  1.00  0.00    -0.285 A  
HETATM   28  C   UNL     1     -13.724  15.124  71.084  1.00  0.00    -0.510 A  
HETATM   29  C   UNL     1     -13.008  15.241  72.272  1.00  0.00    -0.459 A  
HETATM   30  C   UNL     1     -11.640  15.500  72.230  1.00  0.00    -0.554 A  
ENDBRANCH  24  25
BRANCH  24  31
HETATM   31  C   UNL     1     -10.591  17.122  68.102  1.00  0.00    -0.380 A  
HETATM   32  C   UNL     1     -10.056  19.850  67.675  1.00  0.00    -0.564 A  
HETATM   33  C   UNL     1     -10.627  19.085  66.662  1.00  0.00    -0.499 A  
HETATM   34  C   UNL     1      -9.995  17.906  69.107  1.00  0.00    -0.199 A  
HETATM   35  C   UNL     1     -10.898  17.732  66.874  1.00  0.00    -0.048 A  
HETATM   36  C   UNL     1      -9.739  19.262  68.897  1.00  0.00    -0.493 A  
ENDBRANCH  24  31
ENDBRANCH  21  24
ENDBRANCH  17  18
ENDBRANCH  16  17
ENDBRANCH  15  16
ENDBRANCH  13  15
ENDBRANCH  11  13
BRANCH  12  37
HETATM   37  C   UNL     1      -9.638   6.955  68.420  1.00  0.00    -0.126 A  
HETATM   38  C   UNL     1     -11.616   6.220  69.628  1.00  0.00    -0.287 A  
HETATM   39  O   UNL     1      -8.047   8.167  72.057  1.00  0.00    -0.115 OA 
HETATM   40  C   UNL     1      -9.071   7.384  69.637  1.00  0.00    -0.140 A  
HETATM   41  O   UNL     1      -9.836   7.503  73.137  1.00  0.00    -0.210 OA 
HETATM   42  C   UNL     1      -9.780   7.223  70.834  1.00  0.00    -0.170 A  
HETATM   43  C   UNL     1     -11.048   6.633  70.835  1.00  0.00    -0.335 A  
HETATM   44  N   UNL     1      -9.176   7.662  72.101  1.00  0.00    -0.135 N  
HETATM   45  C   UNL     1     -10.922   6.390  68.429  1.00  0.00    -0.390 A  
ENDBRANCH  12  37
ENDBRANCH   3   5
ENDBRANCH   2   3
TORSDOF 11
ENDMDL
MODEL       48
REMARK 921   NORMALIZED FREE ENERGY PREDICTED BY IDOCK:   -5.66 KCAL/MOL
REMARK 922        TOTAL FREE ENERGY PREDICTED BY IDOCK:  -11.16 KCAL/MOL
REMARK 923 INTER-LIGAND FREE ENERGY PREDICTED BY IDOCK:  -10.01 KCAL/MOL
REMARK 924 INTRA-LIGAND FREE ENERGY PREDICTED BY IDOCK:   -1.15 KCAL/MOL
REMARK 927      BINDING AFFINITY PREDICTED BY RF-SCORE:    0.00 PKD
ROOT
HETATM    1  C   UNL     1      -8.948   2.016  68.582  1.00  0.00    -0.121 C  
HETATM    2  O   UNL     1      -8.567   2.558  69.850  1.00  0.00    -0.052 OA 
ENDROOT
BRANCH   2   3
HETATM    3  C   UNL     1      -7.659   3.562  69.755  1.00  0.00    -0.048 C  
HETATM    4  O   UNL     1      -6.805   3.812  70.596  1.00  0.00    -0.032 OA 
BRANCH   3   5
HETATM    5  C   UNL     1      -7.870   4.345  68.509  1.00  0.00    -0.074 C  
HETATM    6  C   UNL     1      -6.906   4.425  67.554  1.00  0.00    -0.052 C  
HETATM    7  N   UNL     1      -7.123   5.203  66.426  1.00  0.00    -0.071 NA 
HETATM    8  C   UNL     1      -5.556   3.755  67.568  1.00  0.00    -0.021 C  
HETATM    9  C   UNL     1      -8.173   6.082  66.269  1.00  0.00    -0.118 C  
HETATM   10  C   UNL     1      -8.077   7.031  65.098  1.00  0.00    -0.124 C  
HETATM   11  C   UNL     1      -9.190   6.068  67.160  1.00  0.00    -0.117 C  
HETATM   12  C   UNL     1      -9.200   5.096  68.346  1.00  0.00    -0.142 C  
BRANCH  11  13
HETATM   13  C   UNL     1     -10.235   7.110  67.080  1.00  0.00    -0.269 C  
HETATM   14  O   UNL     1     -11.409   6.874  66.834  1.00  0.00    -0.269 OA 
BRANCH  13  15
HETATM   15  O   UNL     1      -9.711   8.347  67.286  1.00  0.00    -0.160 OA 
BRANCH  15  16
HETATM   16  C   UNL     1     -10.707   9.391  67.277  1.00  0.00    -0.188 C  
BRANCH  16  17
HETATM   17  C   UNL     1     -10.073  10.695  66.767  1.00  0.00    -0.224 C  
BRANCH  17  18
HETATM   18  N   UNL     1      -9.483  11.579  67.787  1.00  0.00    -0.164 NA 
HETATM   19  C   UNL     1     -10.559  13.791  67.092  1.00  0.00    -0.277 C  
HETATM   20  C   UNL     1      -9.266  12.958  67.295  1.00  0.00    -0.208 C  
HETATM   21  N   UNL     1     -11.411  13.893  68.303  1.00  0.00    -0.291 NA 
HETATM   22  C   UNL     1     -10.388  11.633  68.964  1.00  0.00    -0.092 C  
HETATM   23  C   UNL     1     -11.660  12.503  68.768  1.00  0.00    -0.322 C  
BRANCH  21  24
HETATM   24  C   UNL     1     -10.779  14.742  69.360  1.00  0.00    -0.239 C  
BRANCH  24  25
HETATM   25  C   UNL     1     -10.236  16.077  68.824  1.00  0.00    -0.225 A  
HETATM   26  C   UNL     1     -11.094  16.945  68.118  1.00  0.00    -0.205 A  
HETATM   27  C   UNL     1      -8.916  16.501  69.049  1.00  0.00    -0.225 A  
HETATM   28  C   UNL     1     -10.643  18.182  67.650  1.00  0.00    -0.424 A  
HETATM   29  C   UNL     1      -9.324  18.571  67.864  1.00  0.00    -0.312 A  
HETATM   30  C   UNL     1      -8.461  17.730  68.560  1.00  0.00    -0.296 A  
ENDBRANCH  24  25
BRANCH  24  31
HETATM   31  C   UNL     1     -11.691  14.924  70.583  1.00  0.00    -0.357 A  
HETATM   32  C   UNL     1     -13.418  15.523  72.721  1.00  0.00    -0.650 A  
HETATM   33  C   UNL     1     -12.040  15.549  72.911  1.00  0.00    -0.557 A  
HETATM   34  C   UNL     1     -13.087  14.882  70.416  1.00  0.00    -0.206 A  
HETATM   35  C   UNL     1     -11.181  15.257  71.850  1.00  0.00    -0.350 A  
HETATM   36  C   UNL     1     -13.943  15.189  71.475  1.00  0.00    -0.614 A  
ENDBRANCH  24  31
ENDBRANCH  21  24
ENDBRANCH  17  18
ENDBRANCH  16  17
ENDBRANCH  15  16
ENDBRANCH  13  15
ENDBRANCH  11  13
BRANCH  12  37
HETATM   37  C   UNL     1      -9.639   5.815  69.632  1.00  0.00    -0.193 A  
HETATM   38  C   UNL     1     -11.206   6.101  71.469  1.00  0.00    -0.346 A  
HETATM   39  O   UNL     1      -7.107   8.473  71.570  1.00  0.00    -0.077 OA 
HETATM   40  C   UNL     1      -8.759   6.719  70.260  1.00  0.00    -0.144 A  
HETATM   41  O   UNL     1      -8.528   8.726  73.221  1.00  0.00    -0.366 OA 
HETATM   42  C   UNL     1      -9.110   7.300  71.485  1.00  0.00    -0.140 A  
HETATM   43  C   UNL     1     -10.328   6.986  72.098  1.00  0.00    -0.214 A  
HETATM   44  N   UNL     1      -8.180   8.232  72.139  1.00  0.00    -0.145 N  
HETATM   45  C   UNL     1     -10.870   5.529  70.241  1.00  0.00    -0.285 A  
ENDBRANCH  12  37
ENDBRANCH   3   5
ENDBRANCH   2   3
TORSDOF 11
ENDMDL
MODEL       49
REMARK 921   NORMALIZED FREE ENERGY PREDICTED BY IDOCK:   -5.66 KCAL/MOL
REMARK 922        TOTAL FREE ENERGY PREDICTED BY IDOCK:  -11.16 KCAL/MOL
REMARK 923 INTER-LIGAND FREE ENERGY PREDICTED BY IDOCK:   -9.78 KCAL/MOL
REMARK 924 INTRA-LIGAND FREE ENERGY PREDICTED BY IDOCK:   -1.38 KCAL/MOL
REMARK 927      BINDING AFFINITY PREDICTED BY RF-SCORE:    0.00 PKD
ROOT
HETATM    1  C   UNL     1     -10.345   4.897  72.867  1.00  0.00    -0.188 C  
HETATM    2  O   UNL     1      -9.910   5.827  71.871  1.00  0.00    -0.161 OA 
ENDROOT
BRANCH   2   3
HETATM    3  C   UNL     1      -8.615   5.654  71.502  1.00  0.00    -0.132 C  
HETATM    4  O   UNL     1      -8.001   4.599  71.585  1.00  0.00    -0.096 OA 
BRANCH   3   5
HETATM    5  C   UNL     1      -8.031   6.934  71.021  1.00  0.00    -0.102 C  
HETATM    6  C   UNL     1      -7.797   7.967  71.873  1.00  0.00    -0.106 C  
HETATM    7  N   UNL     1      -7.295   9.162  71.378  1.00  0.00    -0.304 NA 
HETATM    8  C   UNL     1      -8.038   7.990  73.361  1.00  0.00    -0.247 C  
HETATM    9  C   UNL     1      -7.192   9.475  70.040  1.00  0.00    -0.101 C  
HETATM   10  C   UNL     1      -6.885  10.919  69.717  1.00  0.00    -0.134 C  
HETATM   11  C   UNL     1      -7.392   8.511  69.114  1.00  0.00    -0.079 C  
HETATM   12  C   UNL     1      -7.734   7.073  69.520  1.00  0.00    -0.107 C  
BRANCH  11  13
HETATM   13  C   UNL     1      -7.433   8.880  67.684  1.00  0.00    -0.092 C  
HETATM   14  O   UNL     1      -6.498   8.710  66.914  1.00  0.00    -0.059 OA 
BRANCH  13  15
HETATM   15  O   UNL     1      -8.623   9.450  67.358  1.00  0.00    -0.124 OA 
BRANCH  15  16
HETATM   16  C   UNL     1      -8.564  10.222  66.141  1.00  0.00    -0.139 C  
BRANCH  16  17
HETATM   17  C   UNL     1      -9.341  11.535  66.334  1.00  0.00    -0.209 C  
BRANCH  17  18
HETATM   18  N   UNL     1      -8.895  12.405  67.435  1.00  0.00    -0.179 NA 
HETATM   19  C   UNL     1     -10.159  14.539  66.817  1.00  0.00    -0.264 C  
HETATM   20  C   UNL     1      -8.798  13.828  67.039  1.00  0.00    -0.218 C  
HETATM   21  N   UNL     1     -11.074  14.476  67.984  1.00  0.00    -0.267 NA 
HETATM   22  C   UNL     1      -9.856  12.292  68.563  1.00  0.00    -0.153 C  
HETATM   23  C   UNL     1     -11.200  13.041  68.351  1.00  0.00    -0.269 C  
BRANCH  21  24
HETATM   24  C   UNL     1     -10.584  15.313  69.123  1.00  0.00    -0.250 C  
BRANCH  24  25
HETATM   25  C   UNL     1     -10.165  16.732  68.699  1.00  0.00    -0.298 A  
HETATM   26  C   UNL     1      -8.849  17.172  68.945  1.00  0.00    -0.186 A  
HETATM   27  C   UNL     1     -11.032  17.606  68.024  1.00  0.00    -0.107 A  
HETATM   28  C   UNL     1      -8.424  18.440  68.539  1.00  0.00    -0.346 A  
HETATM   29  C   UNL     1      -9.309  19.299  67.893  1.00  0.00    -0.378 A  
HETATM   30  C   UNL     1     -10.612  18.882  67.638  1.00  0.00    -0.501 A  
ENDBRANCH  24  25
BRANCH  24  31
HETATM   31  C   UNL     1     -11.563  15.316  70.307  1.00  0.00    -0.332 A  
HETATM   32  C   UNL     1     -13.463  15.568  72.365  1.00  0.00    -0.606 A  
HETATM   33  C   UNL     1     -12.129  15.885  72.606  1.00  0.00    -0.615 A  
HETATM   34  C   UNL     1     -12.911  14.979  70.089  1.00  0.00    -0.120 A  
HETATM   35  C   UNL     1     -11.186  15.766  71.584  1.00  0.00    -0.284 A  
HETATM   36  C   UNL     1     -13.855  15.113  71.108  1.00  0.00    -0.495 A  
ENDBRANCH  24  31
ENDBRANCH  21  24
ENDBRANCH  17  18
ENDBRANCH  16  17
ENDBRANCH  15  16
ENDBRANCH  13  15
ENDBRANCH  11  13
BRANCH  12  37
HETATM   37  C   UNL     1      -8.861   6.514  68.637  1.00  0.00    -0.121 A  
HETATM   38  C   UNL     1     -11.189   6.488  67.936  1.00  0.00    -0.257 A  
HETATM   39  O   UNL     1      -8.029   3.976  65.459  1.00  0.00    -0.092 OA 
HETATM   40  C   UNL     1      -8.545   5.646  67.571  1.00  0.00    -0.108 A  
HETATM   41  O   UNL     1     -10.132   3.958  64.836  1.00  0.00    -0.197 OA 
HETATM   42  C   UNL     1      -9.552   5.213  66.700  1.00  0.00    -0.154 A  
HETATM   43  C   UNL     1     -10.874   5.640  66.872  1.00  0.00    -0.287 A  
HETATM   44  N   UNL     1      -9.212   4.319  65.584  1.00  0.00    -0.138 N  
HETATM   45  C   UNL     1     -10.193   6.913  68.818  1.00  0.00    -0.179 A  
ENDBRANCH  12  37
ENDBRANCH   3   5
ENDBRANCH   2   3
TORSDOF 11
ENDMDL
MODEL       50
REMARK 921   NORMALIZED FREE ENERGY PREDICTED BY IDOCK:   -5.65 KCAL/MOL
REMARK 922        TOTAL FREE ENERGY PREDICTED BY IDOCK:  -11.15 KCAL/MOL
REMARK 923 INTER-LIGAND FREE ENERGY PREDICTED BY IDOCK:   -9.81 KCAL/MOL
REMARK 924 INTRA-LIGAND FREE ENERGY PREDICTED BY IDOCK:   -1.34 KCAL/MOL
REMARK 927      BINDING AFFINITY PREDICTED BY RF-SCORE:    0.00 PKD
ROOT
HETATM    1  C   UNL     1      -5.384   8.396  72.069  1.00  0.00    -0.038 C  
HETATM    2  O   UNL     1      -5.777   7.118  71.561  1.00  0.00    -0.035 OA 
ENDROOT
BRANCH   2   3
HETATM    3  C   UNL     1      -6.757   6.527  72.290  1.00  0.00    -0.067 C  
HETATM    4  O   UNL     1      -6.606   5.531  72.985  1.00  0.00    -0.067 OA 
BRANCH   3   5
HETATM    5  C   UNL     1      -8.052   7.231  72.096  1.00  0.00    -0.100 C  
HETATM    6  C   UNL     1      -8.661   7.884  73.121  1.00  0.00    -0.220 C  
HETATM    7  N   UNL     1      -9.891   8.490  72.912  1.00  0.00    -0.162 NA 
HETATM    8  C   UNL     1      -8.154   8.031  74.533  1.00  0.00    -0.277 C  
HETATM    9  C   UNL     1     -10.667   8.321  71.785  1.00  0.00    -0.266 C  
HETATM   10  C   UNL     1     -12.084   8.838  71.870  1.00  0.00    -0.433 C  
HETATM   11  C   UNL     1     -10.145   7.697  70.705  1.00  0.00    -0.189 C  
HETATM   12  C   UNL     1      -8.706   7.168  70.707  1.00  0.00    -0.147 C  
BRANCH  11  13
HETATM   13  C   UNL     1     -11.023   7.381  69.560  1.00  0.00    -0.139 C  
HETATM   14  O   UNL     1     -11.913   6.543  69.600  1.00  0.00    -0.216 OA 
BRANCH  13  15
HETATM   15  O   UNL     1     -10.690   8.118  68.468  1.00  0.00    -0.139 OA 
BRANCH  15  16
HETATM   16  C   UNL     1     -10.688   9.538  68.725  1.00  0.00    -0.190 C  
BRANCH  16  17
HETATM   17  C   UNL     1     -10.839  10.296  67.396  1.00  0.00    -0.277 C  
BRANCH  17  18
HETATM   18  N   UNL     1     -11.685  11.502  67.423  1.00  0.00    -0.609 NA 
HETATM   19  C   UNL     1     -11.036  12.413  69.722  1.00  0.00     0.172 C  
HETATM   20  C   UNL     1     -12.140  11.853  68.787  1.00  0.00    -0.124 C  
HETATM   21  N   UNL     1     -10.330  13.602  69.182  1.00  0.00    -0.025 NA 
HETATM   22  C   UNL     1     -10.915  12.647  66.872  1.00  0.00    -0.262 C  
HETATM   23  C   UNL     1      -9.839  13.230  67.829  1.00  0.00    -0.224 C  
BRANCH  21  24
HETATM   24  C   UNL     1     -11.213  14.810  69.154  1.00  0.00    -0.271 C  
BRANCH  24  25
HETATM   25  C   UNL     1     -11.976  15.036  70.470  1.00  0.00    -0.358 A  
HETATM   26  C   UNL     1     -11.261  15.348  71.644  1.00  0.00    -0.386 A  
HETATM   27  C   UNL     1     -13.377  14.993  70.549  1.00  0.00    -0.177 A  
HETATM   28  C   UNL     1     -11.925  15.597  72.848  1.00  0.00    -0.588 A  
HETATM   29  C   UNL     1     -13.314  15.525  72.908  1.00  0.00    -0.646 A  
HETATM   30  C   UNL     1     -14.039  15.221  71.759  1.00  0.00    -0.654 A  
ENDBRANCH  24  25
BRANCH  24  31
HETATM   31  C   UNL     1     -10.466  16.066  68.681  1.00  0.00    -0.251 A  
HETATM   32  C   UNL     1      -9.121  18.464  68.086  1.00  0.00    -0.325 A  
HETATM   33  C   UNL     1     -10.447  18.294  67.697  1.00  0.00    -0.431 A  
HETATM   34  C   UNL     1      -9.120  16.248  69.047  1.00  0.00    -0.255 A  
HETATM   35  C   UNL     1     -11.117  17.106  67.996  1.00  0.00    -0.113 A  
HETATM   36  C   UNL     1      -8.457  17.442  68.760  1.00  0.00    -0.225 A  
ENDBRANCH  24  31
ENDBRANCH  21  24
ENDBRANCH  17  18
ENDBRANCH  16  17
ENDBRANCH  15  16
ENDBRANCH  13  15
ENDBRANCH  11  13
BRANCH  12  37
HETATM   37  C   UNL     1      -8.644   5.764  70.083  1.00  0.00    -0.128 A  
HETATM   38  C   UNL     1      -9.274   3.416  70.083  1.00  0.00    -0.225 A  
HETATM   39  O   UNL     1      -6.947   5.159  66.344  1.00  0.00    -0.064 OA 
HETATM   40  C   UNL     1      -8.052   5.592  68.816  1.00  0.00    -0.099 A  
HETATM   41  O   UNL     1      -7.518   3.041  66.354  1.00  0.00    -0.073 OA 
HETATM   42  C   UNL     1      -8.081   4.336  68.196  1.00  0.00    -0.089 A  
HETATM   43  C   UNL     1      -8.700   3.248  68.821  1.00  0.00    -0.145 A  
HETATM   44  N   UNL     1      -7.472   4.168  66.868  1.00  0.00    -0.076 N  
HETATM   45  C   UNL     1      -9.237   4.661  70.714  1.00  0.00    -0.200 A  
ENDBRANCH  12  37
ENDBRANCH   3   5
ENDBRANCH   2   3
TORSDOF 11
ENDMDL
MODEL       51
REMARK 921   NORMALIZED FREE ENERGY PREDICTED BY IDOCK:   -5.65 KCAL/MOL
REMARK 922        TOTAL FREE ENERGY PREDICTED BY IDOCK:  -11.14 KCAL/MOL
REMARK 923 INTER-LIGAND FREE ENERGY PREDICTED BY IDOCK:   -9.74 KCAL/MOL
REMARK 924 INTRA-LIGAND FREE ENERGY PREDICTED BY IDOCK:   -1.40 KCAL/MOL
REMARK 927      BINDING AFFINITY PREDICTED BY RF-SCORE:    0.00 PKD
ROOT
HETATM    1  C   UNL     1     -12.145  16.226  72.908  1.00  0.00    -0.527 C  
HETATM    2  O   UNL     1     -11.726  15.563  71.712  1.00  0.00    -0.352 OA 
ENDROOT
BRANCH   2   3
HETATM    3  C   UNL     1     -12.752  15.263  70.875  1.00  0.00    -0.435 C  
HETATM    4  O   UNL     1     -13.744  15.961  70.710  1.00  0.00    -0.277 OA 
BRANCH   3   5
HETATM    5  C   UNL     1     -12.525  13.950  70.217  1.00  0.00    -0.380 C  
HETATM    6  C   UNL     1     -12.781  12.782  70.863  1.00  0.00    -0.192 C  
HETATM    7  N   UNL     1     -12.513  11.577  70.232  1.00  0.00    -0.240 NA 
HETATM    8  C   UNL     1     -13.334  12.618  72.256  1.00  0.00    -0.527 C  
HETATM    9  C   UNL     1     -11.809  11.448  69.054  1.00  0.00    -0.348 C  
HETATM   10  C   UNL     1     -11.387  10.046  68.681  1.00  0.00    -0.115 C  
HETATM   11  C   UNL     1     -11.519  12.552  68.329  1.00  0.00    -0.355 C  
HETATM   12  C   UNL     1     -11.953  13.947  68.791  1.00  0.00    -0.393 C  
BRANCH  11  13
HETATM   13  C   UNL     1     -10.635  12.430  67.150  1.00  0.00    -0.224 C  
HETATM   14  O   UNL     1     -11.000  12.654  66.005  1.00  0.00    -0.271 OA 
BRANCH  13  15
HETATM   15  O   UNL     1      -9.392  12.015  67.510  1.00  0.00    -0.172 OA 
BRANCH  15  16
HETATM   16  C   UNL     1      -8.607  11.550  66.392  1.00  0.00    -0.159 C  
BRANCH  16  17
HETATM   17  C   UNL     1      -8.753  10.024  66.268  1.00  0.00    -0.136 C  
BRANCH  17  18
HETATM   18  N   UNL     1      -7.676   9.213  66.861  1.00  0.00    -0.097 NA 
HETATM   19  C   UNL     1      -8.542   9.066  69.262  1.00  0.00    -0.136 C  
HETATM   20  C   UNL     1      -7.432   9.536  68.285  1.00  0.00    -0.078 C  
HETATM   21  N   UNL     1      -8.835   7.612  69.192  1.00  0.00    -0.139 NA 
HETATM   22  C   UNL     1      -8.038   7.776  66.757  1.00  0.00    -0.115 C  
HETATM   23  C   UNL     1      -9.120   7.302  67.766  1.00  0.00    -0.124 C  
BRANCH  21  24
HETATM   24  C   UNL     1      -7.711   6.790  69.739  1.00  0.00    -0.113 C  
BRANCH  24  25
HETATM   25  C   UNL     1      -7.341   7.153  71.188  1.00  0.00    -0.075 A  
HETATM   26  C   UNL     1      -5.986   7.302  71.544  1.00  0.00    -0.036 A  
HETATM   27  C   UNL     1      -8.309   7.394  72.177  1.00  0.00    -0.122 A  
HETATM   28  C   UNL     1      -5.617   7.669  72.841  1.00  0.00    -0.043 A  
HETATM   29  C   UNL     1      -6.592   7.879  73.811  1.00  0.00    -0.111 A  
HETATM   30  C   UNL     1      -7.937   7.739  73.480  1.00  0.00    -0.205 A  
ENDBRANCH  24  25
BRANCH  24  31
HETATM   31  C   UNL     1      -7.947   5.283  69.551  1.00  0.00    -0.088 A  
HETATM   32  C   UNL     1      -8.296   2.493  69.481  1.00  0.00    -0.075 A  
HETATM   33  C   UNL     1      -7.179   3.071  68.882  1.00  0.00    -0.048 A  
HETATM   34  C   UNL     1      -9.079   4.683  70.131  1.00  0.00    -0.154 A  
HETATM   35  C   UNL     1      -7.003   4.455  68.920  1.00  0.00    -0.051 A  
HETATM   36  C   UNL     1      -9.246   3.298  70.104  1.00  0.00    -0.226 A  
ENDBRANCH  24  31
ENDBRANCH  21  24
ENDBRANCH  17  18
ENDBRANCH  16  17
ENDBRANCH  15  16
ENDBRANCH  13  15
ENDBRANCH  11  13
BRANCH  12  37
HETATM   37  C   UNL     1     -10.811  14.959  68.605  1.00  0.00    -0.253 A  
HETATM   38  C   UNL     1      -8.598  15.785  69.181  1.00  0.00    -0.256 A  
HETATM   39  O   UNL     1     -10.849  17.679  65.470  1.00  0.00    -0.462 OA 
HETATM   40  C   UNL     1     -10.860  15.876  67.536  1.00  0.00    -0.305 A  
HETATM   41  O   UNL     1      -8.853  18.418  65.999  1.00  0.00    -0.498 OA 
HETATM   42  C   UNL     1      -9.777  16.733  67.299  1.00  0.00    -0.250 A  
HETATM   43  C   UNL     1      -8.640  16.683  68.113  1.00  0.00    -0.200 A  
HETATM   44  N   UNL     1      -9.831  17.677  66.174  1.00  0.00    -0.276 N  
HETATM   45  C   UNL     1      -9.679  14.938  69.433  1.00  0.00    -0.099 A  
ENDBRANCH  12  37
ENDBRANCH   3   5
ENDBRANCH   2   3
TORSDOF 11
ENDMDL
MODEL       52
REMARK 921   NORMALIZED FREE ENERGY PREDICTED BY IDOCK:   -5.64 KCAL/MOL
REMARK 922        TOTAL FREE ENERGY PREDICTED BY IDOCK:  -11.13 KCAL/MOL
REMARK 923 INTER-LIGAND FREE ENERGY PREDICTED BY IDOCK:   -9.08 KCAL/MOL
REMARK 924 INTRA-LIGAND FREE ENERGY PREDICTED BY IDOCK:   -2.06 KCAL/MOL
REMARK 927      BINDING AFFINITY PREDICTED BY RF-SCORE:    0.00 PKD
ROOT
HETATM    1  C   UNL     1     -12.434  15.700  70.428  1.00  0.00    -0.371 C  
HETATM    2  O   UNL     1     -11.280  16.525  70.242  1.00  0.00    -0.333 OA 
ENDROOT
BRANCH   2   3
HETATM    3  C   UNL     1     -10.889  16.620  68.946  1.00  0.00    -0.321 C  
HETATM    4  O   UNL     1     -11.649  16.642  67.988  1.00  0.00    -0.061 OA 
BRANCH   3   5
HETATM    5  C   UNL     1      -9.406  16.651  68.847  1.00  0.00    -0.244 C  
HETATM    6  C   UNL     1      -8.739  17.806  68.588  1.00  0.00    -0.258 C  
HETATM    7  N   UNL     1      -7.358  17.786  68.457  1.00  0.00    -0.256 NA 
HETATM    8  C   UNL     1      -9.338  19.177  68.402  1.00  0.00    -0.416 C  
HETATM    9  C   UNL     1      -6.596  16.641  68.368  1.00  0.00    -0.140 C  
HETATM   10  C   UNL     1      -5.156  16.833  67.952  1.00  0.00    -0.123 C  
HETATM   11  C   UNL     1      -7.165  15.442  68.622  1.00  0.00    -0.121 C  
HETATM   12  C   UNL     1      -8.645  15.326  69.006  1.00  0.00    -0.226 C  
BRANCH  11  13
HETATM   13  C   UNL     1      -6.390  14.208  68.377  1.00  0.00    -0.101 C  
HETATM   14  O   UNL     1      -5.894  13.924  67.296  1.00  0.00    -0.319 OA 
BRANCH  13  15
HETATM   15  O   UNL     1      -6.329  13.436  69.494  1.00  0.00    -0.108 OA 
BRANCH  15  16
HETATM   16  C   UNL     1      -5.871  12.094  69.228  1.00  0.00    -0.079 C  
BRANCH  16  17
HETATM   17  C   UNL     1      -7.078  11.143  69.186  1.00  0.00    -0.116 C  
BRANCH  17  18
HETATM   18  N   UNL     1      -6.808   9.728  69.495  1.00  0.00    -0.055 NA 
HETATM   19  C   UNL     1      -9.016   9.123  70.633  1.00  0.00    -0.244 C  
HETATM   20  C   UNL     1      -7.476   9.275  70.736  1.00  0.00    -0.128 C  
HETATM   21  N   UNL     1      -9.464   8.218  69.545  1.00  0.00    -0.161 NA 
HETATM   22  C   UNL     1      -7.283   8.886  68.368  1.00  0.00    -0.078 C  
HETATM   23  C   UNL     1      -8.824   8.704  68.294  1.00  0.00    -0.142 C  
BRANCH  21  24
HETATM   24  C   UNL     1      -9.132   6.789  69.835  1.00  0.00    -0.144 C  
BRANCH  24  25
HETATM   25  C   UNL     1      -9.673   6.303  71.191  1.00  0.00    -0.194 A  
HETATM   26  C   UNL     1     -11.065   6.253  71.409  1.00  0.00    -0.339 A  
HETATM   27  C   UNL     1      -8.833   5.855  72.223  1.00  0.00    -0.138 A  
HETATM   28  C   UNL     1     -11.590   5.781  72.614  1.00  0.00    -0.304 A  
HETATM   29  C   UNL     1     -10.738   5.364  73.632  1.00  0.00    -0.337 A  
HETATM   30  C   UNL     1      -9.360   5.403  73.437  1.00  0.00    -0.134 A  
ENDBRANCH  24  25
BRANCH  24  31
HETATM   31  C   UNL     1      -9.517   5.855  68.678  1.00  0.00    -0.137 A  
HETATM   32  C   UNL     1     -10.003   4.265  66.409  1.00  0.00    -0.223 A  
HETATM   33  C   UNL     1     -10.832   5.346  66.693  1.00  0.00    -0.220 A  
HETATM   34  C   UNL     1      -8.703   4.745  68.387  1.00  0.00    -0.112 A  
HETATM   35  C   UNL     1     -10.589   6.139  67.815  1.00  0.00    -0.338 A  
HETATM   36  C   UNL     1      -8.940   3.962  67.256  1.00  0.00    -0.151 A  
ENDBRANCH  24  31
ENDBRANCH  21  24
ENDBRANCH  17  18
ENDBRANCH  16  17
ENDBRANCH  15  16
ENDBRANCH  13  15
ENDBRANCH  11  13
BRANCH  12  37
HETATM   37  C   UNL     1      -9.310  14.162  68.254  1.00  0.00    -0.203 A  
HETATM   38  C   UNL     1      -9.559  12.797  66.257  1.00  0.00    -0.242 A  
HETATM   39  O   UNL     1     -11.763  11.459  70.230  1.00  0.00    -0.322 OA 
HETATM   40  C   UNL     1     -10.146  13.268  68.953  1.00  0.00     0.012 A  
HETATM   41  O   UNL     1     -11.983  10.235  68.423  1.00  0.00    -0.164 OA 
HETATM   42  C   UNL     1     -10.675  12.148  68.299  1.00  0.00    -0.223 A  
HETATM   43  C   UNL     1     -10.375  11.904  66.954  1.00  0.00    -0.238 A  
HETATM   44  N   UNL     1     -11.535  11.213  69.039  1.00  0.00    -0.267 N  
HETATM   45  C   UNL     1      -9.040  13.923  66.898  1.00  0.00    -0.257 A  
ENDBRANCH  12  37
ENDBRANCH   3   5
ENDBRANCH   2   3
TORSDOF 11
ENDMDL
MODEL       53
REMARK 921   NORMALIZED FREE ENERGY PREDICTED BY IDOCK:   -5.62 KCAL/MOL
REMARK 922        TOTAL FREE ENERGY PREDICTED BY IDOCK:  -11.09 KCAL/MOL
REMARK 923 INTER-LIGAND FREE ENERGY PREDICTED BY IDOCK:  -10.36 KCAL/MOL
REMARK 924 INTRA-LIGAND FREE ENERGY PREDICTED BY IDOCK:   -0.74 KCAL/MOL
REMARK 927      BINDING AFFINITY PREDICTED BY RF-SCORE:    0.00 PKD
ROOT
HETATM    1  C   UNL     1     -11.417  16.206  64.440  1.00  0.00    -0.193 C  
HETATM    2  O   UNL     1     -10.560  15.116  64.792  1.00  0.00    -0.398 OA 
ENDROOT
BRANCH   2   3
HETATM    3  C   UNL     1      -9.879  15.319  65.949  1.00  0.00    -0.354 C  
HETATM    4  O   UNL     1      -8.726  15.724  66.017  1.00  0.00    -0.313 OA 
BRANCH   3   5
HETATM    5  C   UNL     1     -10.712  14.942  67.121  1.00  0.00    -0.296 C  
HETATM    6  C   UNL     1     -11.000  15.840  68.100  1.00  0.00    -0.330 C  
HETATM    7  N   UNL     1     -11.742  15.437  69.201  1.00  0.00    -0.331 NA 
HETATM    8  C   UNL     1     -10.586  17.288  68.155  1.00  0.00    -0.386 C  
HETATM    9  C   UNL     1     -12.056  14.129  69.499  1.00  0.00    -0.340 C  
HETATM   10  C   UNL     1     -12.625  13.878  70.876  1.00  0.00    -0.431 C  
HETATM   11  C   UNL     1     -11.822  13.163  68.582  1.00  0.00    -0.363 C  
HETATM   12  C   UNL     1     -11.209  13.492  67.216  1.00  0.00    -0.319 C  
BRANCH  11  13
HETATM   13  C   UNL     1     -12.015  11.747  68.959  1.00  0.00    -0.280 C  
HETATM   14  O   UNL     1     -12.258  10.860  68.153  1.00  0.00    -0.503 OA 
BRANCH  13  15
HETATM   15  O   UNL     1     -11.913  11.579  70.303  1.00  0.00    -0.333 OA 
BRANCH  15  16
HETATM   16  C   UNL     1     -12.663  10.446  70.788  1.00  0.00    -0.371 C  
BRANCH  16  17
HETATM   17  C   UNL     1     -11.818   9.682  71.821  1.00  0.00    -0.320 C  
BRANCH  17  18
HETATM   18  N   UNL     1     -10.460   9.296  71.400  1.00  0.00    -0.341 NA 
HETATM   19  C   UNL     1     -10.398   6.916  72.332  1.00  0.00    -0.202 C  
HETATM   20  C   UNL     1      -9.814   8.353  72.341  1.00  0.00    -0.308 C  
HETATM   21  N   UNL     1     -10.391   6.267  70.997  1.00  0.00    -0.205 NA 
HETATM   22  C   UNL     1     -10.531   8.654  70.062  1.00  0.00    -0.223 C  
HETATM   23  C   UNL     1     -11.078   7.200  70.065  1.00  0.00    -0.258 C  
BRANCH  21  24
HETATM   24  C   UNL     1      -9.004   5.933  70.547  1.00  0.00    -0.144 C  
BRANCH  24  25
HETATM   25  C   UNL     1      -8.420   4.692  71.245  1.00  0.00    -0.112 A  
HETATM   26  C   UNL     1      -9.255   3.591  71.521  1.00  0.00    -0.193 A  
HETATM   27  C   UNL     1      -7.061   4.585  71.583  1.00  0.00    -0.051 A  
HETATM   28  C   UNL     1      -8.750   2.434  72.120  1.00  0.00    -0.095 A  
HETATM   29  C   UNL     1      -7.404   2.359  72.468  1.00  0.00    -0.039 A  
HETATM   30  C   UNL     1      -6.562   3.435  72.202  1.00  0.00    -0.015 A  
ENDBRANCH  24  25
BRANCH  24  31
HETATM   31  C   UNL     1      -8.890   5.857  69.017  1.00  0.00    -0.119 A  
HETATM   32  C   UNL     1      -8.840   5.960  66.206  1.00  0.00    -0.143 A  
HETATM   33  C   UNL     1      -9.682   5.061  66.855  1.00  0.00    -0.182 A  
HETATM   34  C   UNL     1      -8.030   6.743  68.343  1.00  0.00    -0.115 A  
HETATM   35  C   UNL     1      -9.711   5.012  68.250  1.00  0.00    -0.200 A  
HETATM   36  C   UNL     1      -8.013   6.799  66.948  1.00  0.00    -0.109 A  
ENDBRANCH  24  31
ENDBRANCH  21  24
ENDBRANCH  17  18
ENDBRANCH  16  17
ENDBRANCH  15  16
ENDBRANCH  13  15
ENDBRANCH  11  13
BRANCH  12  37
HETATM   37  C   UNL     1     -10.124  12.466  66.847  1.00  0.00    -0.230 A  
HETATM   38  C   UNL     1      -9.182  10.842  65.303  1.00  0.00    -0.236 A  
HETATM   39  O   UNL     1      -6.664  12.103  69.110  1.00  0.00    -0.099 OA 
HETATM   40  C   UNL     1      -8.965  12.362  67.643  1.00  0.00    -0.183 A  
HETATM   41  O   UNL     1      -5.823  10.638  67.712  1.00  0.00    -0.044 OA 
HETATM   42  C   UNL     1      -7.928  11.503  67.258  1.00  0.00    -0.153 A  
HETATM   43  C   UNL     1      -8.028  10.749  66.084  1.00  0.00    -0.157 A  
HETATM   44  N   UNL     1      -6.717  11.410  68.087  1.00  0.00    -0.057 N  
HETATM   45  C   UNL     1     -10.227  11.685  65.687  1.00  0.00    -0.284 A  
ENDBRANCH  12  37
ENDBRANCH   3   5
ENDBRANCH   2   3
TORSDOF 11
ENDMDL
MODEL       54
REMARK 921   NORMALIZED FREE ENERGY PREDICTED BY IDOCK:   -5.58 KCAL/MOL
REMARK 922        TOTAL FREE ENERGY PREDICTED BY IDOCK:  -11.04 KCAL/MOL
REMARK 923 INTER-LIGAND FREE ENERGY PREDICTED BY IDOCK:   -9.45 KCAL/MOL
REMARK 924 INTRA-LIGAND FREE ENERGY PREDICTED BY IDOCK:   -1.59 KCAL/MOL
REMARK 927      BINDING AFFINITY PREDICTED BY RF-SCORE:    0.00 PKD
ROOT
HETATM    1  C   UNL     1      -5.452  10.643  65.393  1.00  0.00    -0.139 C  
HETATM    2  O   UNL     1      -6.676  10.684  64.654  1.00  0.00     0.001 OA 
ENDROOT
BRANCH   2   3
HETATM    3  C   UNL     1      -7.648   9.895  65.178  1.00  0.00    -0.132 C  
HETATM    4  O   UNL     1      -7.453   8.819  65.728  1.00  0.00    -0.084 OA 
BRANCH   3   5
HETATM    5  C   UNL     1      -8.989  10.497  64.956  1.00  0.00    -0.223 C  
HETATM    6  C   UNL     1      -9.589  10.453  63.737  1.00  0.00    -0.310 C  
HETATM    7  N   UNL     1     -10.820  11.067  63.558  1.00  0.00    -0.210 NA 
HETATM    8  C   UNL     1      -9.057   9.803  62.486  1.00  0.00    -0.301 C  
HETATM    9  C   UNL     1     -11.418  11.908  64.472  1.00  0.00    -0.294 C  
HETATM   10  C   UNL     1     -12.613  12.688  63.976  1.00  0.00    -0.429 C  
HETATM   11  C   UNL     1     -10.904  12.008  65.719  1.00  0.00    -0.329 C  
HETATM   12  C   UNL     1      -9.665  11.208  66.138  1.00  0.00    -0.253 C  
BRANCH  11  13
HETATM   13  C   UNL     1     -11.450  13.021  66.646  1.00  0.00    -0.336 C  
HETATM   14  O   UNL     1     -11.252  14.222  66.529  1.00  0.00    -0.316 OA 
BRANCH  13  15
HETATM   15  O   UNL     1     -12.166  12.438  67.642  1.00  0.00    -0.425 OA 
BRANCH  15  16
HETATM   16  C   UNL     1     -11.796  12.911  68.954  1.00  0.00    -0.309 C  
BRANCH  16  17
HETATM   17  C   UNL     1     -11.176  11.755  69.756  1.00  0.00    -0.090 C  
BRANCH  17  18
HETATM   18  N   UNL     1     -11.838  10.445  69.636  1.00  0.00    -0.217 NA 
HETATM   19  C   UNL     1      -9.787   8.981  69.206  1.00  0.00    -0.179 C  
HETATM   20  C   UNL     1     -11.144   9.535  68.697  1.00  0.00     0.012 C  
HETATM   21  N   UNL     1      -9.871   8.276  70.510  1.00  0.00    -0.182 NA 
HETATM   22  C   UNL     1     -11.884   9.800  70.973  1.00  0.00    -0.356 C  
HETATM   23  C   UNL     1     -10.531   9.211  71.459  1.00  0.00    -0.352 C  
BRANCH  21  24
HETATM   24  C   UNL     1     -10.599   6.974  70.394  1.00  0.00    -0.223 C  
BRANCH  24  25
HETATM   25  C   UNL     1     -10.264   6.202  69.106  1.00  0.00    -0.242 A  
HETATM   26  C   UNL     1      -9.123   5.376  69.067  1.00  0.00    -0.136 A  
HETATM   27  C   UNL     1     -11.081   6.246  67.965  1.00  0.00    -0.365 A  
HETATM   28  C   UNL     1      -8.810   4.632  67.926  1.00  0.00    -0.117 A  
HETATM   29  C   UNL     1      -9.621   4.709  66.798  1.00  0.00    -0.195 A  
HETATM   30  C   UNL     1     -10.755   5.518  66.817  1.00  0.00    -0.329 A  
ENDBRANCH  24  25
BRANCH  24  31
HETATM   31  C   UNL     1     -10.450   6.110  71.656  1.00  0.00    -0.267 A  
HETATM   32  C   UNL     1     -10.304   4.744  74.110  1.00  0.00    -0.306 A  
HETATM   33  C   UNL     1      -9.164   5.339  73.575  1.00  0.00    -0.130 A  
HETATM   34  C   UNL     1     -11.586   5.484  72.202  1.00  0.00    -0.126 A  
HETATM   35  C   UNL     1      -9.237   6.021  72.359  1.00  0.00    -0.143 A  
HETATM   36  C   UNL     1     -11.514   4.815  73.424  1.00  0.00    -0.332 A  
ENDBRANCH  24  31
ENDBRANCH  21  24
ENDBRANCH  17  18
ENDBRANCH  16  17
ENDBRANCH  15  16
ENDBRANCH  13  15
ENDBRANCH  11  13
BRANCH  12  37
HETATM   37  C   UNL     1      -8.693  12.093  66.935  1.00  0.00    -0.194 A  
HETATM   38  C   UNL     1      -7.688  14.259  67.392  1.00  0.00    -0.194 A  
HETATM   39  O   UNL     1      -6.801  10.661  70.342  1.00  0.00    -0.280 OA 
HETATM   40  C   UNL     1      -8.059  11.572  68.082  1.00  0.00    -0.146 A  
HETATM   41  O   UNL     1      -5.898  12.619  70.744  1.00  0.00    -0.239 OA 
HETATM   42  C   UNL     1      -7.252  12.401  68.871  1.00  0.00    -0.061 A  
HETATM   43  C   UNL     1      -7.072  13.747  68.536  1.00  0.00    -0.106 A  
HETATM   44  N   UNL     1      -6.605  11.854  70.073  1.00  0.00    -0.003 N  
HETATM   45  C   UNL     1      -8.483  13.436  66.592  1.00  0.00     0.137 A  
ENDBRANCH  12  37
ENDBRANCH   3   5
ENDBRANCH   2   3
TORSDOF 11
ENDMDL
MODEL       55
REMARK 921   NORMALIZED FREE ENERGY PREDICTED BY IDOCK:   -5.58 KCAL/MOL
REMARK 922        TOTAL FREE ENERGY PREDICTED BY IDOCK:  -11.03 KCAL/MOL
REMARK 923 INTER-LIGAND FREE ENERGY PREDICTED BY IDOCK:   -9.99 KCAL/MOL
REMARK 924 INTRA-LIGAND FREE ENERGY PREDICTED BY IDOCK:   -1.04 KCAL/MOL
REMARK 927      BINDING AFFINITY PREDICTED BY RF-SCORE:    0.00 PKD
ROOT
HETATM    1  C   UNL     1     -10.625  19.381  65.620  1.00  0.00    -0.299 C  
HETATM    2  O   UNL     1     -10.899  17.977  65.613  1.00  0.00    -0.402 OA 
ENDROOT
BRANCH   2   3
HETATM    3  C   UNL     1      -9.948  17.239  66.238  1.00  0.00    -0.300 C  
HETATM    4  O   UNL     1      -8.863  16.943  65.753  1.00  0.00    -0.522 OA 
BRANCH   3   5
HETATM    5  C   UNL     1     -10.419  16.802  67.579  1.00  0.00    -0.319 C  
HETATM    6  C   UNL     1     -10.070  17.478  68.705  1.00  0.00    -0.361 C  
HETATM    7  N   UNL     1     -10.492  17.012  69.941  1.00  0.00    -0.040 NA 
HETATM    8  C   UNL     1      -9.229  18.726  68.791  1.00  0.00    -0.342 C  
HETATM    9  C   UNL     1     -11.084  15.786  70.157  1.00  0.00    -0.352 C  
HETATM   10  C   UNL     1     -11.213  15.355  71.600  1.00  0.00    -0.386 C  
HETATM   11  C   UNL     1     -11.481  15.044  69.099  1.00  0.00    -0.320 C  
HETATM   12  C   UNL     1     -11.285  15.535  67.661  1.00  0.00    -0.291 C  
BRANCH  11  13
HETATM   13  C   UNL     1     -11.972  13.669  69.326  1.00  0.00    -0.336 C  
HETATM   14  O   UNL     1     -13.146  13.395  69.533  1.00  0.00     0.750 OA 
BRANCH  13  15
HETATM   15  O   UNL     1     -10.951  12.772  69.300  1.00  0.00    -0.184 OA 
BRANCH  15  16
HETATM   16  C   UNL     1     -11.361  11.464  68.851  1.00  0.00    -0.270 C  
BRANCH  16  17
HETATM   17  C   UNL     1     -11.106  10.440  69.969  1.00  0.00    -0.314 C  
BRANCH  17  18
HETATM   18  N   UNL     1     -10.093   9.407  69.693  1.00  0.00    -0.194 NA 
HETATM   19  C   UNL     1      -9.479   8.775  72.093  1.00  0.00    -0.239 C  
HETATM   20  C   UNL     1      -9.032   9.353  70.725  1.00  0.00    -0.191 C  
HETATM   21  N   UNL     1     -10.074   7.417  72.013  1.00  0.00    -0.180 NA 
HETATM   22  C   UNL     1     -10.758   8.080  69.629  1.00  0.00    -0.207 C  
HETATM   23  C   UNL     1     -11.166   7.488  71.006  1.00  0.00    -0.263 C  
BRANCH  21  24
HETATM   24  C   UNL     1      -9.051   6.380  71.671  1.00  0.00    -0.144 C  
BRANCH  24  25
HETATM   25  C   UNL     1      -7.719   6.571  72.415  1.00  0.00    -0.096 A  
HETATM   26  C   UNL     1      -7.593   6.123  73.745  1.00  0.00    -0.091 A  
HETATM   27  C   UNL     1      -6.588   7.138  71.806  1.00  0.00    -0.048 A  
HETATM   28  C   UNL     1      -6.386   6.247  74.438  1.00  0.00    -0.070 A  
HETATM   29  C   UNL     1      -5.284   6.834  73.821  1.00  0.00    -0.042 A  
HETATM   30  C   UNL     1      -5.386   7.282  72.507  1.00  0.00    -0.037 A  
ENDBRANCH  24  25
BRANCH  24  31
HETATM   31  C   UNL     1      -9.603   4.952  71.806  1.00  0.00    -0.210 A  
HETATM   32  C   UNL     1     -10.407   2.294  72.253  1.00  0.00    -0.166 A  
HETATM   33  C   UNL     1      -9.677   2.619  71.113  1.00  0.00    -0.181 A  
HETATM   34  C   UNL     1     -10.360   4.609  72.941  1.00  0.00    -0.242 A  
HETATM   35  C   UNL     1      -9.273   3.937  70.892  1.00  0.00    -0.199 A  
HETATM   36  C   UNL     1     -10.750   3.288  73.166  1.00  0.00    -0.263 A  
ENDBRANCH  24  31
ENDBRANCH  21  24
ENDBRANCH  17  18
ENDBRANCH  16  17
ENDBRANCH  15  16
ENDBRANCH  13  15
ENDBRANCH  11  13
BRANCH  12  37
HETATM   37  C   UNL     1     -10.763  14.399  66.766  1.00  0.00    -0.292 A  
HETATM   38  C   UNL     1      -9.097  12.707  66.246  1.00  0.00    -0.053 A  
HETATM   39  O   UNL     1     -13.132  12.777  63.768  1.00  0.00    -0.544 OA 
HETATM   40  C   UNL     1     -11.590  13.877  65.751  1.00  0.00    -0.343 A  
HETATM   41  O   UNL     1     -11.622  11.255  63.306  1.00  0.00    -0.125 OA 
HETATM   42  C   UNL     1     -11.163  12.776  64.998  1.00  0.00    -0.298 A  
HETATM   43  C   UNL     1      -9.922  12.181  65.250  1.00  0.00    -0.260 A  
HETATM   44  N   UNL     1     -12.037  12.230  63.949  1.00  0.00    -0.468 N  
HETATM   45  C   UNL     1      -9.509  13.813  66.991  1.00  0.00    -0.255 A  
ENDBRANCH  12  37
ENDBRANCH   3   5
ENDBRANCH   2   3
TORSDOF 11
ENDMDL
MODEL       56
REMARK 921   NORMALIZED FREE ENERGY PREDICTED BY IDOCK:   -5.53 KCAL/MOL
REMARK 922        TOTAL FREE ENERGY PREDICTED BY IDOCK:  -10.95 KCAL/MOL
REMARK 923 INTER-LIGAND FREE ENERGY PREDICTED BY IDOCK:  -11.30 KCAL/MOL
REMARK 924 INTRA-LIGAND FREE ENERGY PREDICTED BY IDOCK:    0.35 KCAL/MOL
REMARK 927      BINDING AFFINITY PREDICTED BY RF-SCORE:    0.00 PKD
ROOT
HETATM    1  C   UNL     1     -10.523  18.269  68.535  1.00  0.00    -0.216 C  
HETATM    2  O   UNL     1     -10.995  16.955  68.221  1.00  0.00    -0.364 OA 
ENDROOT
BRANCH   2   3
HETATM    3  C   UNL     1     -10.028  16.005  68.289  1.00  0.00    -0.220 C  
HETATM    4  O   UNL     1      -9.203  15.913  69.188  1.00  0.00    -0.225 OA 
BRANCH   3   5
HETATM    5  C   UNL     1     -10.082  15.117  67.099  1.00  0.00    -0.239 C  
HETATM    6  C   UNL     1     -10.231  15.623  65.846  1.00  0.00    -0.351 C  
HETATM    7  N   UNL     1     -10.323  14.758  64.765  1.00  0.00    -0.324 NA 
HETATM    8  C   UNL     1     -10.329  17.076  65.460  1.00  0.00    -0.161 C  
HETATM    9  C   UNL     1     -10.478  13.392  64.864  1.00  0.00    -0.390 C  
HETATM   10  C   UNL     1     -10.837  12.669  63.587  1.00  0.00    -0.437 C  
HETATM   11  C   UNL     1     -10.333  12.792  66.067  1.00  0.00    -0.291 C  
HETATM   12  C   UNL     1     -10.002  13.600  67.327  1.00  0.00    -0.240 C  
BRANCH  11  13
HETATM   13  C   UNL     1     -10.650  11.355  66.200  1.00  0.00    -0.265 C  
HETATM   14  O   UNL     1     -11.785  10.923  66.340  1.00  0.00     0.053 OA 
BRANCH  13  15
HETATM   15  O   UNL     1      -9.521  10.599  66.172  1.00  0.00    -0.169 OA 
BRANCH  15  16
HETATM   16  C   UNL     1      -9.644   9.433  65.330  1.00  0.00    -0.226 C  
BRANCH  16  17
HETATM   17  C   UNL     1      -8.972   8.235  66.021  1.00  0.00    -0.181 C  
BRANCH  17  18
HETATM   18  N   UNL     1      -9.869   7.275  66.687  1.00  0.00    -0.205 NA 
HETATM   19  C   UNL     1      -8.461   6.757  68.756  1.00  0.00    -0.124 C  
HETATM   20  C   UNL     1      -9.137   6.245  67.458  1.00  0.00    -0.110 C  
HETATM   21  N   UNL     1      -9.391   7.425  69.701  1.00  0.00    -0.150 NA 
HETATM   22  C   UNL     1     -10.766   8.012  67.614  1.00  0.00    -0.132 C  
HETATM   23  C   UNL     1     -10.093   8.486  68.931  1.00  0.00    -0.203 C  
BRANCH  21  24
HETATM   24  C   UNL     1     -10.341   6.455  70.328  1.00  0.00    -0.205 C  
BRANCH  24  25
HETATM   25  C   UNL     1      -9.639   5.369  71.161  1.00  0.00    -0.214 A  
HETATM   26  C   UNL     1      -9.769   4.015  70.791  1.00  0.00    -0.263 A  
HETATM   27  C   UNL     1      -8.823   5.671  72.263  1.00  0.00    -0.132 A  
HETATM   28  C   UNL     1      -9.114   3.007  71.503  1.00  0.00    -0.169 A  
HETATM   29  C   UNL     1      -8.329   3.328  72.607  1.00  0.00    -0.080 A  
HETATM   30  C   UNL     1      -8.186   4.659  72.988  1.00  0.00    -0.100 A  
ENDBRANCH  24  25
BRANCH  24  31
HETATM   31  C   UNL     1     -11.465   7.159  71.104  1.00  0.00    -0.322 A  
HETATM   32  C   UNL     1     -13.580   8.593  72.280  1.00  0.00    -0.428 A  
HETATM   33  C   UNL     1     -12.262   8.946  72.554  1.00  0.00    -0.299 A  
HETATM   34  C   UNL     1     -12.803   6.803  70.856  1.00  0.00    -0.051 A  
HETATM   35  C   UNL     1     -11.211   8.239  71.967  1.00  0.00    -0.389 A  
HETATM   36  C   UNL     1     -13.852   7.521  71.433  1.00  0.00    -0.439 A  
ENDBRANCH  24  31
ENDBRANCH  21  24
ENDBRANCH  17  18
ENDBRANCH  16  17
ENDBRANCH  15  16
ENDBRANCH  13  15
ENDBRANCH  11  13
BRANCH  12  37
HETATM   37  C   UNL     1     -10.861  13.131  68.513  1.00  0.00    -0.285 A  
HETATM   38  C   UNL     1     -11.448  11.451  70.170  1.00  0.00    -0.302 A  
HETATM   39  O   UNL     1     -13.400  15.755  70.487  1.00  0.00    -0.418 OA 
HETATM   40  C   UNL     1     -11.720  14.045  69.155  1.00  0.00    -0.375 A  
HETATM   41  O   UNL     1     -13.924  14.232  71.976  1.00  0.00    -0.423 OA 
HETATM   42  C   UNL     1     -12.430  13.654  70.298  1.00  0.00    -0.265 A  
HETATM   43  C   UNL     1     -12.289  12.361  70.814  1.00  0.00    -0.377 A  
HETATM   44  N   UNL     1     -13.314  14.618  70.969  1.00  0.00    -0.379 N  
HETATM   45  C   UNL     1     -10.749  11.828  69.022  1.00  0.00    -0.209 A  
ENDBRANCH  12  37
ENDBRANCH   3   5
ENDBRANCH   2   3
TORSDOF 11
ENDMDL
MODEL       57
REMARK 921   NORMALIZED FREE ENERGY PREDICTED BY IDOCK:   -5.53 KCAL/MOL
REMARK 922        TOTAL FREE ENERGY PREDICTED BY IDOCK:  -10.94 KCAL/MOL
REMARK 923 INTER-LIGAND FREE ENERGY PREDICTED BY IDOCK:   -9.41 KCAL/MOL
REMARK 924 INTRA-LIGAND FREE ENERGY PREDICTED BY IDOCK:   -1.53 KCAL/MOL
REMARK 927      BINDING AFFINITY PREDICTED BY RF-SCORE:    0.00 PKD
ROOT
HETATM    1  C   UNL     1      -8.307   4.785  70.230  1.00  0.00    -0.079 C  
HETATM    2  O   UNL     1      -7.417   5.875  70.485  1.00  0.00    -0.084 OA 
ENDROOT
BRANCH   2   3
HETATM    3  C   UNL     1      -6.566   6.127  69.458  1.00  0.00    -0.044 C  
HETATM    4  O   UNL     1      -5.806   5.304  68.964  1.00  0.00    -0.017 OA 
BRANCH   3   5
HETATM    5  C   UNL     1      -6.653   7.551  69.042  1.00  0.00    -0.044 C  
HETATM    6  C   UNL     1      -6.273   8.555  69.876  1.00  0.00    -0.031 C  
HETATM    7  N   UNL     1      -6.413   9.874  69.469  1.00  0.00    -0.045 NA 
HETATM    8  C   UNL     1      -5.703   8.415  71.265  1.00  0.00    -0.035 C  
HETATM    9  C   UNL     1      -7.101  10.279  68.345  1.00  0.00    -0.078 C  
HETATM   10  C   UNL     1      -7.372  11.760  68.230  1.00  0.00    -0.095 C  
HETATM   11  C   UNL     1      -7.508   9.355  67.446  1.00  0.00    -0.091 C  
HETATM   12  C   UNL     1      -7.223   7.862  67.650  1.00  0.00    -0.088 C  
BRANCH  11  13
HETATM   13  C   UNL     1      -8.375   9.772  66.325  1.00  0.00    -0.116 C  
HETATM   14  O   UNL     1      -8.095   9.590  65.148  1.00  0.00    -0.117 OA 
BRANCH  13  15
HETATM   15  O   UNL     1      -9.493  10.399  66.776  1.00  0.00    -0.161 OA 
BRANCH  15  16
HETATM   16  C   UNL     1     -10.318  10.916  65.712  1.00  0.00    -0.241 C  
BRANCH  16  17
HETATM   17  C   UNL     1      -9.911  12.368  65.412  1.00  0.00    -0.183 C  
BRANCH  17  18
HETATM   18  N   UNL     1     -10.911  13.406  65.718  1.00  0.00    -0.273 NA 
HETATM   19  C   UNL     1     -10.602  13.544  68.252  1.00  0.00    -0.250 C  
HETATM   20  C   UNL     1     -11.531  13.229  67.050  1.00  0.00    -0.339 C  
HETATM   21  N   UNL     1     -10.017  14.908  68.225  1.00  0.00    -0.217 NA 
HETATM   22  C   UNL     1     -10.256  14.738  65.674  1.00  0.00    -0.358 C  
HETATM   23  C   UNL     1      -9.360  15.064  66.901  1.00  0.00    -0.241 C  
BRANCH  21  24
HETATM   24  C   UNL     1     -11.049  15.962  68.475  1.00  0.00    -0.340 C  
BRANCH  24  25
HETATM   25  C   UNL     1     -11.714  15.845  69.858  1.00  0.00    -0.327 A  
HETATM   26  C   UNL     1     -13.022  15.330  69.959  1.00  0.00    -0.026 A  
HETATM   27  C   UNL     1     -11.051  16.188  71.047  1.00  0.00    -0.178 A  
HETATM   28  C   UNL     1     -13.642  15.175  71.202  1.00  0.00    -0.525 A  
HETATM   29  C   UNL     1     -12.975  15.545  72.366  1.00  0.00    -0.511 A  
HETATM   30  C   UNL     1     -11.681  16.053  72.288  1.00  0.00    -0.581 A  
ENDBRANCH  24  25
BRANCH  24  31
HETATM   31  C   UNL     1     -10.517  17.376  68.194  1.00  0.00    -0.389 A  
HETATM   32  C   UNL     1      -9.674  20.046  67.925  1.00  0.00    -0.517 A  
HETATM   33  C   UNL     1     -10.725  19.565  67.148  1.00  0.00    -0.599 A  
HETATM   34  C   UNL     1      -9.442  17.873  68.955  1.00  0.00    -0.188 A  
HETATM   35  C   UNL     1     -11.147  18.242  67.285  1.00  0.00     0.090 A  
HETATM   36  C   UNL     1      -9.032  19.201  68.826  1.00  0.00    -0.388 A  
ENDBRANCH  24  31
ENDBRANCH  21  24
ENDBRANCH  17  18
ENDBRANCH  16  17
ENDBRANCH  15  16
ENDBRANCH  13  15
ENDBRANCH  11  13
BRANCH  12  37
HETATM   37  C   UNL     1      -8.467   7.023  67.315  1.00  0.00    -0.121 A  
HETATM   38  C   UNL     1     -10.839   6.554  67.572  1.00  0.00    -0.433 A  
HETATM   39  O   UNL     1      -8.391   4.209  64.265  1.00  0.00    -0.094 OA 
HETATM   40  C   UNL     1      -8.404   6.069  66.279  1.00  0.00    -0.122 A  
HETATM   41  O   UNL     1     -10.531   3.792  64.506  1.00  0.00    -0.225 OA 
HETATM   42  C   UNL     1      -9.559   5.372  65.900  1.00  0.00    -0.096 A  
HETATM   43  C   UNL     1     -10.780   5.619  66.537  1.00  0.00    -0.296 A  
HETATM   44  N   UNL     1      -9.488   4.387  64.811  1.00  0.00    -0.161 N  
HETATM   45  C   UNL     1      -9.690   7.243  67.966  1.00  0.00    -0.157 A  
ENDBRANCH  12  37
ENDBRANCH   3   5
ENDBRANCH   2   3
TORSDOF 11
ENDMDL
MODEL       58
REMARK 921   NORMALIZED FREE ENERGY PREDICTED BY IDOCK:   -5.53 KCAL/MOL
REMARK 922        TOTAL FREE ENERGY PREDICTED BY IDOCK:  -10.94 KCAL/MOL
REMARK 923 INTER-LIGAND FREE ENERGY PREDICTED BY IDOCK:   -9.27 KCAL/MOL
REMARK 924 INTRA-LIGAND FREE ENERGY PREDICTED BY IDOCK:   -1.67 KCAL/MOL
REMARK 927      BINDING AFFINITY PREDICTED BY RF-SCORE:    0.00 PKD
ROOT
HETATM    1  C   UNL     1      -9.791  18.694  68.212  1.00  0.00    -0.371 C  
HETATM    2  O   UNL     1     -10.281  17.408  67.820  1.00  0.00    -0.313 OA 
ENDROOT
BRANCH   2   3
HETATM    3  C   UNL     1      -9.647  16.900  66.732  1.00  0.00    -0.262 C  
HETATM    4  O   UNL     1      -9.908  17.193  65.573  1.00  0.00    -0.549 OA 
BRANCH   3   5
HETATM    5  C   UNL     1      -8.621  15.905  67.141  1.00  0.00    -0.221 C  
HETATM    6  C   UNL     1      -7.294  16.166  67.010  1.00  0.00    -0.231 C  
HETATM    7  N   UNL     1      -6.367  15.195  67.359  1.00  0.00    -0.320 NA 
HETATM    8  C   UNL     1      -6.664  17.436  66.496  1.00  0.00    -0.284 C  
HETATM    9  C   UNL     1      -6.677  13.883  67.649  1.00  0.00    -0.175 C  
HETATM   10  C   UNL     1      -5.511  12.926  67.730  1.00  0.00    -0.123 C  
HETATM   11  C   UNL     1      -7.971  13.527  67.813  1.00  0.00    -0.168 C  
HETATM   12  C   UNL     1      -9.104  14.551  67.681  1.00  0.00    -0.195 C  
BRANCH  11  13
HETATM   13  C   UNL     1      -8.312  12.098  67.970  1.00  0.00    -0.167 C  
HETATM   14  O   UNL     1      -7.937  11.224  67.201  1.00  0.00    -0.136 OA 
BRANCH  13  15
HETATM   15  O   UNL     1      -9.107  11.899  69.054  1.00  0.00     0.086 OA 
BRANCH  15  16
HETATM   16  C   UNL     1     -10.094  10.866  68.848  1.00  0.00    -0.198 C  
BRANCH  16  17
HETATM   17  C   UNL     1      -9.812   9.696  69.805  1.00  0.00    -0.229 C  
BRANCH  17  18
HETATM   18  N   UNL     1     -10.453   8.412  69.475  1.00  0.00    -0.223 NA 
HETATM   19  C   UNL     1      -8.987   7.711  67.502  1.00  0.00    -0.126 C  
HETATM   20  C   UNL     1     -10.394   8.095  68.030  1.00  0.00    -0.211 C  
HETATM   21  N   UNL     1      -8.360   6.573  68.220  1.00  0.00    -0.117 NA 
HETATM   22  C   UNL     1      -9.775   7.324  70.226  1.00  0.00    -0.175 C  
HETATM   23  C   UNL     1      -8.385   6.915  69.667  1.00  0.00    -0.133 C  
BRANCH  21  24
HETATM   24  C   UNL     1      -9.053   5.280  67.930  1.00  0.00    -0.110 C  
BRANCH  24  25
HETATM   25  C   UNL     1      -9.072   4.923  66.433  1.00  0.00    -0.127 A  
HETATM   26  C   UNL     1      -7.910   5.109  65.658  1.00  0.00    -0.096 A  
HETATM   27  C   UNL     1     -10.197   4.366  65.804  1.00  0.00    -0.257 A  
HETATM   28  C   UNL     1      -7.882   4.759  64.305  1.00  0.00    -0.086 A  
HETATM   29  C   UNL     1      -9.016   4.232  63.696  1.00  0.00    -0.138 A  
HETATM   30  C   UNL     1     -10.174   4.038  64.445  1.00  0.00    -0.210 A  
ENDBRANCH  24  25
BRANCH  24  31
HETATM   31  C   UNL     1      -8.531   4.129  68.804  1.00  0.00    -0.098 A  
HETATM   32  C   UNL     1      -7.629   2.193  70.634  1.00  0.00    -0.035 A  
HETATM   33  C   UNL     1      -6.711   2.935  69.896  1.00  0.00    -0.033 A  
HETATM   34  C   UNL     1      -9.444   3.354  69.543  1.00  0.00    -0.219 A  
HETATM   35  C   UNL     1      -7.157   3.900  68.991  1.00  0.00    -0.047 A  
HETATM   36  C   UNL     1      -8.994   2.400  70.457  1.00  0.00    -0.158 A  
ENDBRANCH  24  31
ENDBRANCH  21  24
ENDBRANCH  17  18
ENDBRANCH  16  17
ENDBRANCH  15  16
ENDBRANCH  13  15
ENDBRANCH  11  13
BRANCH  12  37
HETATM   37  C   UNL     1     -10.270  13.967  66.867  1.00  0.00    -0.257 A  
HETATM   38  C   UNL     1     -12.654  13.665  66.497  1.00  0.00    -0.225 A  
HETATM   39  O   UNL     1      -9.622  12.189  63.172  1.00  0.00    -0.339 OA 
HETATM   40  C   UNL     1     -10.014  13.361  65.620  1.00  0.00    -0.249 A  
HETATM   41  O   UNL     1     -11.774  11.919  62.850  1.00  0.00    -0.046 OA 
HETATM   42  C   UNL     1     -11.079  12.918  64.826  1.00  0.00    -0.309 A  
HETATM   43  C   UNL     1     -12.401  13.077  65.256  1.00  0.00    -0.537 A  
HETATM   44  N   UNL     1     -10.804  12.298  63.521  1.00  0.00    -0.454 N  
HETATM   45  C   UNL     1     -11.598  14.096  67.302  1.00  0.00    -0.399 A  
ENDBRANCH  12  37
ENDBRANCH   3   5
ENDBRANCH   2   3
TORSDOF 11
ENDMDL
MODEL       59
REMARK 921   NORMALIZED FREE ENERGY PREDICTED BY IDOCK:   -5.52 KCAL/MOL
REMARK 922        TOTAL FREE ENERGY PREDICTED BY IDOCK:  -10.94 KCAL/MOL
REMARK 923 INTER-LIGAND FREE ENERGY PREDICTED BY IDOCK:   -8.78 KCAL/MOL
REMARK 924 INTRA-LIGAND FREE ENERGY PREDICTED BY IDOCK:   -2.16 KCAL/MOL
REMARK 927      BINDING AFFINITY PREDICTED BY RF-SCORE:    0.00 PKD
ROOT
HETATM    1  C   UNL     1     -12.363  12.503  63.331  1.00  0.00    -0.477 C  
HETATM    2  O   UNL     1     -12.176  12.440  64.748  1.00  0.00    -0.429 OA 
ENDROOT
BRANCH   2   3
HETATM    3  C   UNL     1     -12.498  13.595  65.385  1.00  0.00    -0.499 C  
HETATM    4  O   UNL     1     -13.639  14.004  65.553  1.00  0.00    -0.596 OA 
BRANCH   3   5
HETATM    5  C   UNL     1     -11.272  14.316  65.815  1.00  0.00    -0.317 C  
HETATM    6  C   UNL     1     -10.828  15.414  65.148  1.00  0.00    -0.431 C  
HETATM    7  N   UNL     1      -9.654  16.033  65.552  1.00  0.00    -0.427 NA 
HETATM    8  C   UNL     1     -11.473  16.075  63.956  1.00  0.00     0.200 C  
HETATM    9  C   UNL     1      -8.767  15.509  66.467  1.00  0.00    -0.305 C  
HETATM   10  C   UNL     1      -7.424  16.197  66.560  1.00  0.00    -0.110 C  
HETATM   11  C   UNL     1      -9.122  14.425  67.193  1.00  0.00    -0.238 C  
HETATM   12  C   UNL     1     -10.492  13.761  67.017  1.00  0.00    -0.274 C  
BRANCH  11  13
HETATM   13  C   UNL     1      -8.116  13.775  68.059  1.00  0.00    -0.163 C  
HETATM   14  O   UNL     1      -8.104  13.879  69.277  1.00  0.00     0.146 OA 
BRANCH  13  15
HETATM   15  O   UNL     1      -7.209  13.081  67.322  1.00  0.00    -0.138 OA 
BRANCH  15  16
HETATM   16  C   UNL     1      -5.962  12.871  68.015  1.00  0.00    -0.107 C  
BRANCH  16  17
HETATM   17  C   UNL     1      -5.834  11.387  68.396  1.00  0.00    -0.045 C  
BRANCH  17  18
HETATM   18  N   UNL     1      -7.027  10.550  68.178  1.00  0.00    -0.072 NA 
HETATM   19  C   UNL     1      -6.084   8.287  68.902  1.00  0.00    -0.044 C  
HETATM   20  C   UNL     1      -6.691   9.165  67.777  1.00  0.00    -0.065 C  
HETATM   21  N   UNL     1      -6.929   8.192  70.120  1.00  0.00    -0.040 NA 
HETATM   22  C   UNL     1      -7.820  10.500  69.433  1.00  0.00    -0.147 C  
HETATM   23  C   UNL     1      -7.228   9.586  70.542  1.00  0.00    -0.135 C  
BRANCH  21  24
HETATM   24  C   UNL     1      -8.170   7.393  69.876  1.00  0.00    -0.132 C  
BRANCH  24  25
HETATM   25  C   UNL     1      -7.886   5.926  69.507  1.00  0.00    -0.098 A  
HETATM   26  C   UNL     1      -8.554   5.342  68.413  1.00  0.00    -0.095 A  
HETATM   27  C   UNL     1      -6.942   5.144  70.192  1.00  0.00    -0.053 A  
HETATM   28  C   UNL     1      -8.292   4.024  68.027  1.00  0.00    -0.099 A  
HETATM   29  C   UNL     1      -7.370   3.260  68.736  1.00  0.00    -0.049 A  
HETATM   30  C   UNL     1      -6.697   3.819  69.819  1.00  0.00    -0.034 A  
ENDBRANCH  24  25
BRANCH  24  31
HETATM   31  C   UNL     1      -9.183   7.527  71.023  1.00  0.00    -0.153 A  
HETATM   32  C   UNL     1     -11.105   7.496  73.077  1.00  0.00    -0.413 A  
HETATM   33  C   UNL     1     -11.400   8.097  71.856  1.00  0.00    -0.356 A  
HETATM   34  C   UNL     1      -8.896   6.943  72.270  1.00  0.00    -0.141 A  
HETATM   35  C   UNL     1     -10.449   8.109  70.834  1.00  0.00    -0.229 A  
HETATM   36  C   UNL     1      -9.854   6.920  73.285  1.00  0.00    -0.228 A  
ENDBRANCH  24  31
ENDBRANCH  21  24
ENDBRANCH  17  18
ENDBRANCH  16  17
ENDBRANCH  15  16
ENDBRANCH  13  15
ENDBRANCH  11  13
BRANCH  12  37
HETATM   37  C   UNL     1     -10.352  12.230  66.979  1.00  0.00    -0.237 A  
HETATM   38  C   UNL     1     -10.958  10.027  67.809  1.00  0.00    -0.310 A  
HETATM   39  O   UNL     1      -8.267  10.346  63.925  1.00  0.00    -0.159 OA 
HETATM   40  C   UNL     1      -9.629  11.623  65.933  1.00  0.00    -0.250 A  
HETATM   41  O   UNL     1      -8.817   8.363  64.683  1.00  0.00    -0.017 OA 
HETATM   42  C   UNL     1      -9.581  10.226  65.835  1.00  0.00    -0.209 A  
HETATM   43  C   UNL     1     -10.253   9.425  66.765  1.00  0.00    -0.320 A  
HETATM   44  N   UNL     1      -8.835   9.601  64.733  1.00  0.00    -0.194 N  
HETATM   45  C   UNL     1     -10.998  11.418  67.923  1.00  0.00    -0.295 A  
ENDBRANCH  12  37
ENDBRANCH   3   5
ENDBRANCH   2   3
TORSDOF 11
ENDMDL
MODEL       60
REMARK 921   NORMALIZED FREE ENERGY PREDICTED BY IDOCK:   -5.51 KCAL/MOL
REMARK 922        TOTAL FREE ENERGY PREDICTED BY IDOCK:  -10.92 KCAL/MOL
REMARK 923 INTER-LIGAND FREE ENERGY PREDICTED BY IDOCK:  -10.86 KCAL/MOL
REMARK 924 INTRA-LIGAND FREE ENERGY PREDICTED BY IDOCK:   -0.06 KCAL/MOL
REMARK 927      BINDING AFFINITY PREDICTED BY RF-SCORE:    0.00 PKD
ROOT
HETATM    1  C   UNL     1     -14.321  15.628  72.307  1.00  0.00    -0.390 C  
HETATM    2  O   UNL     1     -13.406  15.831  71.227  1.00  0.00    -0.532 OA 
ENDROOT
BRANCH   2   3
HETATM    3  C   UNL     1     -12.260  15.113  71.350  1.00  0.00    -0.339 C  
HETATM    4  O   UNL     1     -11.384  15.335  72.175  1.00  0.00    -0.442 OA 
BRANCH   3   5
HETATM    5  C   UNL     1     -12.195  14.047  70.316  1.00  0.00    -0.430 C  
HETATM    6  C   UNL     1     -12.459  12.750  70.622  1.00  0.00    -0.246 C  
HETATM    7  N   UNL     1     -12.342  11.777  69.640  1.00  0.00    -0.145 NA 
HETATM    8  C   UNL     1     -12.869  12.199  71.964  1.00  0.00    -0.256 C  
HETATM    9  C   UNL     1     -11.780  11.980  68.398  1.00  0.00    -0.332 C  
HETATM   10  C   UNL     1     -11.496  10.738  67.586  1.00  0.00    -0.234 C  
HETATM   11  C   UNL     1     -11.495  13.239  67.995  1.00  0.00    -0.344 C  
HETATM   12  C   UNL     1     -11.782  14.449  68.892  1.00  0.00    -0.357 C  
BRANCH  11  13
HETATM   13  C   UNL     1     -10.754  13.442  66.733  1.00  0.00    -0.277 C  
HETATM   14  O   UNL     1     -11.288  13.484  65.634  1.00  0.00    -0.297 OA 
BRANCH  13  15
HETATM   15  O   UNL     1      -9.418  13.547  66.959  1.00  0.00    -0.234 OA 
BRANCH  15  16
HETATM   16  C   UNL     1      -8.734  12.278  66.901  1.00  0.00    -0.197 C  
BRANCH  16  17
HETATM   17  C   UNL     1      -8.103  11.977  68.270  1.00  0.00    -0.155 C  
BRANCH  17  18
HETATM   18  N   UNL     1      -7.405  10.686  68.400  1.00  0.00    -0.087 NA 
HETATM   19  C   UNL     1      -9.032   9.490  69.967  1.00  0.00    -0.223 C  
HETATM   20  C   UNL     1      -7.608  10.054  69.723  1.00  0.00    -0.164 C  
HETATM   21  N   UNL     1      -9.479   8.509  68.946  1.00  0.00    -0.146 NA 
HETATM   22  C   UNL     1      -7.902   9.758  67.351  1.00  0.00    -0.099 C  
HETATM   23  C   UNL     1      -9.312   9.164  67.622  1.00  0.00    -0.135 C  
BRANCH  21  24
HETATM   24  C   UNL     1      -8.724   7.221  69.042  1.00  0.00    -0.132 C  
BRANCH  24  25
HETATM   25  C   UNL     1      -8.870   6.531  70.410  1.00  0.00    -0.151 A  
HETATM   26  C   UNL     1     -10.149   6.154  70.866  1.00  0.00    -0.237 A  
HETATM   27  C   UNL     1      -7.766   6.211  71.216  1.00  0.00    -0.106 A  
HETATM   28  C   UNL     1     -10.313   5.491  72.085  1.00  0.00    -0.263 A  
HETATM   29  C   UNL     1      -9.207   5.206  72.880  1.00  0.00    -0.142 A  
HETATM   30  C   UNL     1      -7.934   5.568  72.447  1.00  0.00    -0.103 A  
ENDBRANCH  24  25
BRANCH  24  31
HETATM   31  C   UNL     1      -9.030   6.277  67.869  1.00  0.00    -0.113 A  
HETATM   32  C   UNL     1      -9.538   4.774  65.547  1.00  0.00    -0.172 A  
HETATM   33  C   UNL     1     -10.597   5.224  66.331  1.00  0.00    -0.338 A  
HETATM   34  C   UNL     1      -7.973   5.795  67.076  1.00  0.00    -0.102 A  
HETATM   35  C   UNL     1     -10.346   5.974  67.481  1.00  0.00    -0.262 A  
HETATM   36  C   UNL     1      -8.227   5.057  65.919  1.00  0.00    -0.114 A  
ENDBRANCH  24  31
ENDBRANCH  21  24
ENDBRANCH  17  18
ENDBRANCH  16  17
ENDBRANCH  15  16
ENDBRANCH  13  15
ENDBRANCH  11  13
BRANCH  12  37
HETATM   37  C   UNL     1     -10.600  15.432  68.870  1.00  0.00    -0.244 A  
HETATM   38  C   UNL     1      -8.247  15.925  69.234  1.00  0.00    -0.227 A  
HETATM   39  O   UNL     1     -10.957  19.167  67.096  1.00  0.00    -0.453 OA 
HETATM   40  C   UNL     1     -10.758  16.697  68.268  1.00  0.00    -0.351 A  
HETATM   41  O   UNL     1      -8.834  19.603  67.431  1.00  0.00    -0.298 OA 
HETATM   42  C   UNL     1      -9.659  17.558  68.153  1.00  0.00    -0.294 A  
HETATM   43  C   UNL     1      -8.400  17.172  68.626  1.00  0.00    -0.257 A  
HETATM   44  N   UNL     1      -9.830  18.870  67.512  1.00  0.00    -0.316 N  
HETATM   45  C   UNL     1      -9.340  15.066  69.366  1.00  0.00    -0.120 A  
ENDBRANCH  12  37
ENDBRANCH   3   5
ENDBRANCH   2   3
TORSDOF 11
ENDMDL
MODEL       61
REMARK 921   NORMALIZED FREE ENERGY PREDICTED BY IDOCK:   -5.44 KCAL/MOL
REMARK 922        TOTAL FREE ENERGY PREDICTED BY IDOCK:  -10.81 KCAL/MOL
REMARK 923 INTER-LIGAND FREE ENERGY PREDICTED BY IDOCK:   -9.40 KCAL/MOL
REMARK 924 INTRA-LIGAND FREE ENERGY PREDICTED BY IDOCK:   -1.40 KCAL/MOL
REMARK 927      BINDING AFFINITY PREDICTED BY RF-SCORE:    0.00 PKD
ROOT
HETATM    1  C   UNL     1      -7.024   5.202  72.837  1.00  0.00    -0.079 C  
HETATM    2  O   UNL     1      -7.496   5.955  71.716  1.00  0.00    -0.091 OA 
ENDROOT
BRANCH   2   3
HETATM    3  C   UNL     1      -8.835   5.849  71.521  1.00  0.00    -0.136 C  
HETATM    4  O   UNL     1      -9.478   4.814  71.643  1.00  0.00    -0.140 OA 
BRANCH   3   5
HETATM    5  C   UNL     1      -9.408   7.153  71.098  1.00  0.00    -0.157 C  
HETATM    6  C   UNL     1     -10.237   7.858  71.912  1.00  0.00    -0.202 C  
HETATM    7  N   UNL     1     -10.788   9.049  71.463  1.00  0.00    -0.320 NA 
HETATM    8  C   UNL     1     -10.668   7.488  73.309  1.00  0.00    -0.437 C  
HETATM    9  C   UNL     1     -10.730   9.498  70.161  1.00  0.00    -0.257 C  
HETATM   10  C   UNL     1     -11.624  10.668  69.821  1.00  0.00    -0.385 C  
HETATM   11  C   UNL     1      -9.921   8.872  69.277  1.00  0.00    -0.192 C  
HETATM   12  C   UNL     1      -9.068   7.667  69.691  1.00  0.00    -0.147 C  
BRANCH  11  13
HETATM   13  C   UNL     1      -9.976   9.256  67.852  1.00  0.00    -0.187 C  
HETATM   14  O   UNL     1     -10.875   8.921  67.094  1.00  0.00    -0.209 OA 
BRANCH  13  15
HETATM   15  O   UNL     1      -8.892   9.997  67.501  1.00  0.00    -0.128 OA 
BRANCH  15  16
HETATM   16  C   UNL     1      -9.221  11.104  66.637  1.00  0.00    -0.175 C  
BRANCH  16  17
HETATM   17  C   UNL     1      -8.037  12.084  66.592  1.00  0.00    -0.023 C  
BRANCH  17  18
HETATM   18  N   UNL     1      -7.898  12.997  67.740  1.00  0.00    -0.142 NA 
HETATM   19  C   UNL     1      -8.973  15.089  66.739  1.00  0.00    -0.265 C  
HETATM   20  C   UNL     1      -7.712  14.408  67.332  1.00  0.00    -0.185 C  
HETATM   21  N   UNL     1     -10.160  15.050  67.630  1.00  0.00    -0.230 NA 
HETATM   22  C   UNL     1      -9.118  12.905  68.583  1.00  0.00     0.048 C  
HETATM   23  C   UNL     1     -10.367  13.625  68.003  1.00  0.00    -0.250 C  
BRANCH  21  24
HETATM   24  C   UNL     1      -9.989  15.931  68.826  1.00  0.00    -0.220 C  
BRANCH  24  25
HETATM   25  C   UNL     1      -9.886  17.425  68.472  1.00  0.00    -0.320 A  
HETATM   26  C   UNL     1      -8.710  18.135  68.783  1.00  0.00    -0.227 A  
HETATM   27  C   UNL     1     -10.908  18.113  67.798  1.00  0.00    -0.250 A  
HETATM   28  C   UNL     1      -8.569  19.483  68.441  1.00  0.00    -0.389 A  
HETATM   29  C   UNL     1      -9.605  20.151  67.795  1.00  0.00    -0.508 A  
HETATM   30  C   UNL     1     -10.774  19.467  67.476  1.00  0.00    -0.565 A  
ENDBRANCH  24  25
BRANCH  24  31
HETATM   31  C   UNL     1     -11.041  15.653  69.910  1.00  0.00    -0.323 A  
HETATM   32  C   UNL     1     -12.825  14.898  71.950  1.00  0.00    -0.402 A  
HETATM   33  C   UNL     1     -13.194  14.758  70.615  1.00  0.00    -0.292 A  
HETATM   34  C   UNL     1     -10.695  15.808  71.265  1.00  0.00     0.221 A  
HETATM   35  C   UNL     1     -12.308  15.127  69.602  1.00  0.00    -0.242 A  
HETATM   36  C   UNL     1     -11.578  15.424  72.276  1.00  0.00    -0.554 A  
ENDBRANCH  24  31
ENDBRANCH  21  24
ENDBRANCH  17  18
ENDBRANCH  16  17
ENDBRANCH  15  16
ENDBRANCH  13  15
ENDBRANCH  11  13
BRANCH  12  37
HETATM   37  C   UNL     1      -9.134   6.564  68.622  1.00  0.00    -0.128 A  
HETATM   38  C   UNL     1     -10.390   4.904  67.365  1.00  0.00    -0.127 A  
HETATM   39  O   UNL     1      -5.937   5.865  66.068  1.00  0.00    -0.026 OA 
HETATM   40  C   UNL     1      -8.027   6.346  67.777  1.00  0.00    -0.114 A  
HETATM   41  O   UNL     1      -7.078   4.368  64.942  1.00  0.00    -0.060 OA 
HETATM   42  C   UNL     1      -8.115   5.414  66.736  1.00  0.00    -0.105 A  
HETATM   43  C   UNL     1      -9.297   4.698  66.520  1.00  0.00    -0.151 A  
HETATM   44  N   UNL     1      -6.960   5.202  65.851  1.00  0.00    -0.065 N  
HETATM   45  C   UNL     1     -10.305   5.821  68.415  1.00  0.00    -0.269 A  
ENDBRANCH  12  37
ENDBRANCH   3   5
ENDBRANCH   2   3
TORSDOF 11
ENDMDL
MODEL       62
REMARK 921   NORMALIZED FREE ENERGY PREDICTED BY IDOCK:   -5.42 KCAL/MOL
REMARK 922        TOTAL FREE ENERGY PREDICTED BY IDOCK:  -10.77 KCAL/MOL
REMARK 923 INTER-LIGAND FREE ENERGY PREDICTED BY IDOCK:   -9.62 KCAL/MOL
REMARK 924 INTRA-LIGAND FREE ENERGY PREDICTED BY IDOCK:   -1.15 KCAL/MOL
REMARK 927      BINDING AFFINITY PREDICTED BY RF-SCORE:    0.00 PKD
ROOT
HETATM    1  C   UNL     1      -9.929  18.333  68.391  1.00  0.00    -0.382 C  
HETATM    2  O   UNL     1     -10.662  17.431  67.558  1.00  0.00    -0.347 OA 
ENDROOT
BRANCH   2   3
HETATM    3  C   UNL     1      -9.938  16.953  66.514  1.00  0.00    -0.301 C  
HETATM    4  O   UNL     1     -10.151  17.218  65.338  1.00  0.00    -0.574 OA 
BRANCH   3   5
HETATM    5  C   UNL     1      -8.875  16.030  66.991  1.00  0.00    -0.235 C  
HETATM    6  C   UNL     1      -7.561  16.366  66.914  1.00  0.00    -0.240 C  
HETATM    7  N   UNL     1      -6.596  15.458  67.327  1.00  0.00    -0.295 NA 
HETATM    8  C   UNL     1      -6.983  17.660  66.399  1.00  0.00    -0.300 C  
HETATM    9  C   UNL     1      -6.843  14.137  67.633  1.00  0.00    -0.179 C  
HETATM   10  C   UNL     1      -5.628  13.253  67.789  1.00  0.00    -0.109 C  
HETATM   11  C   UNL     1      -8.120  13.708  67.747  1.00  0.00    -0.173 C  
HETATM   12  C   UNL     1      -9.303  14.661  67.540  1.00  0.00    -0.195 C  
BRANCH  11  13
HETATM   13  C   UNL     1      -8.384  12.265  67.922  1.00  0.00    -0.163 C  
HETATM   14  O   UNL     1      -8.007  11.408  67.136  1.00  0.00    -0.140 OA 
BRANCH  13  15
HETATM   15  O   UNL     1      -9.114  12.032  69.044  1.00  0.00     0.123 OA 
BRANCH  15  16
HETATM   16  C   UNL     1     -10.251  11.175  68.810  1.00  0.00    -0.206 C  
BRANCH  16  17
HETATM   17  C   UNL     1     -10.509  10.319  70.061  1.00  0.00    -0.241 C  
BRANCH  17  18
HETATM   18  N   UNL     1     -10.998   8.949  69.827  1.00  0.00    -0.202 NA 
HETATM   19  C   UNL     1      -8.756   7.736  69.634  1.00  0.00    -0.135 C  
HETATM   20  C   UNL     1     -10.092   8.155  68.967  1.00  0.00    -0.205 C  
HETATM   21  N   UNL     1      -8.922   6.979  70.901  1.00  0.00    -0.151 NA 
HETATM   22  C   UNL     1     -11.138   8.255  71.133  1.00  0.00    -0.250 C  
HETATM   23  C   UNL     1      -9.799   7.800  71.777  1.00  0.00    -0.167 C  
BRANCH  21  24
HETATM   24  C   UNL     1      -9.477   5.610  70.663  1.00  0.00    -0.164 C  
BRANCH  24  25
HETATM   25  C   UNL     1      -8.692   4.811  69.609  1.00  0.00    -0.112 A  
HETATM   26  C   UNL     1      -9.383   4.195  68.546  1.00  0.00    -0.216 A  
HETATM   27  C   UNL     1      -7.292   4.703  69.630  1.00  0.00    -0.051 A  
HETATM   28  C   UNL     1      -8.698   3.493  67.551  1.00  0.00    -0.130 A  
HETATM   29  C   UNL     1      -7.312   3.379  67.605  1.00  0.00    -0.058 A  
HETATM   30  C   UNL     1      -6.610   3.982  68.645  1.00  0.00    -0.045 A  
ENDBRANCH  24  25
BRANCH  24  31
HETATM   31  C   UNL     1      -9.675   4.828  71.971  1.00  0.00    -0.217 A  
HETATM   32  C   UNL     1     -10.046   3.155  74.202  1.00  0.00    -0.185 A  
HETATM   33  C   UNL     1     -11.110   3.907  73.710  1.00  0.00    -0.291 A  
HETATM   34  C   UNL     1      -8.607   4.077  72.495  1.00  0.00    -0.107 A  
HETATM   35  C   UNL     1     -10.928   4.733  72.600  1.00  0.00    -0.219 A  
HETATM   36  C   UNL     1      -8.795   3.241  73.596  1.00  0.00    -0.076 A  
ENDBRANCH  24  31
ENDBRANCH  21  24
ENDBRANCH  17  18
ENDBRANCH  16  17
ENDBRANCH  15  16
ENDBRANCH  13  15
ENDBRANCH  11  13
BRANCH  12  37
HETATM   37  C   UNL     1     -10.395  13.992  66.688  1.00  0.00    -0.278 A  
HETATM   38  C   UNL     1     -12.739  13.596  66.178  1.00  0.00    -0.295 A  
HETATM   39  O   UNL     1      -9.445  12.004  63.170  1.00  0.00    -0.325 OA 
HETATM   40  C   UNL     1     -10.037  13.316  65.504  1.00  0.00    -0.274 A  
HETATM   41  O   UNL     1     -11.562  11.650  62.720  1.00  0.00     0.227 OA 
HETATM   42  C   UNL     1     -11.032  12.792  64.670  1.00  0.00    -0.327 A  
HETATM   43  C   UNL     1     -12.385  12.939  64.998  1.00  0.00    -0.541 A  
HETATM   44  N   UNL     1     -10.651  12.100  63.430  1.00  0.00    -0.442 N  
HETATM   45  C   UNL     1     -11.752  14.109  67.022  1.00  0.00    -0.430 A  
ENDBRANCH  12  37
ENDBRANCH   3   5
ENDBRANCH   2   3
TORSDOF 11
ENDMDL
MODEL       63
REMARK 921   NORMALIZED FREE ENERGY PREDICTED BY IDOCK:   -5.30 KCAL/MOL
REMARK 922        TOTAL FREE ENERGY PREDICTED BY IDOCK:  -10.56 KCAL/MOL
REMARK 923 INTER-LIGAND FREE ENERGY PREDICTED BY IDOCK:   -9.47 KCAL/MOL
REMARK 924 INTRA-LIGAND FREE ENERGY PREDICTED BY IDOCK:   -1.09 KCAL/MOL
REMARK 927      BINDING AFFINITY PREDICTED BY RF-SCORE:    0.00 PKD
ROOT
HETATM    1  C   UNL     1      -9.769   2.851  64.495  1.00  0.00    -0.114 C  
HETATM    2  O   UNL     1     -10.128   3.890  65.410  1.00  0.00    -0.168 OA 
ENDROOT
BRANCH   2   3
HETATM    3  C   UNL     1      -9.065   4.424  66.063  1.00  0.00    -0.131 C  
HETATM    4  O   UNL     1      -8.330   3.806  66.822  1.00  0.00    -0.102 OA 
BRANCH   3   5
HETATM    5  C   UNL     1      -8.941   5.875  65.764  1.00  0.00    -0.131 C  
HETATM    6  C   UNL     1      -8.143   6.323  64.759  1.00  0.00    -0.127 C  
HETATM    7  N   UNL     1      -8.017   7.687  64.541  1.00  0.00    -0.139 NA 
HETATM    8  C   UNL     1      -7.324   5.487  63.809  1.00  0.00    -0.054 C  
HETATM    9  C   UNL     1      -8.484   8.664  65.394  1.00  0.00    -0.172 C  
HETATM   10  C   UNL     1      -8.005  10.070  65.119  1.00  0.00    -0.145 C  
HETATM   11  C   UNL     1      -9.298   8.320  66.417  1.00  0.00    -0.274 C  
HETATM   12  C   UNL     1      -9.713   6.863  66.652  1.00  0.00    -0.221 C  
BRANCH  11  13
HETATM   13  C   UNL     1      -9.671   9.341  67.418  1.00  0.00    -0.161 C  
HETATM   14  O   UNL     1      -8.972   9.635  68.377  1.00  0.00    -0.123 OA 
BRANCH  13  15
HETATM   15  O   UNL     1     -10.888   9.878  67.141  1.00  0.00    -0.241 OA 
BRANCH  15  16
HETATM   16  C   UNL     1     -11.424  10.653  68.233  1.00  0.00    -0.245 C  
BRANCH  16  17
HETATM   17  C   UNL     1     -11.776  12.063  67.731  1.00  0.00    -0.309 C  
BRANCH  17  18
HETATM   18  N   UNL     1     -10.744  12.751  66.936  1.00  0.00    -0.251 NA 
HETATM   19  C   UNL     1     -11.339  15.175  67.492  1.00  0.00    -0.320 C  
HETATM   20  C   UNL     1     -11.198  14.063  66.420  1.00  0.00    -0.319 C  
HETATM   21  N   UNL     1     -10.101  15.422  68.276  1.00  0.00    -0.216 NA 
HETATM   22  C   UNL     1      -9.542  12.965  67.781  1.00  0.00    -0.212 C  
HETATM   23  C   UNL     1      -9.675  14.108  68.825  1.00  0.00    -0.148 C  
BRANCH  21  24
HETATM   24  C   UNL     1      -9.035  16.064  67.446  1.00  0.00    -0.191 C  
BRANCH  24  25
HETATM   25  C   UNL     1      -9.340  17.531  67.094  1.00  0.00    -0.250 A  
HETATM   26  C   UNL     1      -8.381  18.293  66.398  1.00  0.00    -0.267 A  
HETATM   27  C   UNL     1     -10.568  18.141  67.398  1.00  0.00    -0.406 A  
HETATM   28  C   UNL     1      -8.640  19.616  66.029  1.00  0.00    -0.274 A  
HETATM   29  C   UNL     1      -9.855  20.209  66.362  1.00  0.00    -0.560 A  
HETATM   30  C   UNL     1     -10.817  19.472  67.048  1.00  0.00    -0.542 A  
ENDBRANCH  24  25
BRANCH  24  31
HETATM   31  C   UNL     1      -7.636  15.882  68.053  1.00  0.00    -0.137 A  
HETATM   32  C   UNL     1      -5.160  15.284  69.247  1.00  0.00    -0.092 A  
HETATM   33  C   UNL     1      -6.057  16.132  69.891  1.00  0.00    -0.172 A  
HETATM   34  C   UNL     1      -6.707  15.045  67.408  1.00  0.00    -0.104 A  
HETATM   35  C   UNL     1      -7.289  16.425  69.302  1.00  0.00    -0.211 A  
HETATM   36  C   UNL     1      -5.483  14.741  68.006  1.00  0.00    -0.130 A  
ENDBRANCH  24  31
ENDBRANCH  21  24
ENDBRANCH  17  18
ENDBRANCH  16  17
ENDBRANCH  15  16
ENDBRANCH  13  15
ENDBRANCH  11  13
BRANCH  12  37
HETATM   37  C   UNL     1      -9.630   6.510  68.146  1.00  0.00    -0.123 A  
HETATM   38  C   UNL     1      -8.328   5.961  70.124  1.00  0.00    -0.118 A  
HETATM   39  O   UNL     1     -12.964   6.804  70.602  1.00  0.00    -0.070 OA 
HETATM   40  C   UNL     1     -10.784   6.612  68.950  1.00  0.00    -0.304 A  
HETATM   41  O   UNL     1     -11.780   6.306  72.380  1.00  0.00    -0.295 OA 
HETATM   42  C   UNL     1     -10.695   6.390  70.330  1.00  0.00    -0.262 A  
HETATM   43  C   UNL     1      -9.468   6.075  70.923  1.00  0.00    -0.188 A  
HETATM   44  N   UNL     1     -11.901   6.511  71.163  1.00  0.00    -0.343 N  
HETATM   45  C   UNL     1      -8.410   6.166  68.746  1.00  0.00    -0.111 A  
ENDBRANCH  12  37
ENDBRANCH   3   5
ENDBRANCH   2   3
TORSDOF 11
ENDMDL
MODEL       64
REMARK 921   NORMALIZED FREE ENERGY PREDICTED BY IDOCK:   -5.27 KCAL/MOL
REMARK 922        TOTAL FREE ENERGY PREDICTED BY IDOCK:  -10.53 KCAL/MOL
REMARK 923 INTER-LIGAND FREE ENERGY PREDICTED BY IDOCK:   -9.97 KCAL/MOL
REMARK 924 INTRA-LIGAND FREE ENERGY PREDICTED BY IDOCK:   -0.56 KCAL/MOL
REMARK 927      BINDING AFFINITY PREDICTED BY RF-SCORE:    0.00 PKD
ROOT
HETATM    1  C   UNL     1     -10.388   4.814  65.826  1.00  0.00    -0.237 C  
HETATM    2  O   UNL     1     -10.182   5.073  67.217  1.00  0.00    -0.192 OA 
ENDROOT
BRANCH   2   3
HETATM    3  C   UNL     1      -8.874   5.221  67.549  1.00  0.00    -0.105 C  
HETATM    4  O   UNL     1      -8.064   4.306  67.618  1.00  0.00    -0.094 OA 
BRANCH   3   5
HETATM    5  C   UNL     1      -8.569   6.643  67.859  1.00  0.00    -0.118 C  
HETATM    6  C   UNL     1      -7.862   7.418  66.995  1.00  0.00    -0.116 C  
HETATM    7  N   UNL     1      -7.559   8.727  67.341  1.00  0.00    -0.089 NA 
HETATM    8  C   UNL     1      -7.325   7.016  65.645  1.00  0.00    -0.079 C  
HETATM    9  C   UNL     1      -7.742   9.269  68.595  1.00  0.00    -0.085 C  
HETATM   10  C   UNL     1      -7.094  10.612  68.839  1.00  0.00    -0.078 C  
HETATM   11  C   UNL     1      -8.446   8.580  69.521  1.00  0.00    -0.127 C  
HETATM   12  C   UNL     1      -9.044   7.204  69.208  1.00  0.00    -0.137 C  
BRANCH  11  13
HETATM   13  C   UNL     1      -8.510   9.091  70.906  1.00  0.00    -0.208 C  
HETATM   14  O   UNL     1      -7.529   9.228  71.623  1.00  0.00    -0.339 OA 
BRANCH  13  15
HETATM   15  O   UNL     1      -9.792   9.357  71.273  1.00  0.00    -0.275 OA 
BRANCH  15  16
HETATM   16  C   UNL     1     -10.584   9.903  70.198  1.00  0.00    -0.297 C  
BRANCH  16  17
HETATM   17  C   UNL     1     -11.662  10.831  70.782  1.00  0.00    -0.298 C  
BRANCH  17  18
HETATM   18  N   UNL     1     -12.406  11.659  69.817  1.00  0.00    -0.186 NA 
HETATM   19  C   UNL     1     -10.736  13.574  69.539  1.00  0.00     0.199 C  
HETATM   20  C   UNL     1     -12.146  13.107  69.983  1.00  0.00    -0.305 C  
HETATM   21  N   UNL     1     -10.399  13.233  68.134  1.00  0.00    -0.238 NA 
HETATM   22  C   UNL     1     -12.018  11.264  68.438  1.00  0.00    -0.185 C  
HETATM   23  C   UNL     1     -10.621  11.770  67.984  1.00  0.00    -0.206 C  
BRANCH  21  24
HETATM   24  C   UNL     1     -11.202  14.032  67.157  1.00  0.00    -0.313 C  
BRANCH  24  25
HETATM   25  C   UNL     1     -10.797  15.516  67.109  1.00  0.00    -0.316 A  
HETATM   26  C   UNL     1     -10.951  16.318  68.257  1.00  0.00    -0.348 A  
HETATM   27  C   UNL     1     -10.228  16.107  65.969  1.00  0.00    -0.374 A  
HETATM   28  C   UNL     1     -10.559  17.659  68.259  1.00  0.00    -0.342 A  
HETATM   29  C   UNL     1     -10.019  18.230  67.110  1.00  0.00    -0.345 A  
HETATM   30  C   UNL     1      -9.856  17.455  65.965  1.00  0.00    -0.201 A  
ENDBRANCH  24  25
BRANCH  24  31
HETATM   31  C   UNL     1     -11.239  13.385  65.765  1.00  0.00    -0.305 A  
HETATM   32  C   UNL     1     -11.366  11.950  63.349  1.00  0.00    -0.465 A  
HETATM   33  C   UNL     1     -10.131  12.310  63.881  1.00  0.00    -0.374 A  
HETATM   34  C   UNL     1     -12.478  13.031  65.200  1.00  0.00    -0.552 A  
HETATM   35  C   UNL     1     -10.066  13.018  65.082  1.00  0.00    -0.238 A  
HETATM   36  C   UNL     1     -12.539  12.311  64.007  1.00  0.00    -0.521 A  
ENDBRANCH  24  31
ENDBRANCH  21  24
ENDBRANCH  17  18
ENDBRANCH  16  17
ENDBRANCH  15  16
ENDBRANCH  13  15
ENDBRANCH  11  13
BRANCH  12  37
HETATM   37  C   UNL     1      -8.807   6.232  70.375  1.00  0.00    -0.147 A  
HETATM   38  C   UNL     1      -7.301   4.974  71.811  1.00  0.00    -0.076 A  
HETATM   39  O   UNL     1     -11.910   5.113  72.895  1.00  0.00    -0.256 OA 
HETATM   40  C   UNL     1      -9.885   5.865  71.206  1.00  0.00    -0.215 A  
HETATM   41  O   UNL     1     -10.544   3.980  74.183  1.00  0.00    -0.201 OA 
HETATM   42  C   UNL     1      -9.658   5.060  72.330  1.00  0.00    -0.148 A  
HETATM   43  C   UNL     1      -8.367   4.622  72.642  1.00  0.00    -0.114 A  
HETATM   44  N   UNL     1     -10.786   4.693  73.199  1.00  0.00    -0.241 N  
HETATM   45  C   UNL     1      -7.520   5.763  70.680  1.00  0.00    -0.086 A  
ENDBRANCH  12  37
ENDBRANCH   3   5
ENDBRANCH   2   3
TORSDOF 11
ENDMDL
MODEL       65
REMARK 921   NORMALIZED FREE ENERGY PREDICTED BY IDOCK:   -5.27 KCAL/MOL
REMARK 922        TOTAL FREE ENERGY PREDICTED BY IDOCK:  -10.53 KCAL/MOL
REMARK 923 INTER-LIGAND FREE ENERGY PREDICTED BY IDOCK:   -9.49 KCAL/MOL
REMARK 924 INTRA-LIGAND FREE ENERGY PREDICTED BY IDOCK:   -1.03 KCAL/MOL
REMARK 927      BINDING AFFINITY PREDICTED BY RF-SCORE:    0.00 PKD
ROOT
HETATM    1  C   UNL     1     -12.763   6.744  71.453  1.00  0.00    -0.263 C  
HETATM    2  O   UNL     1     -11.687   6.678  70.514  1.00  0.00    -0.369 OA 
ENDROOT
BRANCH   2   3
HETATM    3  C   UNL     1     -10.598   6.021  70.988  1.00  0.00    -0.246 C  
HETATM    4  O   UNL     1     -10.637   4.988  71.642  1.00  0.00    -0.194 OA 
BRANCH   3   5
HETATM    5  C   UNL     1      -9.351   6.752  70.639  1.00  0.00    -0.162 C  
HETATM    6  C   UNL     1      -9.085   7.981  71.156  1.00  0.00    -0.149 C  
HETATM    7  N   UNL     1      -7.933   8.651  70.770  1.00  0.00    -0.104 NA 
HETATM    8  C   UNL     1      -9.930   8.757  72.134  1.00  0.00    -0.359 C  
HETATM    9  C   UNL     1      -7.109   8.263  69.736  1.00  0.00    -0.056 C  
HETATM   10  C   UNL     1      -6.072   9.271  69.299  1.00  0.00    -0.041 C  
HETATM   11  C   UNL     1      -7.284   7.050  69.166  1.00  0.00    -0.090 C  
HETATM   12  C   UNL     1      -8.384   6.095  69.643  1.00  0.00    -0.124 C  
BRANCH  11  13
HETATM   13  C   UNL     1      -6.504   6.699  67.961  1.00  0.00    -0.056 C  
HETATM   14  O   UNL     1      -5.890   5.650  67.835  1.00  0.00    -0.015 OA 
BRANCH  13  15
HETATM   15  O   UNL     1      -6.543   7.700  67.043  1.00  0.00    -0.058 OA 
BRANCH  15  16
HETATM   16  C   UNL     1      -7.433   7.422  65.942  1.00  0.00    -0.080 C  
BRANCH  16  17
HETATM   17  C   UNL     1      -7.767   8.734  65.214  1.00  0.00    -0.098 C  
BRANCH  17  18
HETATM   18  N   UNL     1      -9.174   9.168  65.258  1.00  0.00    -0.209 NA 
HETATM   19  C   UNL     1      -9.209  10.226  67.585  1.00  0.00    -0.144 C  
HETATM   20  C   UNL     1      -9.743   9.131  66.625  1.00  0.00    -0.223 C  
HETATM   21  N   UNL     1      -9.383  11.612  67.082  1.00  0.00    -0.172 NA 
HETATM   22  C   UNL     1      -9.270  10.558  64.743  1.00  0.00    -0.227 C  
HETATM   23  C   UNL     1      -8.772  11.653  65.726  1.00  0.00     0.060 C  
BRANCH  21  24
HETATM   24  C   UNL     1     -10.820  12.025  67.071  1.00  0.00    -0.253 C  
BRANCH  24  25
HETATM   25  C   UNL     1     -11.403  12.236  68.479  1.00  0.00    -0.332 A  
HETATM   26  C   UNL     1     -11.603  13.546  68.960  1.00  0.00    -0.356 A  
HETATM   27  C   UNL     1     -11.795  11.169  69.302  1.00  0.00    -0.422 A  
HETATM   28  C   UNL     1     -12.166  13.773  70.219  1.00  0.00    -0.429 A  
HETATM   29  C   UNL     1     -12.525  12.699  71.028  1.00  0.00    -0.354 A  
HETATM   30  C   UNL     1     -12.337  11.398  70.571  1.00  0.00    -0.439 A  
ENDBRANCH  24  25
BRANCH  24  31
HETATM   31  C   UNL     1     -11.075  13.222  66.141  1.00  0.00    -0.300 A  
HETATM   32  C   UNL     1     -11.655  15.547  64.669  1.00  0.00    -0.281 A  
HETATM   33  C   UNL     1     -12.458  14.418  64.532  1.00  0.00    -0.362 A  
HETATM   34  C   UNL     1     -10.262  14.365  66.249  1.00  0.00    -0.307 A  
HETATM   35  C   UNL     1     -12.174  13.264  65.266  1.00  0.00    -0.492 A  
HETATM   36  C   UNL     1     -10.557  15.521  65.525  1.00  0.00    -0.413 A  
ENDBRANCH  24  31
ENDBRANCH  21  24
ENDBRANCH  17  18
ENDBRANCH  16  17
ENDBRANCH  15  16
ENDBRANCH  13  15
ENDBRANCH  11  13
BRANCH  12  37
HETATM   37  C   UNL     1      -9.106   5.457  68.445  1.00  0.00    -0.119 A  
HETATM   38  C   UNL     1     -10.648   5.616  66.572  1.00  0.00    -0.320 A  
HETATM   39  O   UNL     1      -8.039   1.693  67.058  1.00  0.00    -0.068 OA 
HETATM   40  C   UNL     1      -8.726   4.173  68.005  1.00  0.00    -0.116 A  
HETATM   41  O   UNL     1      -9.434   1.845  65.373  1.00  0.00    -0.030 OA 
HETATM   42  C   UNL     1      -9.307   3.627  66.854  1.00  0.00    -0.194 A  
HETATM   43  C   UNL     1     -10.261   4.349  66.129  1.00  0.00    -0.232 A  
HETATM   44  N   UNL     1      -8.895   2.293  66.395  1.00  0.00    -0.121 N  
HETATM   45  C   UNL     1     -10.084   6.161  67.727  1.00  0.00    -0.177 A  
ENDBRANCH  12  37
ENDBRANCH   3   5
ENDBRANCH   2   3
TORSDOF 11
ENDMDL
MODEL       66
REMARK 921   NORMALIZED FREE ENERGY PREDICTED BY IDOCK:   -5.24 KCAL/MOL
REMARK 922        TOTAL FREE ENERGY PREDICTED BY IDOCK:  -10.46 KCAL/MOL
REMARK 923 INTER-LIGAND FREE ENERGY PREDICTED BY IDOCK:   -8.56 KCAL/MOL
REMARK 924 INTRA-LIGAND FREE ENERGY PREDICTED BY IDOCK:   -1.90 KCAL/MOL
REMARK 927      BINDING AFFINITY PREDICTED BY RF-SCORE:    0.00 PKD
ROOT
HETATM    1  C   UNL     1     -12.235  13.950  70.218  1.00  0.00    -0.358 C  
HETATM    2  O   UNL     1     -12.056  13.141  69.052  1.00  0.00    -0.291 OA 
ENDROOT
BRANCH   2   3
HETATM    3  C   UNL     1     -11.602  13.837  67.979  1.00  0.00    -0.333 C  
HETATM    4  O   UNL     1     -12.263  14.089  66.980  1.00  0.00    -0.430 OA 
BRANCH   3   5
HETATM    5  C   UNL     1     -10.176  14.216  68.164  1.00  0.00    -0.241 C  
HETATM    6  C   UNL     1      -9.784  15.517  68.153  1.00  0.00    -0.208 C  
HETATM    7  N   UNL     1      -8.439  15.828  68.284  1.00  0.00    -0.161 NA 
HETATM    8  C   UNL     1     -10.666  16.730  67.997  1.00  0.00    -0.355 C  
HETATM    9  C   UNL     1      -7.412  14.910  68.225  1.00  0.00    -0.113 C  
HETATM   10  C   UNL     1      -6.017  15.479  68.108  1.00  0.00    -0.138 C  
HETATM   11  C   UNL     1      -7.700  13.589  68.245  1.00  0.00    -0.137 C  
HETATM   12  C   UNL     1      -9.146  13.088  68.330  1.00  0.00    -0.129 C  
BRANCH  11  13
HETATM   13  C   UNL     1      -6.615  12.611  68.027  1.00  0.00    -0.095 C  
HETATM   14  O   UNL     1      -6.089  12.414  66.941  1.00  0.00    -0.244 OA 
BRANCH  13  15
HETATM   15  O   UNL     1      -6.308  11.954  69.177  1.00  0.00    -0.075 OA 
BRANCH  15  16
HETATM   16  C   UNL     1      -5.156  11.095  69.046  1.00  0.00    -0.041 C  
BRANCH  16  17
HETATM   17  C   UNL     1      -5.506   9.691  69.567  1.00  0.00    -0.034 C  
BRANCH  17  18
HETATM   18  N   UNL     1      -6.757   9.098  69.063  1.00  0.00    -0.054 NA 
HETATM   19  C   UNL     1      -6.553   6.765  70.089  1.00  0.00    -0.044 C  
HETATM   20  C   UNL     1      -6.642   7.643  68.814  1.00  0.00    -0.049 C  
HETATM   21  N   UNL     1      -7.681   6.954  71.035  1.00  0.00    -0.094 NA 
HETATM   22  C   UNL     1      -7.836   9.323  70.058  1.00  0.00    -0.116 C  
HETATM   23  C   UNL     1      -7.765   8.412  71.315  1.00  0.00    -0.098 C  
BRANCH  21  24
HETATM   24  C   UNL     1      -8.962   6.405  70.492  1.00  0.00    -0.151 C  
BRANCH  24  25
HETATM   25  C   UNL     1      -9.052   4.872  70.579  1.00  0.00    -0.176 A  
HETATM   26  C   UNL     1      -9.285   4.120  69.409  1.00  0.00    -0.210 A  
HETATM   27  C   UNL     1      -8.861   4.171  71.780  1.00  0.00    -0.144 A  
HETATM   28  C   UNL     1      -9.334   2.724  69.446  1.00  0.00    -0.189 A  
HETATM   29  C   UNL     1      -9.167   2.052  70.653  1.00  0.00    -0.182 A  
HETATM   30  C   UNL     1      -8.932   2.775  71.819  1.00  0.00    -0.135 A  
ENDBRANCH  24  25
BRANCH  24  31
HETATM   31  C   UNL     1     -10.194   7.103  71.088  1.00  0.00    -0.200 A  
HETATM   32  C   UNL     1     -12.310   8.629  72.140  1.00  0.00    -0.452 A  
HETATM   33  C   UNL     1     -11.467   7.925  72.995  1.00  0.00    -0.230 A  
HETATM   34  C   UNL     1     -11.070   7.804  70.239  1.00  0.00    -0.242 A  
HETATM   35  C   UNL     1     -10.414   7.171  72.475  1.00  0.00    -0.254 A  
HETATM   36  C   UNL     1     -12.113   8.568  70.762  1.00  0.00    -0.075 A  
ENDBRANCH  24  31
ENDBRANCH  21  24
ENDBRANCH  17  18
ENDBRANCH  16  17
ENDBRANCH  15  16
ENDBRANCH  13  15
ENDBRANCH  11  13
BRANCH  12  37
HETATM   37  C   UNL     1      -9.375  11.925  67.352  1.00  0.00    -0.176 A  
HETATM   38  C   UNL     1      -9.918   9.594  66.923  1.00  0.00    -0.272 A  
HETATM   39  O   UNL     1      -9.627  12.584  63.262  1.00  0.00    -0.116 OA 
HETATM   40  C   UNL     1      -9.446  12.182  65.968  1.00  0.00    -0.215 A  
HETATM   41  O   UNL     1     -10.114  10.479  62.885  1.00  0.00    -0.204 OA 
HETATM   42  C   UNL     1      -9.754  11.145  65.079  1.00  0.00    -0.253 A  
HETATM   43  C   UNL     1     -10.001   9.852  65.553  1.00  0.00    -0.363 A  
HETATM   44  N   UNL     1      -9.839  11.424  63.638  1.00  0.00    -0.314 N  
HETATM   45  C   UNL     1      -9.596  10.619  67.814  1.00  0.00    -0.172 A  
ENDBRANCH  12  37
ENDBRANCH   3   5
ENDBRANCH   2   3
TORSDOF 11
ENDMDL
MODEL       67
REMARK 921   NORMALIZED FREE ENERGY PREDICTED BY IDOCK:   -5.20 KCAL/MOL
REMARK 922        TOTAL FREE ENERGY PREDICTED BY IDOCK:  -10.40 KCAL/MOL
REMARK 923 INTER-LIGAND FREE ENERGY PREDICTED BY IDOCK:   -9.26 KCAL/MOL
REMARK 924 INTRA-LIGAND FREE ENERGY PREDICTED BY IDOCK:   -1.14 KCAL/MOL
REMARK 927      BINDING AFFINITY PREDICTED BY RF-SCORE:    0.00 PKD
ROOT
HETATM    1  C   UNL     1     -12.837   9.979  71.038  1.00  0.00    -0.365 C  
HETATM    2  O   UNL     1     -12.159  11.235  70.943  1.00  0.00    -0.348 OA 
ENDROOT
BRANCH   2   3
HETATM    3  C   UNL     1     -12.126  11.735  69.682  1.00  0.00    -0.258 C  
HETATM    4  O   UNL     1     -12.657  11.214  68.711  1.00  0.00    -0.345 OA 
BRANCH   3   5
HETATM    5  C   UNL     1     -11.320  12.984  69.634  1.00  0.00    -0.176 C  
HETATM    6  C   UNL     1     -11.674  14.081  70.354  1.00  0.00    -0.222 C  
HETATM    7  N   UNL     1     -10.923  15.242  70.247  1.00  0.00    -0.284 NA 
HETATM    8  C   UNL     1     -12.847  14.212  71.292  1.00  0.00    -0.429 C  
HETATM    9  C   UNL     1      -9.939  15.455  69.305  1.00  0.00    -0.256 C  
HETATM   10  C   UNL     1      -9.437  16.875  69.178  1.00  0.00    -0.135 C  
HETATM   11  C   UNL     1      -9.507  14.421  68.549  1.00  0.00    -0.212 C  
HETATM   12  C   UNL     1     -10.091  13.013  68.713  1.00  0.00    -0.066 C  
BRANCH  11  13
HETATM   13  C   UNL     1      -8.567  14.682  67.439  1.00  0.00    -0.199 C  
HETATM   14  O   UNL     1      -8.919  15.038  66.324  1.00  0.00    -0.275 OA 
BRANCH  13  15
HETATM   15  O   UNL     1      -7.283  14.447  67.818  1.00  0.00    -0.140 OA 
BRANCH  15  16
HETATM   16  C   UNL     1      -6.829  13.120  67.481  1.00  0.00    -0.149 C  
BRANCH  16  17
HETATM   17  C   UNL     1      -6.119  12.501  68.697  1.00  0.00    -0.066 C  
BRANCH  17  18
HETATM   18  N   UNL     1      -5.836  11.058  68.625  1.00  0.00    -0.043 NA 
HETATM   19  C   UNL     1      -6.133  10.453  71.091  1.00  0.00     0.134 C  
HETATM   20  C   UNL     1      -5.199  10.536  69.855  1.00  0.00    -0.039 C  
HETATM   21  N   UNL     1      -7.363   9.652  70.867  1.00  0.00    -0.322 NA 
HETATM   22  C   UNL     1      -7.108  10.324  68.403  1.00  0.00    -0.078 C  
HETATM   23  C   UNL     1      -8.020  10.208  69.655  1.00  0.00    -0.173 C  
BRANCH  21  24
HETATM   24  C   UNL     1      -7.063   8.193  70.733  1.00  0.00    -0.049 C  
BRANCH  24  25
HETATM   25  C   UNL     1      -6.655   7.531  72.061  1.00  0.00    -0.050 A  
HETATM   26  C   UNL     1      -5.687   6.508  72.061  1.00  0.00    -0.037 A  
HETATM   27  C   UNL     1      -7.178   7.939  73.299  1.00  0.00    -0.130 A  
HETATM   28  C   UNL     1      -5.266   5.912  73.253  1.00  0.00    -0.023 A  
HETATM   29  C   UNL     1      -5.815   6.315  74.467  1.00  0.00    -0.063 A  
HETATM   30  C   UNL     1      -6.772   7.326  74.489  1.00  0.00    -0.096 A  
ENDBRANCH  24  25
BRANCH  24  31
HETATM   31  C   UNL     1      -8.186   7.431  70.014  1.00  0.00    -0.131 A  
HETATM   32  C   UNL     1     -10.195   5.818  68.883  1.00  0.00    -0.267 A  
HETATM   33  C   UNL     1      -8.971   5.964  68.236  1.00  0.00    -0.112 A  
HETATM   34  C   UNL     1      -9.437   7.289  70.643  1.00  0.00    -0.164 A  
HETATM   35  C   UNL     1      -7.972   6.760  68.798  1.00  0.00    -0.119 A  
HETATM   36  C   UNL     1     -10.429   6.482  70.085  1.00  0.00    -0.259 A  
ENDBRANCH  24  31
ENDBRANCH  21  24
ENDBRANCH  17  18
ENDBRANCH  16  17
ENDBRANCH  15  16
ENDBRANCH  13  15
ENDBRANCH  11  13
BRANCH  12  37
HETATM   37  C   UNL     1     -10.359  12.374  67.341  1.00  0.00    -0.217 A  
HETATM   38  C   UNL     1     -10.141  10.513  65.792  1.00  0.00    -0.329 A  
HETATM   39  O   UNL     1     -12.987  14.120  64.644  1.00  0.00    -0.629 OA 
HETATM   40  C   UNL     1     -11.250  12.998  66.445  1.00  0.00    -0.332 A  
HETATM   41  O   UNL     1     -12.782  12.438  63.252  1.00  0.00    -0.688 OA 
HETATM   42  C   UNL     1     -11.578  12.372  65.235  1.00  0.00    -0.373 A  
HETATM   43  C   UNL     1     -11.034  11.125  64.910  1.00  0.00    -0.191 A  
HETATM   44  N   UNL     1     -12.518  13.024  64.312  1.00  0.00    -0.342 N  
HETATM   45  C   UNL     1      -9.797  11.137  66.993  1.00  0.00    -0.212 A  
ENDBRANCH  12  37
ENDBRANCH   3   5
ENDBRANCH   2   3
TORSDOF 11
ENDMDL
MODEL       68
REMARK 921   NORMALIZED FREE ENERGY PREDICTED BY IDOCK:   -5.18 KCAL/MOL
REMARK 922        TOTAL FREE ENERGY PREDICTED BY IDOCK:  -10.38 KCAL/MOL
REMARK 923 INTER-LIGAND FREE ENERGY PREDICTED BY IDOCK:   -8.21 KCAL/MOL
REMARK 924 INTRA-LIGAND FREE ENERGY PREDICTED BY IDOCK:   -2.17 KCAL/MOL
REMARK 927      BINDING AFFINITY PREDICTED BY RF-SCORE:    0.00 PKD
ROOT
HETATM    1  C   UNL     1     -12.465  13.598  70.668  1.00  0.00    -0.347 C  
HETATM    2  O   UNL     1     -11.889  12.829  69.609  1.00  0.00    -0.311 OA 
ENDROOT
BRANCH   2   3
HETATM    3  C   UNL     1     -11.592  13.565  68.509  1.00  0.00    -0.333 C  
HETATM    4  O   UNL     1     -12.354  13.756  67.570  1.00  0.00    -0.287 OA 
BRANCH   3   5
HETATM    5  C   UNL     1     -10.196  14.073  68.579  1.00  0.00    -0.237 C  
HETATM    6  C   UNL     1      -9.931  15.406  68.615  1.00  0.00    -0.210 C  
HETATM    7  N   UNL     1      -8.614  15.842  68.634  1.00  0.00    -0.182 NA 
HETATM    8  C   UNL     1     -10.934  16.531  68.623  1.00  0.00    -0.344 C  
HETATM    9  C   UNL     1      -7.518  15.035  68.416  1.00  0.00    -0.113 C  
HETATM   10  C   UNL     1      -6.202  15.745  68.202  1.00  0.00    -0.132 C  
HETATM   11  C   UNL     1      -7.677  13.693  68.379  1.00  0.00    -0.138 C  
HETATM   12  C   UNL     1      -9.054  13.046  68.571  1.00  0.00    -0.053 C  
BRANCH  11  13
HETATM   13  C   UNL     1      -6.533  12.841  67.994  1.00  0.00    -0.099 C  
HETATM   14  O   UNL     1      -6.207  12.629  66.834  1.00  0.00    -0.203 OA 
BRANCH  13  15
HETATM   15  O   UNL     1      -5.923  12.314  69.088  1.00  0.00    -0.069 OA 
BRANCH  15  16
HETATM   16  C   UNL     1      -5.900  10.872  69.082  1.00  0.00    -0.041 C  
BRANCH  16  17
HETATM   17  C   UNL     1      -6.627  10.346  70.331  1.00  0.00    -0.119 C  
BRANCH  17  18
HETATM   18  N   UNL     1      -6.273   8.985  70.770  1.00  0.00    -0.042 NA 
HETATM   19  C   UNL     1      -8.573   8.194  71.559  1.00  0.00    -0.139 C  
HETATM   20  C   UNL     1      -7.097   8.518  71.908  1.00  0.00    -0.089 C  
HETATM   21  N   UNL     1      -8.733   7.196  70.471  1.00  0.00    -0.148 NA 
HETATM   22  C   UNL     1      -6.459   8.045  69.635  1.00  0.00    -0.037 C  
HETATM   23  C   UNL     1      -7.938   7.692  69.317  1.00  0.00    -0.126 C  
BRANCH  21  24
HETATM   24  C   UNL     1      -8.314   5.827  70.904  1.00  0.00    -0.125 C  
BRANCH  24  25
HETATM   25  C   UNL     1      -9.074   5.322  72.142  1.00  0.00    -0.148 A  
HETATM   26  C   UNL     1     -10.481   5.244  72.113  1.00  0.00    -0.278 A  
HETATM   27  C   UNL     1      -8.418   4.882  73.303  1.00  0.00    -0.103 A  
HETATM   28  C   UNL     1     -11.200   4.754  73.206  1.00  0.00    -0.421 A  
HETATM   29  C   UNL     1     -10.530   4.347  74.356  1.00  0.00    -0.309 A  
HETATM   30  C   UNL     1      -9.140   4.413  74.405  1.00  0.00    -0.109 A  
ENDBRANCH  24  25
BRANCH  24  31
HETATM   31  C   UNL     1      -8.337   4.818  69.745  1.00  0.00    -0.078 A  
HETATM   32  C   UNL     1      -8.508   2.787  67.807  1.00  0.00    -0.103 A  
HETATM   33  C   UNL     1      -7.293   3.053  68.431  1.00  0.00    -0.049 A  
HETATM   34  C   UNL     1      -9.551   4.549  69.087  1.00  0.00    -0.251 A  
HETATM   35  C   UNL     1      -7.208   4.058  69.397  1.00  0.00    -0.050 A  
HETATM   36  C   UNL     1      -9.637   3.535  68.133  1.00  0.00    -0.164 A  
ENDBRANCH  24  31
ENDBRANCH  21  24
ENDBRANCH  17  18
ENDBRANCH  16  17
ENDBRANCH  15  16
ENDBRANCH  13  15
ENDBRANCH  11  13
BRANCH  12  37
HETATM   37  C   UNL     1      -9.272  11.921  67.546  1.00  0.00    -0.177 A  
HETATM   38  C   UNL     1      -9.621   9.573  67.020  1.00  0.00    -0.214 A  
HETATM   39  O   UNL     1     -10.046  12.778  63.559  1.00  0.00    -0.350 OA 
HETATM   40  C   UNL     1      -9.523  12.246  66.198  1.00  0.00    -0.221 A  
HETATM   41  O   UNL     1     -10.357  10.657  63.095  1.00  0.00    -0.185 OA 
HETATM   42  C   UNL     1      -9.823  11.233  65.278  1.00  0.00    -0.246 A  
HETATM   43  C   UNL     1      -9.883   9.897  65.688  1.00  0.00    -0.368 A  
HETATM   44  N   UNL     1     -10.096  11.582  63.877  1.00  0.00    -0.311 N  
HETATM   45  C   UNL     1      -9.307  10.575  67.940  1.00  0.00    -0.150 A  
ENDBRANCH  12  37
ENDBRANCH   3   5
ENDBRANCH   2   3
TORSDOF 11
ENDMDL
MODEL       69
REMARK 921   NORMALIZED FREE ENERGY PREDICTED BY IDOCK:   -5.17 KCAL/MOL
REMARK 922        TOTAL FREE ENERGY PREDICTED BY IDOCK:  -10.36 KCAL/MOL
REMARK 923 INTER-LIGAND FREE ENERGY PREDICTED BY IDOCK:   -9.05 KCAL/MOL
REMARK 924 INTRA-LIGAND FREE ENERGY PREDICTED BY IDOCK:   -1.31 KCAL/MOL
REMARK 927      BINDING AFFINITY PREDICTED BY RF-SCORE:    0.00 PKD
ROOT
HETATM    1  C   UNL     1      -7.131  16.131  66.625  1.00  0.00     0.000 C  
HETATM    2  O   UNL     1      -8.347  16.336  67.351  1.00  0.00    -0.160 OA 
ENDROOT
BRANCH   2   3
HETATM    3  C   UNL     1      -9.444  15.860  66.709  1.00  0.00    -0.235 C  
HETATM    4  O   UNL     1      -9.597  15.862  65.494  1.00  0.00    -0.380 OA 
BRANCH   3   5
HETATM    5  C   UNL     1     -10.454  15.375  67.686  1.00  0.00    -0.272 C  
HETATM    6  C   UNL     1     -10.950  16.190  68.653  1.00  0.00    -0.336 C  
HETATM    7  N   UNL     1     -11.856  15.687  69.574  1.00  0.00    -0.367 NA 
HETATM    8  C   UNL     1     -10.616  17.644  68.874  1.00  0.00    -0.139 C  
HETATM    9  C   UNL     1     -12.160  14.351  69.726  1.00  0.00    -0.334 C  
HETATM   10  C   UNL     1     -12.952  13.986  70.960  1.00  0.00    -0.378 C  
HETATM   11  C   UNL     1     -11.725  13.462  68.806  1.00  0.00    -0.377 C  
HETATM   12  C   UNL     1     -10.895  13.906  67.596  1.00  0.00    -0.264 C  
BRANCH  11  13
HETATM   13  C   UNL     1     -11.919  12.017  69.050  1.00  0.00    -0.264 C  
HETATM   14  O   UNL     1     -12.375  11.246  68.218  1.00  0.00    -0.542 OA 
BRANCH  13  15
HETATM   15  O   UNL     1     -11.552  11.679  70.314  1.00  0.00    -0.280 OA 
BRANCH  15  16
HETATM   16  C   UNL     1     -12.421  10.693  70.910  1.00  0.00    -0.397 C  
BRANCH  16  17
HETATM   17  C   UNL     1     -11.571   9.561  71.508  1.00  0.00    -0.395 C  
BRANCH  17  18
HETATM   18  N   UNL     1     -11.725   8.231  70.893  1.00  0.00    -0.269 NA 
HETATM   19  C   UNL     1      -9.302   7.811  70.197  1.00  0.00    -0.153 C  
HETATM   20  C   UNL     1     -10.782   8.002  69.776  1.00  0.00    -0.231 C  
HETATM   21  N   UNL     1      -9.087   6.715  71.176  1.00  0.00    -0.152 NA 
HETATM   22  C   UNL     1     -11.495   7.189  71.927  1.00  0.00    -0.270 C  
HETATM   23  C   UNL     1     -10.007   6.973  72.315  1.00  0.00    -0.171 C  
BRANCH  21  24
HETATM   24  C   UNL     1      -9.305   5.369  70.562  1.00  0.00    -0.157 C  
BRANCH  24  25
HETATM   25  C   UNL     1      -8.626   5.208  69.191  1.00  0.00    -0.096 A  
HETATM   26  C   UNL     1      -9.370   4.721  68.098  1.00  0.00    -0.172 A  
HETATM   27  C   UNL     1      -7.290   5.575  68.962  1.00  0.00    -0.077 A  
HETATM   28  C   UNL     1      -8.795   4.599  66.830  1.00  0.00    -0.111 A  
HETATM   29  C   UNL     1      -7.462   4.945  66.632  1.00  0.00    -0.087 A  
HETATM   30  C   UNL     1      -6.709   5.431  67.698  1.00  0.00    -0.055 A  
ENDBRANCH  24  25
BRANCH  24  31
HETATM   31  C   UNL     1      -8.961   4.225  71.529  1.00  0.00    -0.161 A  
HETATM   32  C   UNL     1      -8.153   2.032  73.093  1.00  0.00    -0.046 A  
HETATM   33  C   UNL     1      -9.397   2.021  72.468  1.00  0.00    -0.129 A  
HETATM   34  C   UNL     1      -7.717   4.228  72.186  1.00  0.00    -0.081 A  
HETATM   35  C   UNL     1      -9.797   3.107  71.687  1.00  0.00    -0.216 A  
HETATM   36  C   UNL     1      -7.314   3.135  72.955  1.00  0.00    -0.046 A  
ENDBRANCH  24  31
ENDBRANCH  21  24
ENDBRANCH  17  18
ENDBRANCH  16  17
ENDBRANCH  15  16
ENDBRANCH  13  15
ENDBRANCH  11  13
BRANCH  12  37
HETATM   37  C   UNL     1      -9.719  12.944  67.363  1.00  0.00    -0.201 A  
HETATM   38  C   UNL     1      -8.573  11.290  65.998  1.00  0.00    -0.130 A  
HETATM   39  O   UNL     1      -6.372  13.022  69.817  1.00  0.00    -0.119 OA 
HETATM   40  C   UNL     1      -8.601  12.990  68.221  1.00  0.00    -0.167 A  
HETATM   41  O   UNL     1      -5.348  11.527  68.581  1.00  0.00    -0.043 OA 
HETATM   42  C   UNL     1      -7.483  12.189  67.957  1.00  0.00    -0.116 A  
HETATM   43  C   UNL     1      -7.461  11.345  66.841  1.00  0.00    -0.147 A  
HETATM   44  N   UNL     1      -6.317  12.252  68.849  1.00  0.00    -0.077 N  
HETATM   45  C   UNL     1      -9.697  12.074  66.263  1.00  0.00    -0.251 A  
ENDBRANCH  12  37
ENDBRANCH   3   5
ENDBRANCH   2   3
TORSDOF 11
ENDMDL
MODEL       70
REMARK 921   NORMALIZED FREE ENERGY PREDICTED BY IDOCK:   -5.15 KCAL/MOL
REMARK 922        TOTAL FREE ENERGY PREDICTED BY IDOCK:  -10.33 KCAL/MOL
REMARK 923 INTER-LIGAND FREE ENERGY PREDICTED BY IDOCK:   -8.26 KCAL/MOL
REMARK 924 INTRA-LIGAND FREE ENERGY PREDICTED BY IDOCK:   -2.07 KCAL/MOL
REMARK 927      BINDING AFFINITY PREDICTED BY RF-SCORE:    0.00 PKD
ROOT
HETATM    1  C   UNL     1     -12.443  11.639  70.735  1.00  0.00    -0.330 C  
HETATM    2  O   UNL     1     -11.354  11.960  69.865  1.00  0.00    -0.215 OA 
ENDROOT
BRANCH   2   3
HETATM    3  C   UNL     1     -11.168  11.048  68.877  1.00  0.00    -0.265 C  
HETATM    4  O   UNL     1     -12.059  10.595  68.169  1.00  0.00    -0.403 OA 
BRANCH   3   5
HETATM    5  C   UNL     1      -9.740  10.644  68.798  1.00  0.00    -0.193 C  
HETATM    6  C   UNL     1      -9.150   9.939  69.799  1.00  0.00    -0.225 C  
HETATM    7  N   UNL     1      -7.803   9.620  69.710  1.00  0.00    -0.124 NA 
HETATM    8  C   UNL     1      -9.799   9.445  71.067  1.00  0.00    -0.317 C  
HETATM    9  C   UNL     1      -6.936  10.133  68.768  1.00  0.00    -0.066 C  
HETATM   10  C   UNL     1      -5.466   9.881  69.011  1.00  0.00    -0.035 C  
HETATM   11  C   UNL     1      -7.429  10.836  67.724  1.00  0.00    -0.094 C  
HETATM   12  C   UNL     1      -8.934  11.080  67.565  1.00  0.00    -0.137 C  
BRANCH  11  13
HETATM   13  C   UNL     1      -6.492  11.514  66.804  1.00  0.00    -0.128 C  
HETATM   14  O   UNL     1      -6.178  12.691  66.904  1.00  0.00    -0.203 OA 
BRANCH  13  15
HETATM   15  O   UNL     1      -6.060  10.667  65.833  1.00  0.00    -0.115 OA 
BRANCH  15  16
HETATM   16  C   UNL     1      -6.915  10.657  64.671  1.00  0.00     0.183 C  
BRANCH  16  17
HETATM   17  C   UNL     1      -6.941   9.242  64.070  1.00  0.00    -0.091 C  
BRANCH  17  18
HETATM   18  N   UNL     1      -8.232   8.535  64.114  1.00  0.00    -0.159 NA 
HETATM   19  C   UNL     1      -7.392   6.163  64.566  1.00  0.00    -0.069 C  
HETATM   20  C   UNL     1      -8.141   7.141  63.624  1.00  0.00     0.002 C  
HETATM   21  N   UNL     1      -7.948   6.102  65.942  1.00  0.00    -0.107 NA 
HETATM   22  C   UNL     1      -8.725   8.511  65.515  1.00  0.00    -0.174 C  
HETATM   23  C   UNL     1      -7.999   7.500  66.445  1.00  0.00    -0.107 C  
BRANCH  21  24
HETATM   24  C   UNL     1      -9.288   5.438  65.972  1.00  0.00    -0.156 C  
BRANCH  24  25
HETATM   25  C   UNL     1      -9.294   4.049  65.309  1.00  0.00    -0.163 A  
HETATM   26  C   UNL     1     -10.129   3.811  64.200  1.00  0.00    -0.215 A  
HETATM   27  C   UNL     1      -8.457   3.005  65.736  1.00  0.00    -0.110 A  
HETATM   28  C   UNL     1     -10.131   2.573  63.551  1.00  0.00    -0.149 A  
HETATM   29  C   UNL     1      -9.311   1.545  64.006  1.00  0.00    -0.122 A  
HETATM   30  C   UNL     1      -8.477   1.760  65.099  1.00  0.00    -0.093 A  
ENDBRANCH  24  25
BRANCH  24  31
HETATM   31  C   UNL     1      -9.898   5.421  67.382  1.00  0.00    -0.175 A  
HETATM   32  C   UNL     1     -10.866   5.633  70.015  1.00  0.00    -0.366 A  
HETATM   33  C   UNL     1      -9.873   4.706  69.710  1.00  0.00    -0.296 A  
HETATM   34  C   UNL     1     -10.917   6.337  67.705  1.00  0.00    -0.438 A  
HETATM   35  C   UNL     1      -9.388   4.604  68.405  1.00  0.00    -0.186 A  
HETATM   36  C   UNL     1     -11.389   6.447  69.013  1.00  0.00    -0.332 A  
ENDBRANCH  24  31
ENDBRANCH  21  24
ENDBRANCH  17  18
ENDBRANCH  16  17
ENDBRANCH  15  16
ENDBRANCH  13  15
ENDBRANCH  11  13
BRANCH  12  37
HETATM   37  C   UNL     1      -9.207  12.537  67.160  1.00  0.00    -0.205 A  
HETATM   38  C   UNL     1     -10.158  14.168  65.627  1.00  0.00    -0.350 A  
HETATM   39  O   UNL     1      -8.435  15.666  69.776  1.00  0.00    -0.170 OA 
HETATM   40  C   UNL     1      -8.924  13.577  68.069  1.00  0.00    -0.189 A  
HETATM   41  O   UNL     1      -9.292  17.129  68.385  1.00  0.00    -0.255 OA 
HETATM   42  C   UNL     1      -9.264  14.898  67.748  1.00  0.00    -0.186 A  
HETATM   43  C   UNL     1      -9.890  15.196  66.533  1.00  0.00    -0.278 A  
HETATM   44  N   UNL     1      -8.977  15.975  68.707  1.00  0.00    -0.213 N  
HETATM   45  C   UNL     1      -9.809  12.851  65.933  1.00  0.00    -0.239 A  
ENDBRANCH  12  37
ENDBRANCH   3   5
ENDBRANCH   2   3
TORSDOF 11
ENDMDL
MODEL       71
REMARK 921   NORMALIZED FREE ENERGY PREDICTED BY IDOCK:   -5.14 KCAL/MOL
REMARK 922        TOTAL FREE ENERGY PREDICTED BY IDOCK:  -10.31 KCAL/MOL
REMARK 923 INTER-LIGAND FREE ENERGY PREDICTED BY IDOCK:   -8.91 KCAL/MOL
REMARK 924 INTRA-LIGAND FREE ENERGY PREDICTED BY IDOCK:   -1.40 KCAL/MOL
REMARK 927      BINDING AFFINITY PREDICTED BY RF-SCORE:    0.00 PKD
ROOT
HETATM    1  C   UNL     1     -12.165  16.276  72.943  1.00  0.00    -0.514 C  
HETATM    2  O   UNL     1     -11.761  15.594  71.753  1.00  0.00    -0.369 OA 
ENDROOT
BRANCH   2   3
HETATM    3  C   UNL     1     -12.803  15.219  70.967  1.00  0.00    -0.440 C  
HETATM    4  O   UNL     1     -13.851  15.840  70.856  1.00  0.00    -0.446 OA 
BRANCH   3   5
HETATM    5  C   UNL     1     -12.511  13.928  70.290  1.00  0.00    -0.380 C  
HETATM    6  C   UNL     1     -12.691  12.741  70.927  1.00  0.00    -0.192 C  
HETATM    7  N   UNL     1     -12.365  11.559  70.277  1.00  0.00    -0.294 NA 
HETATM    8  C   UNL     1     -13.215  12.531  72.324  1.00  0.00    -0.425 C  
HETATM    9  C   UNL     1     -11.672  11.484  69.088  1.00  0.00    -0.329 C  
HETATM   10  C   UNL     1     -11.176  10.112  68.694  1.00  0.00    -0.223 C  
HETATM   11  C   UNL     1     -11.455  12.610  68.372  1.00  0.00    -0.350 C  
HETATM   12  C   UNL     1     -11.961  13.974  68.857  1.00  0.00    -0.387 C  
BRANCH  11  13
HETATM   13  C   UNL     1     -10.583  12.551  67.181  1.00  0.00    -0.228 C  
HETATM   14  O   UNL     1     -10.945  12.881  66.061  1.00  0.00    -0.272 OA 
BRANCH  13  15
HETATM   15  O   UNL     1      -9.354  12.062  67.495  1.00  0.00    -0.172 OA 
BRANCH  15  16
HETATM   16  C   UNL     1      -8.579  11.697  66.335  1.00  0.00    -0.143 C  
BRANCH  16  17
HETATM   17  C   UNL     1      -8.759  10.196  66.055  1.00  0.00    -0.140 C  
BRANCH  17  18
HETATM   18  N   UNL     1      -7.678   9.309  66.517  1.00  0.00    -0.093 NA 
HETATM   19  C   UNL     1      -9.085   7.444  67.555  1.00  0.00    -0.125 C  
HETATM   20  C   UNL     1      -8.031   8.566  67.747  1.00  0.00    -0.107 C  
HETATM   21  N   UNL     1      -8.716   6.434  66.531  1.00  0.00    -0.128 NA 
HETATM   22  C   UNL     1      -7.364   8.328  65.446  1.00  0.00    -0.083 C  
HETATM   23  C   UNL     1      -8.403   7.184  65.286  1.00  0.00    -0.096 C  
BRANCH  21  24
HETATM   24  C   UNL     1      -7.576   5.576  66.980  1.00  0.00    -0.092 C  
BRANCH  24  25
HETATM   25  C   UNL     1      -7.829   4.889  68.334  1.00  0.00    -0.082 A  
HETATM   26  C   UNL     1      -6.803   4.856  69.300  1.00  0.00    -0.050 A  
HETATM   27  C   UNL     1      -9.069   4.325  68.675  1.00  0.00    -0.178 A  
HETATM   28  C   UNL     1      -7.011   4.274  70.553  1.00  0.00    -0.034 A  
HETATM   29  C   UNL     1      -8.241   3.700  70.861  1.00  0.00    -0.079 A  
HETATM   30  C   UNL     1      -9.268   3.724  69.921  1.00  0.00    -0.219 A  
ENDBRANCH  24  25
BRANCH  24  31
HETATM   31  C   UNL     1      -7.127   4.589  65.892  1.00  0.00    -0.071 A  
HETATM   32  C   UNL     1      -6.346   2.571  64.094  1.00  0.00    -0.019 A  
HETATM   33  C   UNL     1      -5.384   3.374  64.701  1.00  0.00    -0.009 A  
HETATM   34  C   UNL     1      -8.086   3.782  65.253  1.00  0.00    -0.097 A  
HETATM   35  C   UNL     1      -5.770   4.372  65.597  1.00  0.00    -0.022 A  
HETATM   36  C   UNL     1      -7.696   2.775  64.368  1.00  0.00    -0.077 A  
ENDBRANCH  24  31
ENDBRANCH  21  24
ENDBRANCH  17  18
ENDBRANCH  16  17
ENDBRANCH  15  16
ENDBRANCH  13  15
ENDBRANCH  11  13
BRANCH  12  37
HETATM   37  C   UNL     1     -10.880  15.051  68.668  1.00  0.00    -0.249 A  
HETATM   38  C   UNL     1     -10.219  17.296  68.008  1.00  0.00    -0.332 A  
HETATM   39  O   UNL     1      -7.042  14.516  70.156  1.00  0.00    -0.061 OA 
HETATM   40  C   UNL     1      -9.584  14.833  69.177  1.00  0.00    -0.133 A  
HETATM   41  O   UNL     1      -6.455  16.542  69.555  1.00  0.00    -0.210 OA 
HETATM   42  C   UNL     1      -8.623  15.849  69.099  1.00  0.00    -0.252 A  
HETATM   43  C   UNL     1      -8.939  17.085  68.525  1.00  0.00    -0.263 A  
HETATM   44  N   UNL     1      -7.277  15.619  69.644  1.00  0.00    -0.186 N  
HETATM   45  C   UNL     1     -11.179  16.283  68.069  1.00  0.00    -0.260 A  
ENDBRANCH  12  37
ENDBRANCH   3   5
ENDBRANCH   2   3
TORSDOF 11
ENDMDL
MODEL       72
REMARK 921   NORMALIZED FREE ENERGY PREDICTED BY IDOCK:   -5.14 KCAL/MOL
REMARK 922        TOTAL FREE ENERGY PREDICTED BY IDOCK:  -10.30 KCAL/MOL
REMARK 923 INTER-LIGAND FREE ENERGY PREDICTED BY IDOCK:   -8.73 KCAL/MOL
REMARK 924 INTRA-LIGAND FREE ENERGY PREDICTED BY IDOCK:   -1.57 KCAL/MOL
REMARK 927      BINDING AFFINITY PREDICTED BY RF-SCORE:    0.00 PKD
ROOT
HETATM    1  C   UNL     1      -5.552   6.370  68.558  1.00  0.00    -0.012 C  
HETATM    2  O   UNL     1      -5.126   7.250  69.602  1.00  0.00    -0.015 OA 
ENDROOT
BRANCH   2   3
HETATM    3  C   UNL     1      -5.740   8.459  69.571  1.00  0.00    -0.030 C  
HETATM    4  O   UNL     1      -5.368   9.414  68.902  1.00  0.00    -0.037 OA 
BRANCH   3   5
HETATM    5  C   UNL     1      -6.905   8.479  70.495  1.00  0.00    -0.039 C  
HETATM    6  C   UNL     1      -6.808   8.002  71.764  1.00  0.00    -0.067 C  
HETATM    7  N   UNL     1      -7.929   7.996  72.580  1.00  0.00    -0.123 NA 
HETATM    8  C   UNL     1      -5.579   7.436  72.430  1.00  0.00    -0.037 C  
HETATM    9  C   UNL     1      -9.213   8.253  72.151  1.00  0.00    -0.222 C  
HETATM   10  C   UNL     1     -10.319   7.924  73.127  1.00  0.00    -0.357 C  
HETATM   11  C   UNL     1      -9.413   8.746  70.908  1.00  0.00    -0.269 C  
HETATM   12  C   UNL     1      -8.239   9.022  69.961  1.00  0.00    -0.128 C  
BRANCH  11  13
HETATM   13  C   UNL     1     -10.793   8.875  70.396  1.00  0.00    -0.236 C  
HETATM   14  O   UNL     1     -11.569   7.936  70.298  1.00  0.00    -0.166 OA 
BRANCH  13  15
HETATM   15  O   UNL     1     -11.062  10.156  70.029  1.00  0.00    -0.264 OA 
BRANCH  15  16
HETATM   16  C   UNL     1     -11.861  10.244  68.831  1.00  0.00     0.127 C  
BRANCH  16  17
HETATM   17  C   UNL     1     -11.566  11.575  68.120  1.00  0.00    -0.308 C  
BRANCH  17  18
HETATM   18  N   UNL     1     -10.975  12.642  68.945  1.00  0.00    -0.243 NA 
HETATM   19  C   UNL     1      -9.416  13.691  67.212  1.00  0.00    -0.230 C  
HETATM   20  C   UNL     1      -9.578  12.953  68.566  1.00  0.00    -0.111 C  
HETATM   21  N   UNL     1     -10.182  14.960  67.118  1.00  0.00    -0.244 NA 
HETATM   22  C   UNL     1     -11.790  13.876  68.800  1.00  0.00    -0.361 C  
HETATM   23  C   UNL     1     -11.592  14.633  67.459  1.00  0.00    -0.375 C  
BRANCH  21  24
HETATM   24  C   UNL     1      -9.614  16.022  68.005  1.00  0.00    -0.215 C  
BRANCH  24  25
HETATM   25  C   UNL     1      -8.088  15.917  68.178  1.00  0.00    -0.145 A  
HETATM   26  C   UNL     1      -7.553  15.542  69.427  1.00  0.00    -0.225 A  
HETATM   27  C   UNL     1      -7.191  16.136  67.120  1.00  0.00    -0.255 A  
HETATM   28  C   UNL     1      -6.175  15.401  69.608  1.00  0.00    -0.153 A  
HETATM   29  C   UNL     1      -5.303  15.646  68.552  1.00  0.00    -0.101 A  
HETATM   30  C   UNL     1      -5.811  16.016  67.309  1.00  0.00    -0.081 A  
ENDBRANCH  24  25
BRANCH  24  31
HETATM   31  C   UNL     1     -10.065  17.430  67.590  1.00  0.00    -0.327 A  
HETATM   32  C   UNL     1     -10.628  20.046  66.721  1.00  0.00    -0.454 A  
HETATM   33  C   UNL     1     -10.383  19.797  68.069  1.00  0.00    -0.567 A  
HETATM   34  C   UNL     1     -10.337  17.698  66.236  1.00  0.00    -0.342 A  
HETATM   35  C   UNL     1     -10.099  18.500  68.501  1.00  0.00    -0.414 A  
HETATM   36  C   UNL     1     -10.606  18.997  65.805  1.00  0.00    -0.388 A  
ENDBRANCH  24  31
ENDBRANCH  21  24
ENDBRANCH  17  18
ENDBRANCH  16  17
ENDBRANCH  15  16
ENDBRANCH  13  15
ENDBRANCH  11  13
BRANCH  12  37
HETATM   37  C   UNL     1      -8.559   8.524  68.542  1.00  0.00    -0.138 A  
HETATM   38  C   UNL     1      -9.292   6.769  67.027  1.00  0.00    -0.165 A  
HETATM   39  O   UNL     1      -8.733  11.159  65.339  1.00  0.00    -0.158 OA 
HETATM   40  C   UNL     1      -8.601   9.444  67.475  1.00  0.00    -0.122 A  
HETATM   41  O   UNL     1      -9.392   9.568  63.980  1.00  0.00    -0.169 OA 
HETATM   42  C   UNL     1      -8.990   9.017  66.199  1.00  0.00    -0.177 A  
HETATM   43  C   UNL     1      -9.346   7.683  65.973  1.00  0.00    -0.076 A  
HETATM   44  N   UNL     1      -9.043   9.986  65.094  1.00  0.00    -0.186 N  
HETATM   45  C   UNL     1      -8.891   7.183  68.299  1.00  0.00    -0.127 A  
ENDBRANCH  12  37
ENDBRANCH   3   5
ENDBRANCH   2   3
TORSDOF 11
ENDMDL
MODEL       73
REMARK 921   NORMALIZED FREE ENERGY PREDICTED BY IDOCK:   -5.13 KCAL/MOL
REMARK 922        TOTAL FREE ENERGY PREDICTED BY IDOCK:  -10.29 KCAL/MOL
REMARK 923 INTER-LIGAND FREE ENERGY PREDICTED BY IDOCK:   -7.92 KCAL/MOL
REMARK 924 INTRA-LIGAND FREE ENERGY PREDICTED BY IDOCK:   -2.37 KCAL/MOL
REMARK 927      BINDING AFFINITY PREDICTED BY RF-SCORE:    0.00 PKD
ROOT
HETATM    1  C   UNL     1     -12.180  14.468  64.425  1.00  0.00    -0.458 C  
HETATM    2  O   UNL     1     -11.110  13.844  65.139  1.00  0.00    -0.310 OA 
ENDROOT
BRANCH   2   3
HETATM    3  C   UNL     1     -11.177  14.032  66.482  1.00  0.00    -0.322 C  
HETATM    4  O   UNL     1     -12.214  14.067  67.130  1.00  0.00    -0.419 OA 
BRANCH   3   5
HETATM    5  C   UNL     1      -9.818  14.231  67.052  1.00  0.00    -0.254 C  
HETATM    6  C   UNL     1      -9.108  15.363  66.804  1.00  0.00    -0.259 C  
HETATM    7  N   UNL     1      -7.825  15.493  67.316  1.00  0.00    -0.186 NA 
HETATM    8  C   UNL     1      -9.551  16.553  65.991  1.00  0.00    -0.323 C  
HETATM    9  C   UNL     1      -7.109  14.472  67.904  1.00  0.00    -0.157 C  
HETATM   10  C   UNL     1      -5.641  14.741  68.140  1.00  0.00    -0.125 C  
HETATM   11  C   UNL     1      -7.731  13.310  68.204  1.00  0.00    -0.143 C  
HETATM   12  C   UNL     1      -9.220  13.100  67.901  1.00  0.00    -0.207 C  
BRANCH  11  13
HETATM   13  C   UNL     1      -6.931  12.167  68.691  1.00  0.00    -0.097 C  
HETATM   14  O   UNL     1      -6.979  11.748  69.838  1.00  0.00     0.059 OA 
BRANCH  13  15
HETATM   15  O   UNL     1      -6.130  11.675  67.709  1.00  0.00    -0.045 OA 
BRANCH  15  16
HETATM   16  C   UNL     1      -5.233  10.647  68.175  1.00  0.00    -0.037 C  
BRANCH  16  17
HETATM   17  C   UNL     1      -5.604   9.309  67.514  1.00  0.00    -0.041 C  
BRANCH  17  18
HETATM   18  N   UNL     1      -5.674   8.136  68.402  1.00  0.00    -0.033 NA 
HETATM   19  C   UNL     1      -8.136   8.272  69.077  1.00  0.00    -0.117 C  
HETATM   20  C   UNL     1      -6.646   8.309  69.505  1.00  0.00    -0.038 C  
HETATM   21  N   UNL     1      -8.526   7.040  68.345  1.00  0.00    -0.123 NA 
HETATM   22  C   UNL     1      -6.069   6.947  67.605  1.00  0.00    -0.029 C  
HETATM   23  C   UNL     1      -7.572   6.895  67.214  1.00  0.00    -0.108 C  
BRANCH  21  24
HETATM   24  C   UNL     1      -8.535   5.840  69.239  1.00  0.00    -0.108 C  
BRANCH  24  25
HETATM   25  C   UNL     1      -9.659   5.873  70.289  1.00  0.00    -0.199 A  
HETATM   26  C   UNL     1      -9.422   5.356  71.579  1.00  0.00    -0.185 A  
HETATM   27  C   UNL     1     -10.915   6.446  70.033  1.00  0.00    -0.397 A  
HETATM   28  C   UNL     1     -10.408   5.404  72.568  1.00  0.00    -0.251 A  
HETATM   29  C   UNL     1     -11.654   5.955  72.285  1.00  0.00    -0.338 A  
HETATM   30  C   UNL     1     -11.908   6.473  71.017  1.00  0.00    -0.390 A  
ENDBRANCH  24  25
BRANCH  24  31
HETATM   31  C   UNL     1      -8.505   4.524  68.447  1.00  0.00    -0.100 A  
HETATM   32  C   UNL     1      -8.255   2.239  66.825  1.00  0.00    -0.086 A  
HETATM   33  C   UNL     1      -9.368   3.066  66.697  1.00  0.00    -0.105 A  
HETATM   34  C   UNL     1      -7.398   3.665  68.577  1.00  0.00    -0.054 A  
HETATM   35  C   UNL     1      -9.491   4.203  67.498  1.00  0.00    -0.225 A  
HETATM   36  C   UNL     1      -7.271   2.537  67.765  1.00  0.00    -0.049 A  
ENDBRANCH  24  31
ENDBRANCH  21  24
ENDBRANCH  17  18
ENDBRANCH  16  17
ENDBRANCH  15  16
ENDBRANCH  13  15
ENDBRANCH  11  13
BRANCH  12  37
HETATM   37  C   UNL     1      -9.458  11.709  67.293  1.00  0.00    -0.173 A  
HETATM   38  C   UNL     1     -10.722   9.635  67.178  1.00  0.00    -0.258 A  
HETATM   39  O   UNL     1      -7.413  10.479  63.897  1.00  0.00    -0.053 OA 
HETATM   40  C   UNL     1      -8.740  11.318  66.145  1.00  0.00    -0.179 A  
HETATM   41  O   UNL     1      -8.558   8.610  63.803  1.00  0.00    -0.123 OA 
HETATM   42  C   UNL     1      -9.023  10.095  65.525  1.00  0.00    -0.172 A  
HETATM   43  C   UNL     1     -10.020   9.255  66.033  1.00  0.00    -0.325 A  
HETATM   44  N   UNL     1      -8.278   9.701  64.320  1.00  0.00    -0.144 N  
HETATM   45  C   UNL     1     -10.436  10.847  67.810  1.00  0.00    -0.238 A  
ENDBRANCH  12  37
ENDBRANCH   3   5
ENDBRANCH   2   3
TORSDOF 11
ENDMDL
MODEL       74
REMARK 921   NORMALIZED FREE ENERGY PREDICTED BY IDOCK:   -5.07 KCAL/MOL
REMARK 922        TOTAL FREE ENERGY PREDICTED BY IDOCK:  -10.19 KCAL/MOL
REMARK 923 INTER-LIGAND FREE ENERGY PREDICTED BY IDOCK:   -8.12 KCAL/MOL
REMARK 924 INTRA-LIGAND FREE ENERGY PREDICTED BY IDOCK:   -2.07 KCAL/MOL
REMARK 927      BINDING AFFINITY PREDICTED BY RF-SCORE:    0.00 PKD
ROOT
HETATM    1  C   UNL     1     -12.720  13.895  65.476  1.00  0.00    -0.499 C  
HETATM    2  O   UNL     1     -11.766  13.115  66.202  1.00  0.00    -0.345 OA 
ENDROOT
BRANCH   2   3
HETATM    3  C   UNL     1     -11.450  13.642  67.413  1.00  0.00    -0.336 C  
HETATM    4  O   UNL     1     -12.265  14.047  68.232  1.00  0.00    -0.328 OA 
BRANCH   3   5
HETATM    5  C   UNL     1      -9.976  13.699  67.591  1.00  0.00    -0.239 C  
HETATM    6  C   UNL     1      -9.218  14.604  66.916  1.00  0.00    -0.249 C  
HETATM    7  N   UNL     1      -7.840  14.596  67.074  1.00  0.00    -0.115 NA 
HETATM    8  C   UNL     1      -9.704  15.662  65.959  1.00  0.00    -0.378 C  
HETATM    9  C   UNL     1      -7.130  13.604  67.716  1.00  0.00    -0.161 C  
HETATM   10  C   UNL     1      -5.630  13.638  67.538  1.00  0.00     0.079 C  
HETATM   11  C   UNL     1      -7.794  12.665  68.427  1.00  0.00    -0.136 C  
HETATM   12  C   UNL     1      -9.323  12.677  68.533  1.00  0.00    -0.082 C  
BRANCH  11  13
HETATM   13  C   UNL     1      -7.046  11.519  68.985  1.00  0.00    -0.115 C  
HETATM   14  O   UNL     1      -6.908  11.319  70.183  1.00  0.00    -0.136 OA 
BRANCH  13  15
HETATM   15  O   UNL     1      -6.520  10.749  67.997  1.00  0.00    -0.061 OA 
BRANCH  15  16
HETATM   16  C   UNL     1      -5.343  10.025  68.411  1.00  0.00    -0.035 C  
BRANCH  16  17
HETATM   17  C   UNL     1      -5.684   8.532  68.544  1.00  0.00    -0.038 C  
BRANCH  17  18
HETATM   18  N   UNL     1      -7.103   8.167  68.386  1.00  0.00    -0.076 NA 
HETATM   19  C   UNL     1      -6.823   5.806  67.448  1.00  0.00    -0.064 C  
HETATM   20  C   UNL     1      -7.337   7.255  67.245  1.00  0.00    -0.098 C  
HETATM   21  N   UNL     1      -7.365   5.135  68.657  1.00  0.00    -0.065 NA 
HETATM   22  C   UNL     1      -7.574   7.502  69.628  1.00  0.00    -0.094 C  
HETATM   23  C   UNL     1      -7.089   6.037  69.806  1.00  0.00    -0.072 C  
BRANCH  21  24
HETATM   24  C   UNL     1      -8.821   4.823  68.515  1.00  0.00    -0.100 C  
BRANCH  24  25
HETATM   25  C   UNL     1      -9.201   4.314  67.114  1.00  0.00    -0.166 A  
HETATM   26  C   UNL     1      -8.498   3.229  66.552  1.00  0.00    -0.107 A  
HETATM   27  C   UNL     1     -10.264   4.858  66.375  1.00  0.00    -0.313 A  
HETATM   28  C   UNL     1      -8.841   2.718  65.298  1.00  0.00    -0.129 A  
HETATM   29  C   UNL     1      -9.883   3.289  64.573  1.00  0.00    -0.145 A  
HETATM   30  C   UNL     1     -10.592   4.360  65.110  1.00  0.00    -0.166 A  
ENDBRANCH  24  25
BRANCH  24  31
HETATM   31  C   UNL     1      -9.331   3.902  69.635  1.00  0.00    -0.246 A  
HETATM   32  C   UNL     1     -10.031   2.297  71.836  1.00  0.00    -0.219 A  
HETATM   33  C   UNL     1      -9.486   1.715  70.695  1.00  0.00    -0.173 A  
HETATM   34  C   UNL     1      -9.902   4.469  70.789  1.00  0.00    -0.280 A  
HETATM   35  C   UNL     1      -9.134   2.511  69.603  1.00  0.00    -0.184 A  
HETATM   36  C   UNL     1     -10.240   3.673  71.884  1.00  0.00    -0.111 A  
ENDBRANCH  24  31
ENDBRANCH  21  24
ENDBRANCH  17  18
ENDBRANCH  16  17
ENDBRANCH  15  16
ENDBRANCH  13  15
ENDBRANCH  11  13
BRANCH  12  37
HETATM   37  C   UNL     1      -9.890  11.259  68.358  1.00  0.00    -0.200 A  
HETATM   38  C   UNL     1     -10.293   9.294  66.984  1.00  0.00    -0.325 A  
HETATM   39  O   UNL     1     -11.247   9.077  71.618  1.00  0.00    -0.312 OA 
HETATM   40  C   UNL     1     -10.351  10.549  69.485  1.00  0.00    -0.251 A  
HETATM   41  O   UNL     1     -11.609   7.311  70.370  1.00  0.00    -0.279 OA 
HETATM   42  C   UNL     1     -10.775   9.221  69.350  1.00  0.00    -0.208 A  
HETATM   43  C   UNL     1     -10.737   8.586  68.103  1.00  0.00    -0.101 A  
HETATM   44  N   UNL     1     -11.242   8.484  70.532  1.00  0.00    -0.257 N  
HETATM   45  C   UNL     1      -9.883  10.623  67.108  1.00  0.00    -0.208 A  
ENDBRANCH  12  37
ENDBRANCH   3   5
ENDBRANCH   2   3
TORSDOF 11
ENDMDL
MODEL       75
REMARK 921   NORMALIZED FREE ENERGY PREDICTED BY IDOCK:   -5.06 KCAL/MOL
REMARK 922        TOTAL FREE ENERGY PREDICTED BY IDOCK:  -10.17 KCAL/MOL
REMARK 923 INTER-LIGAND FREE ENERGY PREDICTED BY IDOCK:   -9.21 KCAL/MOL
REMARK 924 INTRA-LIGAND FREE ENERGY PREDICTED BY IDOCK:   -0.96 KCAL/MOL
REMARK 927      BINDING AFFINITY PREDICTED BY RF-SCORE:    0.00 PKD
ROOT
HETATM    1  C   UNL     1     -11.601  16.088  64.350  1.00  0.00    -0.212 C  
HETATM    2  O   UNL     1     -10.336  15.481  64.626  1.00  0.00    -0.318 OA 
ENDROOT
BRANCH   2   3
HETATM    3  C   UNL     1      -9.739  15.965  65.744  1.00  0.00    -0.325 C  
HETATM    4  O   UNL     1      -8.639  16.501  65.772  1.00  0.00    -0.442 OA 
BRANCH   3   5
HETATM    5  C   UNL     1     -10.586  15.717  66.940  1.00  0.00    -0.317 C  
HETATM    6  C   UNL     1     -11.013  16.740  67.727  1.00  0.00    -0.217 C  
HETATM    7  N   UNL     1     -11.764  16.464  68.861  1.00  0.00    -0.181 NA 
HETATM    8  C   UNL     1     -10.753  18.211  67.526  1.00  0.00    -0.365 C  
HETATM    9  C   UNL     1     -11.957  15.204  69.386  1.00  0.00    -0.307 C  
HETATM   10  C   UNL     1     -12.565  15.147  70.768  1.00  0.00    -0.452 C  
HETATM   11  C   UNL     1     -11.579  14.121  68.672  1.00  0.00    -0.352 C  
HETATM   12  C   UNL     1     -10.936  14.262  67.287  1.00  0.00    -0.302 C  
BRANCH  11  13
HETATM   13  C   UNL     1     -11.645  12.784  69.298  1.00  0.00    -0.314 C  
HETATM   14  O   UNL     1     -11.209  12.537  70.413  1.00  0.00     0.370 OA 
BRANCH  13  15
HETATM   15  O   UNL     1     -12.223  11.879  68.465  1.00  0.00    -0.391 OA 
BRANCH  15  16
HETATM   16  C   UNL     1     -12.158  10.528  68.966  1.00  0.00     0.086 C  
BRANCH  16  17
HETATM   17  C   UNL     1     -11.161   9.719  68.120  1.00  0.00    -0.110 C  
BRANCH  17  18
HETATM   18  N   UNL     1     -10.058   9.070  68.850  1.00  0.00    -0.190 NA 
HETATM   19  C   UNL     1     -11.408   7.410  70.250  1.00  0.00    -0.221 C  
HETATM   20  C   UNL     1     -10.450   8.629  70.208  1.00  0.00    -0.210 C  
HETATM   21  N   UNL     1     -10.896   6.212  69.538  1.00  0.00    -0.322 NA 
HETATM   22  C   UNL     1      -9.600   7.884  68.082  1.00  0.00    -0.152 C  
HETATM   23  C   UNL     1     -10.543   6.652  68.162  1.00  0.00    -0.241 C  
BRANCH  21  24
HETATM   24  C   UNL     1      -9.736   5.593  70.251  1.00  0.00    -0.178 C  
BRANCH  24  25
HETATM   25  C   UNL     1     -10.117   4.973  71.607  1.00  0.00    -0.260 A  
HETATM   26  C   UNL     1      -9.381   3.879  72.104  1.00  0.00    -0.180 A  
HETATM   27  C   UNL     1     -11.151   5.485  72.408  1.00  0.00    -0.312 A  
HETATM   28  C   UNL     1      -9.676   3.317  73.349  1.00  0.00    -0.150 A  
HETATM   29  C   UNL     1     -10.721   3.825  74.115  1.00  0.00    -0.258 A  
HETATM   30  C   UNL     1     -11.459   4.907  73.644  1.00  0.00    -0.035 A  
ENDBRANCH  24  25
BRANCH  24  31
HETATM   31  C   UNL     1      -8.955   4.618  69.356  1.00  0.00    -0.140 A  
HETATM   32  C   UNL     1      -7.563   3.025  67.503  1.00  0.00    -0.065 A  
HETATM   33  C   UNL     1      -8.864   2.691  67.870  1.00  0.00    -0.161 A  
HETATM   34  C   UNL     1      -7.632   4.927  68.990  1.00  0.00    -0.068 A  
HETATM   35  C   UNL     1      -9.557   3.484  68.786  1.00  0.00    -0.137 A  
HETATM   36  C   UNL     1      -6.946   4.141  68.063  1.00  0.00    -0.058 A  
ENDBRANCH  24  31
ENDBRANCH  21  24
ENDBRANCH  17  18
ENDBRANCH  16  17
ENDBRANCH  15  16
ENDBRANCH  13  15
ENDBRANCH  11  13
BRANCH  12  37
HETATM   37  C   UNL     1      -9.735  13.312  67.148  1.00  0.00    -0.236 A  
HETATM   38  C   UNL     1      -7.583  12.490  67.925  1.00  0.00    -0.133 A  
HETATM   39  O   UNL     1      -9.813  10.143  64.468  1.00  0.00    -0.324 OA 
HETATM   40  C   UNL     1      -9.790  12.251  66.221  1.00  0.00    -0.254 A  
HETATM   41  O   UNL     1      -7.870   9.411  65.175  1.00  0.00    -0.105 OA 
HETATM   42  C   UNL     1      -8.744  11.322  66.159  1.00  0.00    -0.179 A  
HETATM   43  C   UNL     1      -7.644  11.432  67.016  1.00  0.00    -0.151 A  
HETATM   44  N   UNL     1      -8.816  10.211  65.198  1.00  0.00    -0.170 N  
HETATM   45  C   UNL     1      -8.614  13.429  67.983  1.00  0.00    -0.174 A  
ENDBRANCH  12  37
ENDBRANCH   3   5
ENDBRANCH   2   3
TORSDOF 11
ENDMDL
MODEL       76
REMARK 921   NORMALIZED FREE ENERGY PREDICTED BY IDOCK:   -5.02 KCAL/MOL
REMARK 922        TOTAL FREE ENERGY PREDICTED BY IDOCK:  -10.11 KCAL/MOL
REMARK 923 INTER-LIGAND FREE ENERGY PREDICTED BY IDOCK:   -8.76 KCAL/MOL
REMARK 924 INTRA-LIGAND FREE ENERGY PREDICTED BY IDOCK:   -1.34 KCAL/MOL
REMARK 927      BINDING AFFINITY PREDICTED BY RF-SCORE:    0.00 PKD
ROOT
HETATM    1  C   UNL     1      -8.277   7.735  62.665  1.00  0.00    -0.084 C  
HETATM    2  O   UNL     1      -6.961   8.277  62.813  1.00  0.00    -0.089 OA 
ENDROOT
BRANCH   2   3
HETATM    3  C   UNL     1      -6.377   7.956  63.995  1.00  0.00    -0.061 C  
HETATM    4  O   UNL     1      -5.605   7.021  64.161  1.00  0.00    -0.031 OA 
BRANCH   3   5
HETATM    5  C   UNL     1      -6.836   8.872  65.073  1.00  0.00    -0.073 C  
HETATM    6  C   UNL     1      -6.260  10.089  65.259  1.00  0.00    -0.106 C  
HETATM    7  N   UNL     1      -6.685  10.896  66.304  1.00  0.00    -0.132 NA 
HETATM    8  C   UNL     1      -5.151  10.702  64.443  1.00  0.00    -0.153 C  
HETATM    9  C   UNL     1      -7.525  10.487  67.318  1.00  0.00    -0.095 C  
HETATM   10  C   UNL     1      -7.643  11.421  68.500  1.00  0.00    -0.129 C  
HETATM   11  C   UNL     1      -8.158   9.297  67.218  1.00  0.00    -0.113 C  
HETATM   12  C   UNL     1      -7.961   8.387  66.000  1.00  0.00    -0.101 C  
BRANCH  11  13
HETATM   13  C   UNL     1      -8.934   8.793  68.370  1.00  0.00    -0.141 C  
HETATM   14  O   UNL     1      -8.439   8.535  69.458  1.00  0.00    -0.123 OA 
BRANCH  13  15
HETATM   15  O   UNL     1     -10.245   8.634  68.048  1.00  0.00    -0.192 OA 
BRANCH  15  16
HETATM   16  C   UNL     1     -11.059   9.764  68.424  1.00  0.00    -0.088 C  
BRANCH  16  17
HETATM   17  C   UNL     1     -11.126  10.756  67.251  1.00  0.00    -0.270 C  
BRANCH  17  18
HETATM   18  N   UNL     1     -11.983  11.939  67.442  1.00  0.00    -0.601 NA 
HETATM   19  C   UNL     1     -10.880  12.919  69.529  1.00  0.00     0.215 C  
HETATM   20  C   UNL     1     -12.142  12.309  68.866  1.00  0.00    -0.126 C  
HETATM   21  N   UNL     1     -10.345  14.114  68.829  1.00  0.00    -0.238 NA 
HETATM   22  C   UNL     1     -11.388  13.091  66.718  1.00  0.00    -0.324 C  
HETATM   23  C   UNL     1     -10.148  13.724  67.408  1.00  0.00    -0.244 C  
BRANCH  21  24
HETATM   24  C   UNL     1     -11.250  15.296  68.974  1.00  0.00    -0.280 C  
BRANCH  24  25
HETATM   25  C   UNL     1     -11.956  15.358  70.339  1.00  0.00    -0.387 A  
HETATM   26  C   UNL     1     -11.187  15.434  71.518  1.00  0.00    -0.401 A  
HETATM   27  C   UNL     1     -13.354  15.391  70.466  1.00  0.00    -0.173 A  
HETATM   28  C   UNL     1     -11.796  15.529  72.772  1.00  0.00    -0.575 A  
HETATM   29  C   UNL     1     -13.184  15.536  72.876  1.00  0.00    -0.633 A  
HETATM   30  C   UNL     1     -13.962  15.464  71.724  1.00  0.00    -0.626 A  
ENDBRANCH  24  25
BRANCH  24  31
HETATM   31  C   UNL     1     -10.549  16.614  68.612  1.00  0.00    -0.337 A  
HETATM   32  C   UNL     1      -9.260  18.933  67.677  1.00  0.00    -0.318 A  
HETATM   33  C   UNL     1      -8.536  17.962  68.364  1.00  0.00    -0.300 A  
HETATM   34  C   UNL     1     -11.268  17.616  67.935  1.00  0.00     0.228 A  
HETATM   35  C   UNL     1      -9.173  16.809  68.824  1.00  0.00    -0.260 A  
HETATM   36  C   UNL     1     -10.625  18.762  67.464  1.00  0.00    -0.497 A  
ENDBRANCH  24  31
ENDBRANCH  21  24
ENDBRANCH  17  18
ENDBRANCH  16  17
ENDBRANCH  15  16
ENDBRANCH  13  15
ENDBRANCH  11  13
BRANCH  12  37
HETATM   37  C   UNL     1      -7.781   6.925  66.439  1.00  0.00    -0.098 A  
HETATM   38  C   UNL     1      -6.691   5.246  67.819  1.00  0.00    -0.055 A  
HETATM   39  O   UNL     1     -10.437   3.980  65.212  1.00  0.00    -0.167 OA 
HETATM   40  C   UNL     1      -8.696   5.948  65.996  1.00  0.00    -0.148 A  
HETATM   41  O   UNL     1      -9.445   2.473  66.459  1.00  0.00    -0.018 OA 
HETATM   42  C   UNL     1      -8.600   4.634  66.472  1.00  0.00    -0.112 A  
HETATM   43  C   UNL     1      -7.606   4.281  67.391  1.00  0.00    -0.077 A  
HETATM   44  N   UNL     1      -9.565   3.624  66.015  1.00  0.00    -0.166 N  
HETATM   45  C   UNL     1      -6.771   6.555  67.339  1.00  0.00    -0.067 A  
ENDBRANCH  12  37
ENDBRANCH   3   5
ENDBRANCH   2   3
TORSDOF 11
ENDMDL
MODEL       77
REMARK 921   NORMALIZED FREE ENERGY PREDICTED BY IDOCK:   -4.99 KCAL/MOL
REMARK 922        TOTAL FREE ENERGY PREDICTED BY IDOCK:  -10.06 KCAL/MOL
REMARK 923 INTER-LIGAND FREE ENERGY PREDICTED BY IDOCK:   -7.53 KCAL/MOL
REMARK 924 INTRA-LIGAND FREE ENERGY PREDICTED BY IDOCK:   -2.53 KCAL/MOL
REMARK 927      BINDING AFFINITY PREDICTED BY RF-SCORE:    0.00 PKD
ROOT
HETATM    1  C   UNL     1     -12.062  14.074  64.331  1.00  0.00    -0.458 C  
HETATM    2  O   UNL     1     -10.825  13.878  65.023  1.00  0.00    -0.337 OA 
ENDROOT
BRANCH   2   3
HETATM    3  C   UNL     1     -10.932  14.021  66.368  1.00  0.00    -0.308 C  
HETATM    4  O   UNL     1     -11.989  14.062  66.984  1.00  0.00    -0.403 OA 
BRANCH   3   5
HETATM    5  C   UNL     1      -9.589  14.164  66.989  1.00  0.00    -0.264 C  
HETATM    6  C   UNL     1      -8.803  15.243  66.731  1.00  0.00    -0.271 C  
HETATM    7  N   UNL     1      -7.537  15.317  67.293  1.00  0.00    -0.204 NA 
HETATM    8  C   UNL     1      -9.141  16.424  65.858  1.00  0.00    -0.217 C  
HETATM    9  C   UNL     1      -6.907  14.281  67.948  1.00  0.00    -0.164 C  
HETATM   10  C   UNL     1      -5.437  14.473  68.237  1.00  0.00    -0.114 C  
HETATM   11  C   UNL     1      -7.609  13.169  68.263  1.00  0.00    -0.139 C  
HETATM   12  C   UNL     1      -9.093  13.034  67.904  1.00  0.00    -0.207 C  
BRANCH  11  13
HETATM   13  C   UNL     1      -6.898  12.002  68.824  1.00  0.00    -0.094 C  
HETATM   14  O   UNL     1      -6.933  11.693  70.007  1.00  0.00     0.053 OA 
BRANCH  13  15
HETATM   15  O   UNL     1      -6.193  11.348  67.864  1.00  0.00    -0.049 OA 
BRANCH  15  16
HETATM   16  C   UNL     1      -5.129  10.535  68.400  1.00  0.00    -0.034 C  
BRANCH  16  17
HETATM   17  C   UNL     1      -5.228   9.116  67.816  1.00  0.00    -0.034 C  
BRANCH  17  18
HETATM   18  N   UNL     1      -6.570   8.670  67.405  1.00  0.00    -0.058 NA 
HETATM   19  C   UNL     1      -6.249   6.142  67.617  1.00  0.00    -0.029 C  
HETATM   20  C   UNL     1      -6.551   7.363  66.709  1.00  0.00    -0.057 C  
HETATM   21  N   UNL     1      -7.170   6.003  68.773  1.00  0.00    -0.081 NA 
HETATM   22  C   UNL     1      -7.432   8.552  68.609  1.00  0.00    -0.093 C  
HETATM   23  C   UNL     1      -7.152   7.305  69.492  1.00  0.00    -0.074 C  
BRANCH  21  24
HETATM   24  C   UNL     1      -8.548   5.610  68.344  1.00  0.00    -0.111 C  
BRANCH  24  25
HETATM   25  C   UNL     1      -8.592   4.262  67.603  1.00  0.00    -0.110 A  
HETATM   26  C   UNL     1      -9.345   4.143  66.418  1.00  0.00    -0.178 A  
HETATM   27  C   UNL     1      -7.866   3.139  68.033  1.00  0.00    -0.066 A  
HETATM   28  C   UNL     1      -9.377   2.945  65.700  1.00  0.00    -0.071 A  
HETATM   29  C   UNL     1      -8.669   1.837  66.159  1.00  0.00    -0.116 A  
HETATM   30  C   UNL     1      -7.916   1.934  67.326  1.00  0.00    -0.066 A  
ENDBRANCH  24  25
BRANCH  24  31
HETATM   31  C   UNL     1      -9.560   5.682  69.497  1.00  0.00    -0.192 A  
HETATM   32  C   UNL     1     -11.257   6.037  71.712  1.00  0.00    -0.333 A  
HETATM   33  C   UNL     1     -10.345   4.985  71.695  1.00  0.00    -0.262 A  
HETATM   34  C   UNL     1     -10.503   6.726  69.524  1.00  0.00    -0.248 A  
HETATM   35  C   UNL     1      -9.499   4.811  70.598  1.00  0.00    -0.238 A  
HETATM   36  C   UNL     1     -11.338   6.906  70.627  1.00  0.00    -0.366 A  
ENDBRANCH  24  31
ENDBRANCH  21  24
ENDBRANCH  17  18
ENDBRANCH  16  17
ENDBRANCH  15  16
ENDBRANCH  13  15
ENDBRANCH  11  13
BRANCH  12  37
HETATM   37  C   UNL     1      -9.388  11.636  67.336  1.00  0.00    -0.168 A  
HETATM   38  C   UNL     1     -10.665   9.567  67.358  1.00  0.00    -0.297 A  
HETATM   39  O   UNL     1      -7.652  10.355  63.790  1.00  0.00    -0.125 OA 
HETATM   40  C   UNL     1      -8.774  11.228  66.135  1.00  0.00    -0.179 A  
HETATM   41  O   UNL     1      -8.807   8.491  63.821  1.00  0.00     0.079 OA 
HETATM   42  C   UNL     1      -9.115   9.998  65.558  1.00  0.00    -0.186 A  
HETATM   43  C   UNL     1     -10.067   9.169  66.161  1.00  0.00    -0.278 A  
HETATM   44  N   UNL     1      -8.479   9.586  64.298  1.00  0.00    -0.171 N  
HETATM   45  C   UNL     1     -10.321  10.785  67.948  1.00  0.00    -0.216 A  
ENDBRANCH  12  37
ENDBRANCH   3   5
ENDBRANCH   2   3
TORSDOF 11
ENDMDL
MODEL       78
REMARK 921   NORMALIZED FREE ENERGY PREDICTED BY IDOCK:   -4.95 KCAL/MOL
REMARK 922        TOTAL FREE ENERGY PREDICTED BY IDOCK:   -9.99 KCAL/MOL
REMARK 923 INTER-LIGAND FREE ENERGY PREDICTED BY IDOCK:   -9.47 KCAL/MOL
REMARK 924 INTRA-LIGAND FREE ENERGY PREDICTED BY IDOCK:   -0.52 KCAL/MOL
REMARK 927      BINDING AFFINITY PREDICTED BY RF-SCORE:    0.00 PKD
ROOT
HETATM    1  C   UNL     1     -10.757  17.907  66.955  1.00  0.00    -0.209 C  
HETATM    2  O   UNL     1     -11.127  16.525  66.965  1.00  0.00    -0.090 OA 
ENDROOT
BRANCH   2   3
HETATM    3  C   UNL     1     -11.005  15.927  65.753  1.00  0.00    -0.177 C  
HETATM    4  O   UNL     1     -11.101  16.503  64.678  1.00  0.00    -0.699 OA 
BRANCH   3   5
HETATM    5  C   UNL     1     -10.780  14.466  65.910  1.00  0.00    -0.308 C  
HETATM    6  C   UNL     1     -11.800  13.576  65.782  1.00  0.00    -0.372 C  
HETATM    7  N   UNL     1     -11.559  12.225  65.981  1.00  0.00    -0.386 NA 
HETATM    8  C   UNL     1     -13.237  13.885  65.446  1.00  0.00    -0.048 C  
HETATM    9  C   UNL     1     -10.395  11.705  66.504  1.00  0.00    -0.224 C  
HETATM   10  C   UNL     1     -10.437  10.247  66.899  1.00  0.00    -0.291 C  
HETATM   11  C   UNL     1      -9.318  12.507  66.656  1.00  0.00    -0.236 C  
HETATM   12  C   UNL     1      -9.363  13.988  66.263  1.00  0.00    -0.199 C  
BRANCH  11  13
HETATM   13  C   UNL     1      -8.124  11.988  67.357  1.00  0.00    -0.168 C  
HETATM   14  O   UNL     1      -7.059  11.761  66.801  1.00  0.00    -0.126 OA 
BRANCH  13  15
HETATM   15  O   UNL     1      -8.382  11.778  68.675  1.00  0.00    -0.145 OA 
BRANCH  15  16
HETATM   16  C   UNL     1      -7.204  11.427  69.430  1.00  0.00    -0.030 C  
BRANCH  16  17
HETATM   17  C   UNL     1      -7.411  10.053  70.088  1.00  0.00    -0.166 C  
BRANCH  17  18
HETATM   18  N   UNL     1      -8.693   9.382  69.812  1.00  0.00    -0.164 NA 
HETATM   19  C   UNL     1      -7.818   7.077  69.136  1.00  0.00    -0.114 C  
HETATM   20  C   UNL     1      -8.590   8.364  68.742  1.00  0.00    -0.135 C  
HETATM   21  N   UNL     1      -8.359   6.390  70.336  1.00  0.00    -0.125 NA 
HETATM   22  C   UNL     1      -9.170   8.718  71.052  1.00  0.00    -0.222 C  
HETATM   23  C   UNL     1      -8.421   7.408  71.419  1.00  0.00    -0.113 C  
BRANCH  21  24
HETATM   24  C   UNL     1      -9.690   5.763  70.068  1.00  0.00    -0.169 C  
BRANCH  24  25
HETATM   25  C   UNL     1      -9.760   5.044  68.710  1.00  0.00    -0.226 A  
HETATM   26  C   UNL     1     -10.394   5.674  67.620  1.00  0.00    -0.266 A  
HETATM   27  C   UNL     1      -9.172   3.788  68.488  1.00  0.00    -0.214 A  
HETATM   28  C   UNL     1     -10.442   5.066  66.363  1.00  0.00    -0.349 A  
HETATM   29  C   UNL     1      -9.873   3.810  66.173  1.00  0.00    -0.078 A  
HETATM   30  C   UNL     1      -9.241   3.171  67.236  1.00  0.00    -0.219 A  
ENDBRANCH  24  25
BRANCH  24  31
HETATM   31  C   UNL     1     -10.160   4.876  71.231  1.00  0.00    -0.269 A  
HETATM   32  C   UNL     1     -10.871   3.426  73.534  1.00  0.00    -0.321 A  
HETATM   33  C   UNL     1      -9.903   2.926  72.667  1.00  0.00    -0.207 A  
HETATM   34  C   UNL     1     -11.152   5.354  72.107  1.00  0.00    -0.234 A  
HETATM   35  C   UNL     1      -9.546   3.647  71.526  1.00  0.00    -0.234 A  
HETATM   36  C   UNL     1     -11.497   4.638  73.254  1.00  0.00    -0.346 A  
ENDBRANCH  24  31
ENDBRANCH  21  24
ENDBRANCH  17  18
ENDBRANCH  16  17
ENDBRANCH  15  16
ENDBRANCH  13  15
ENDBRANCH  11  13
BRANCH  12  37
HETATM   37  C   UNL     1      -8.693  14.856  67.340  1.00  0.00    -0.208 A  
HETATM   38  C   UNL     1      -8.361  15.456  69.673  1.00  0.00    -0.127 A  
HETATM   39  O   UNL     1      -5.561  17.409  66.390  1.00  0.00    -0.184 OA 
HETATM   40  C   UNL     1      -7.639  15.720  66.982  1.00  0.00    -0.257 A  
HETATM   41  O   UNL     1      -5.271  17.945  68.497  1.00  0.00    -0.147 OA 
HETATM   42  C   UNL     1      -6.956  16.438  67.972  1.00  0.00    -0.140 A  
HETATM   43  C   UNL     1      -7.307  16.301  69.319  1.00  0.00    -0.221 A  
HETATM   44  N   UNL     1      -5.849  17.327  67.591  1.00  0.00    -0.124 N  
HETATM   45  C   UNL     1      -9.056  14.748  68.691  1.00  0.00    -0.186 A  
ENDBRANCH  12  37
ENDBRANCH   3   5
ENDBRANCH   2   3
TORSDOF 11
ENDMDL
MODEL       79
REMARK 921   NORMALIZED FREE ENERGY PREDICTED BY IDOCK:   -4.94 KCAL/MOL
REMARK 922        TOTAL FREE ENERGY PREDICTED BY IDOCK:   -9.98 KCAL/MOL
REMARK 923 INTER-LIGAND FREE ENERGY PREDICTED BY IDOCK:  -10.26 KCAL/MOL
REMARK 924 INTRA-LIGAND FREE ENERGY PREDICTED BY IDOCK:    0.29 KCAL/MOL
REMARK 927      BINDING AFFINITY PREDICTED BY RF-SCORE:    0.00 PKD
ROOT
HETATM    1  C   UNL     1     -11.312  16.546  64.749  1.00  0.00    -0.075 C  
HETATM    2  O   UNL     1      -9.962  16.619  65.215  1.00  0.00    -0.539 OA 
ENDROOT
BRANCH   2   3
HETATM    3  C   UNL     1      -9.858  16.621  66.568  1.00  0.00    -0.281 C  
HETATM    4  O   UNL     1     -10.532  17.314  67.318  1.00  0.00    -0.334 OA 
BRANCH   3   5
HETATM    5  C   UNL     1      -8.783  15.696  67.013  1.00  0.00    -0.256 C  
HETATM    6  C   UNL     1      -7.471  16.038  66.913  1.00  0.00    -0.218 C  
HETATM    7  N   UNL     1      -6.495  15.129  67.296  1.00  0.00    -0.298 NA 
HETATM    8  C   UNL     1      -6.908  17.340  66.402  1.00  0.00    -0.300 C  
HETATM    9  C   UNL     1      -6.731  13.804  67.592  1.00  0.00    -0.176 C  
HETATM   10  C   UNL     1      -5.510  12.922  67.713  1.00  0.00    -0.123 C  
HETATM   11  C   UNL     1      -8.004  13.369  67.727  1.00  0.00    -0.167 C  
HETATM   12  C   UNL     1      -9.195  14.319  67.555  1.00  0.00    -0.197 C  
BRANCH  11  13
HETATM   13  C   UNL     1      -8.259  11.922  67.890  1.00  0.00    -0.150 C  
HETATM   14  O   UNL     1      -7.644  11.054  67.288  1.00  0.00    -0.102 OA 
BRANCH  13  15
HETATM   15  O   UNL     1      -9.273  11.699  68.767  1.00  0.00    -0.143 OA 
BRANCH  15  16
HETATM   16  C   UNL     1      -9.782  10.350  68.709  1.00  0.00    -0.183 C  
BRANCH  16  17
HETATM   17  C   UNL     1     -11.042  10.244  69.583  1.00  0.00    -0.274 C  
BRANCH  17  18
HETATM   18  N   UNL     1     -10.847   9.747  70.957  1.00  0.00    -0.334 NA 
HETATM   19  C   UNL     1     -11.506   7.301  70.611  1.00  0.00    -0.293 C  
HETATM   20  C   UNL     1     -11.784   8.657  71.311  1.00  0.00    -0.289 C  
HETATM   21  N   UNL     1     -10.132   6.779  70.826  1.00  0.00    -0.191 NA 
HETATM   22  C   UNL     1      -9.458   9.241  71.096  1.00  0.00    -0.217 C  
HETATM   23  C   UNL     1      -9.196   7.863  70.428  1.00  0.00    -0.158 C  
BRANCH  21  24
HETATM   24  C   UNL     1      -9.920   6.333  72.238  1.00  0.00    -0.165 C  
BRANCH  24  25
HETATM   25  C   UNL     1     -10.056   4.812  72.422  1.00  0.00    -0.235 A  
HETATM   26  C   UNL     1     -10.798   4.306  73.508  1.00  0.00    -0.351 A  
HETATM   27  C   UNL     1      -9.506   3.889  71.517  1.00  0.00    -0.226 A  
HETATM   28  C   UNL     1     -10.973   2.930  73.684  1.00  0.00    -0.318 A  
HETATM   29  C   UNL     1     -10.399   2.033  72.788  1.00  0.00    -0.224 A  
HETATM   30  C   UNL     1      -9.664   2.513  71.707  1.00  0.00    -0.224 A  
ENDBRANCH  24  25
BRANCH  24  31
HETATM   31  C   UNL     1      -8.615   6.885  72.833  1.00  0.00    -0.129 A  
HETATM   32  C   UNL     1      -6.273   8.134  73.763  1.00  0.00    -0.111 A  
HETATM   33  C   UNL     1      -6.192   7.125  72.808  1.00  0.00    -0.056 A  
HETATM   34  C   UNL     1      -8.676   7.892  73.814  1.00  0.00    -0.331 A  
HETATM   35  C   UNL     1      -7.354   6.508  72.342  1.00  0.00    -0.090 A  
HETATM   36  C   UNL     1      -7.513   8.517  74.267  1.00  0.00    -0.184 A  
ENDBRANCH  24  31
ENDBRANCH  21  24
ENDBRANCH  17  18
ENDBRANCH  16  17
ENDBRANCH  15  16
ENDBRANCH  13  15
ENDBRANCH  11  13
BRANCH  12  37
HETATM   37  C   UNL     1     -10.301  13.656  66.717  1.00  0.00    -0.268 A  
HETATM   38  C   UNL     1     -12.652  13.234  66.267  1.00  0.00    -0.140 A  
HETATM   39  O   UNL     1      -9.428  11.788  63.114  1.00  0.00    -0.330 OA 
HETATM   40  C   UNL     1      -9.969  13.021  65.503  1.00  0.00    -0.226 A  
HETATM   41  O   UNL     1     -11.552  11.411  62.719  1.00  0.00     0.332 OA 
HETATM   42  C   UNL     1     -10.981  12.504  64.685  1.00  0.00    -0.310 A  
HETATM   43  C   UNL     1     -12.324  12.617  65.058  1.00  0.00    -0.561 A  
HETATM   44  N   UNL     1     -10.627  11.855  63.414  1.00  0.00    -0.428 N  
HETATM   45  C   UNL     1     -11.649  13.739  67.096  1.00  0.00    -0.392 A  
ENDBRANCH  12  37
ENDBRANCH   3   5
ENDBRANCH   2   3
TORSDOF 11
ENDMDL
MODEL       80
REMARK 921   NORMALIZED FREE ENERGY PREDICTED BY IDOCK:   -4.91 KCAL/MOL
REMARK 922        TOTAL FREE ENERGY PREDICTED BY IDOCK:   -9.92 KCAL/MOL
REMARK 923 INTER-LIGAND FREE ENERGY PREDICTED BY IDOCK:   -9.43 KCAL/MOL
REMARK 924 INTRA-LIGAND FREE ENERGY PREDICTED BY IDOCK:   -0.49 KCAL/MOL
REMARK 927      BINDING AFFINITY PREDICTED BY RF-SCORE:    0.00 PKD
ROOT
HETATM    1  C   UNL     1      -6.924   5.071  70.379  1.00  0.00    -0.049 C  
HETATM    2  O   UNL     1      -7.676   6.122  70.993  1.00  0.00    -0.097 OA 
ENDROOT
BRANCH   2   3
HETATM    3  C   UNL     1      -9.011   5.879  71.026  1.00  0.00    -0.142 C  
HETATM    4  O   UNL     1      -9.520   4.768  70.964  1.00  0.00    -0.146 OA 
BRANCH   3   5
HETATM    5  C   UNL     1      -9.774   7.153  71.107  1.00  0.00    -0.168 C  
HETATM    6  C   UNL     1     -10.503   7.471  72.209  1.00  0.00    -0.230 C  
HETATM    7  N   UNL     1     -11.238   8.647  72.228  1.00  0.00    -0.357 NA 
HETATM    8  C   UNL     1     -10.634   6.663  73.475  1.00  0.00    -0.334 C  
HETATM    9  C   UNL     1     -11.462   9.450  71.130  1.00  0.00    -0.352 C  
HETATM   10  C   UNL     1     -12.510  10.525  71.295  1.00  0.00    -0.524 C  
HETATM   11  C   UNL     1     -10.773   9.223  69.989  1.00  0.00    -0.259 C  
HETATM   12  C   UNL     1      -9.748   8.087  69.888  1.00  0.00    -0.180 C  
BRANCH  11  13
HETATM   13  C   UNL     1     -11.123   9.982  68.771  1.00  0.00    -0.173 C  
HETATM   14  O   UNL     1     -12.270  10.272  68.461  1.00  0.00     0.022 OA 
BRANCH  13  15
HETATM   15  O   UNL     1     -10.015  10.283  68.045  1.00  0.00    -0.148 OA 
BRANCH  15  16
HETATM   16  C   UNL     1     -10.277  10.380  66.629  1.00  0.00    -0.234 C  
BRANCH  16  17
HETATM   17  C   UNL     1     -10.978  11.715  66.331  1.00  0.00    -0.295 C  
BRANCH  17  18
HETATM   18  N   UNL     1     -10.135  12.787  65.775  1.00  0.00    -0.285 NA 
HETATM   19  C   UNL     1     -11.094  14.778  67.061  1.00  0.00    -0.333 C  
HETATM   20  C   UNL     1     -10.839  14.087  65.696  1.00  0.00    -0.295 C  
HETATM   21  N   UNL     1      -9.867  14.998  67.868  1.00  0.00    -0.216 NA 
HETATM   22  C   UNL     1      -8.932  12.952  66.631  1.00  0.00    -0.136 C  
HETATM   23  C   UNL     1      -9.186  13.681  67.979  1.00  0.00    -0.197 C  
BRANCH  21  24
HETATM   24  C   UNL     1      -8.984  16.045  67.265  1.00  0.00    -0.197 C  
BRANCH  24  25
HETATM   25  C   UNL     1      -9.642  17.435  67.206  1.00  0.00    -0.258 A  
HETATM   26  C   UNL     1      -9.820  18.172  68.394  1.00  0.00    -0.380 A  
HETATM   27  C   UNL     1     -10.037  18.033  65.999  1.00  0.00    -0.268 A  
HETATM   28  C   UNL     1     -10.379  19.452  68.372  1.00  0.00    -0.461 A  
HETATM   29  C   UNL     1     -10.785  20.016  67.166  1.00  0.00    -0.358 A  
HETATM   30  C   UNL     1     -10.616  19.306  65.981  1.00  0.00    -0.550 A  
ENDBRANCH  24  25
BRANCH  24  31
HETATM   31  C   UNL     1      -7.592  16.078  67.915  1.00  0.00    -0.144 A  
HETATM   32  C   UNL     1      -5.141  16.359  69.267  1.00  0.00    -0.118 A  
HETATM   33  C   UNL     1      -5.277  16.833  67.965  1.00  0.00    -0.123 A  
HETATM   34  C   UNL     1      -7.429  15.586  69.223  1.00  0.00    -0.212 A  
HETATM   35  C   UNL     1      -6.495  16.698  67.295  1.00  0.00    -0.215 A  
HETATM   36  C   UNL     1      -6.216  15.735  69.896  1.00  0.00    -0.157 A  
ENDBRANCH  24  31
ENDBRANCH  21  24
ENDBRANCH  17  18
ENDBRANCH  16  17
ENDBRANCH  15  16
ENDBRANCH  13  15
ENDBRANCH  11  13
BRANCH  12  37
HETATM   37  C   UNL     1      -9.903   7.334  68.557  1.00  0.00    -0.159 A  
HETATM   38  C   UNL     1     -11.285   6.175  66.927  1.00  0.00    -0.157 A  
HETATM   39  O   UNL     1      -6.792   7.177  65.812  1.00  0.00    -0.054 OA 
HETATM   40  C   UNL     1      -8.823   7.292  67.651  1.00  0.00    -0.123 A  
HETATM   41  O   UNL     1      -8.047   6.130  64.350  1.00  0.00    -0.124 OA 
HETATM   42  C   UNL     1      -8.988   6.695  66.395  1.00  0.00    -0.148 A  
HETATM   43  C   UNL     1     -10.220   6.145  66.025  1.00  0.00     0.239 A  
HETATM   44  N   UNL     1      -7.861   6.667  65.451  1.00  0.00    -0.103 N  
HETATM   45  C   UNL     1     -11.125   6.754  68.187  1.00  0.00    -0.229 A  
ENDBRANCH  12  37
ENDBRANCH   3   5
ENDBRANCH   2   3
TORSDOF 11
ENDMDL
MODEL       81
REMARK 921   NORMALIZED FREE ENERGY PREDICTED BY IDOCK:   -4.90 KCAL/MOL
REMARK 922        TOTAL FREE ENERGY PREDICTED BY IDOCK:   -9.92 KCAL/MOL
REMARK 923 INTER-LIGAND FREE ENERGY PREDICTED BY IDOCK:  -10.39 KCAL/MOL
REMARK 924 INTRA-LIGAND FREE ENERGY PREDICTED BY IDOCK:    0.47 KCAL/MOL
REMARK 927      BINDING AFFINITY PREDICTED BY RF-SCORE:    0.00 PKD
ROOT
HETATM    1  C   UNL     1      -9.357   4.432  67.680  1.00  0.00    -0.154 C  
HETATM    2  O   UNL     1      -9.757   5.125  68.865  1.00  0.00    -0.134 OA 
ENDROOT
BRANCH   2   3
HETATM    3  C   UNL     1      -9.062   6.271  69.080  1.00  0.00    -0.129 C  
HETATM    4  O   UNL     1      -7.901   6.322  69.462  1.00  0.00    -0.097 OA 
BRANCH   3   5
HETATM    5  C   UNL     1      -9.920   7.459  68.827  1.00  0.00    -0.171 C  
HETATM    6  C   UNL     1      -9.778   8.205  67.700  1.00  0.00    -0.159 C  
HETATM    7  N   UNL     1     -10.565   9.333  67.522  1.00  0.00    -0.279 NA 
HETATM    8  C   UNL     1      -8.816   7.962  66.565  1.00  0.00    -0.175 C  
HETATM    9  C   UNL     1     -11.362   9.895  68.496  1.00  0.00     0.013 C  
HETATM   10  C   UNL     1     -11.917  11.267  68.192  1.00  0.00    -0.182 C  
HETATM   11  C   UNL     1     -11.578   9.222  69.649  1.00  0.00     0.234 C  
HETATM   12  C   UNL     1     -10.950   7.845  69.899  1.00  0.00    -0.179 C  
BRANCH  11  13
HETATM   13  C   UNL     1     -12.303   9.889  70.750  1.00  0.00    -0.273 C  
HETATM   14  O   UNL     1     -13.241   9.381  71.348  1.00  0.00    -0.348 OA 
BRANCH  13  15
HETATM   15  O   UNL     1     -11.808  11.133  70.981  1.00  0.00    -0.250 OA 
BRANCH  15  16
HETATM   16  C   UNL     1     -12.772  12.020  71.585  1.00  0.00    -0.221 C  
BRANCH  16  17
HETATM   17  C   UNL     1     -12.262  13.468  71.488  1.00  0.00     0.061 C  
BRANCH  17  18
HETATM   18  N   UNL     1     -12.723  14.248  70.326  1.00  0.00    -0.314 NA 
HETATM   19  C   UNL     1     -10.974  16.113  70.359  1.00  0.00    -0.309 C  
HETATM   20  C   UNL     1     -12.465  15.698  70.470  1.00  0.00    -0.398 C  
HETATM   21  N   UNL     1     -10.318  15.680  69.100  1.00  0.00    -0.226 NA 
HETATM   22  C   UNL     1     -12.025  13.762  69.108  1.00  0.00    -0.361 C  
HETATM   23  C   UNL     1     -10.544  14.215  68.982  1.00  0.00    -0.213 C  
BRANCH  21  24
HETATM   24  C   UNL     1     -10.834  16.432  67.914  1.00  0.00    -0.328 C  
BRANCH  24  25
HETATM   25  C   UNL     1     -10.104  17.765  67.676  1.00  0.00    -0.342 A  
HETATM   26  C   UNL     1      -8.697  17.812  67.748  1.00  0.00    -0.241 A  
HETATM   27  C   UNL     1     -10.781  18.948  67.336  1.00  0.00    -0.519 A  
HETATM   28  C   UNL     1      -8.000  18.997  67.499  1.00  0.00    -0.276 A  
HETATM   29  C   UNL     1      -8.694  20.163  67.188  1.00  0.00    -0.427 A  
HETATM   30  C   UNL     1     -10.084  20.138  67.109  1.00  0.00    -0.590 A  
ENDBRANCH  24  25
BRANCH  24  31
HETATM   31  C   UNL     1     -10.895  15.559  66.652  1.00  0.00    -0.285 A  
HETATM   32  C   UNL     1     -11.048  13.734  64.517  1.00  0.00    -0.388 A  
HETATM   33  C   UNL     1      -9.813  14.235  64.918  1.00  0.00     0.037 A  
HETATM   34  C   UNL     1     -12.137  15.058  66.219  1.00  0.00     0.141 A  
HETATM   35  C   UNL     1      -9.735  15.137  65.980  1.00  0.00    -0.361 A  
HETATM   36  C   UNL     1     -12.210  14.146  65.165  1.00  0.00    -0.439 A  
ENDBRANCH  24  31
ENDBRANCH  21  24
ENDBRANCH  17  18
ENDBRANCH  16  17
ENDBRANCH  15  16
ENDBRANCH  13  15
ENDBRANCH  11  13
BRANCH  12  37
HETATM   37  C   UNL     1     -10.386   7.758  71.326  1.00  0.00    -0.222 A  
HETATM   38  C   UNL     1     -10.468   6.863  73.585  1.00  0.00    -0.400 A  
HETATM   39  O   UNL     1      -6.714   9.440  72.283  1.00  0.00    -0.288 OA 
HETATM   40  C   UNL     1      -9.140   8.348  71.620  1.00  0.00    -0.268 A  
HETATM   41  O   UNL     1      -6.798   8.630  74.319  1.00  0.00    -0.241 OA 
HETATM   42  C   UNL     1      -8.572   8.187  72.890  1.00  0.00    -0.205 A  
HETATM   43  C   UNL     1      -9.228   7.436  73.872  1.00  0.00    -0.312 A  
HETATM   44  N   UNL     1      -7.266   8.795  73.184  1.00  0.00     0.115 N  
HETATM   45  C   UNL     1     -11.049   7.031  72.326  1.00  0.00    -0.287 A  
ENDBRANCH  12  37
ENDBRANCH   3   5
ENDBRANCH   2   3
TORSDOF 11
ENDMDL
MODEL       82
REMARK 921   NORMALIZED FREE ENERGY PREDICTED BY IDOCK:   -4.90 KCAL/MOL
REMARK 922        TOTAL FREE ENERGY PREDICTED BY IDOCK:   -9.91 KCAL/MOL
REMARK 923 INTER-LIGAND FREE ENERGY PREDICTED BY IDOCK:   -9.10 KCAL/MOL
REMARK 924 INTRA-LIGAND FREE ENERGY PREDICTED BY IDOCK:   -0.82 KCAL/MOL
REMARK 927      BINDING AFFINITY PREDICTED BY RF-SCORE:    0.00 PKD
ROOT
HETATM    1  C   UNL     1     -10.623   4.581  65.577  1.00  0.00    -0.183 C  
HETATM    2  O   UNL     1      -9.910   5.608  66.273  1.00  0.00    -0.158 OA 
ENDROOT
BRANCH   2   3
HETATM    3  C   UNL     1      -8.753   5.173  66.835  1.00  0.00    -0.107 C  
HETATM    4  O   UNL     1      -8.085   4.236  66.420  1.00  0.00    -0.101 OA 
BRANCH   3   5
HETATM    5  C   UNL     1      -8.431   5.967  68.050  1.00  0.00    -0.110 C  
HETATM    6  C   UNL     1      -9.180   5.865  69.179  1.00  0.00    -0.121 C  
HETATM    7  N   UNL     1      -8.875   6.656  70.277  1.00  0.00    -0.151 NA 
HETATM    8  C   UNL     1     -10.371   4.968  69.401  1.00  0.00    -0.215 C  
HETATM    9  C   UNL     1      -7.981   7.705  70.263  1.00  0.00    -0.101 C  
HETATM   10  C   UNL     1      -7.998   8.609  71.474  1.00  0.00    -0.178 C  
HETATM   11  C   UNL     1      -7.178   7.881  69.189  1.00  0.00    -0.081 C  
HETATM   12  C   UNL     1      -7.243   6.939  67.982  1.00  0.00    -0.091 C  
BRANCH  11  13
HETATM   13  C   UNL     1      -6.333   9.090  69.110  1.00  0.00    -0.043 C  
HETATM   14  O   UNL     1      -5.155   9.115  69.440  1.00  0.00    -0.035 OA 
BRANCH  13  15
HETATM   15  O   UNL     1      -7.042  10.156  68.655  1.00  0.00    -0.071 OA 
BRANCH  15  16
HETATM   16  C   UNL     1      -6.993  11.289  69.547  1.00  0.00    -0.089 C  
BRANCH  16  17
HETATM   17  C   UNL     1      -6.071  12.366  68.952  1.00  0.00    -0.074 C  
BRANCH  17  18
HETATM   18  N   UNL     1      -6.529  13.005  67.706  1.00  0.00    -0.133 NA 
HETATM   19  C   UNL     1      -9.004  13.294  68.274  1.00  0.00    -0.176 C  
HETATM   20  C   UNL     1      -7.925  12.655  67.362  1.00  0.00    -0.177 C  
HETATM   21  N   UNL     1      -8.935  14.776  68.348  1.00  0.00    -0.180 NA 
HETATM   22  C   UNL     1      -6.434  14.480  67.854  1.00  0.00    -0.162 C  
HETATM   23  C   UNL     1      -7.541  15.119  68.735  1.00  0.00    -0.136 C  
BRANCH  21  24
HETATM   24  C   UNL     1      -9.343  15.418  67.060  1.00  0.00    -0.224 C  
BRANCH  24  25
HETATM   25  C   UNL     1     -10.427  14.630  66.304  1.00  0.00    -0.302 A  
HETATM   26  C   UNL     1     -11.734  14.567  66.827  1.00  0.00    -0.393 A  
HETATM   27  C   UNL     1     -10.183  14.001  65.073  1.00  0.00    -0.395 A  
HETATM   28  C   UNL     1     -12.752  13.893  66.148  1.00  0.00    -0.336 A  
HETATM   29  C   UNL     1     -12.481  13.255  64.940  1.00  0.00    -0.465 A  
HETATM   30  C   UNL     1     -11.197  13.307  64.405  1.00  0.00    -0.409 A  
ENDBRANCH  24  25
BRANCH  24  31
HETATM   31  C   UNL     1      -9.706  16.900  67.238  1.00  0.00    -0.251 A  
HETATM   32  C   UNL     1     -10.621  19.523  67.677  1.00  0.00    -0.566 A  
HETATM   33  C   UNL     1     -10.642  18.984  66.394  1.00  0.00    -0.492 A  
HETATM   34  C   UNL     1      -9.671  17.470  68.524  1.00  0.00    -0.319 A  
HETATM   35  C   UNL     1     -10.193  17.680  66.175  1.00  0.00    -0.345 A  
HETATM   36  C   UNL     1     -10.134  18.768  68.741  1.00  0.00    -0.407 A  
ENDBRANCH  24  31
ENDBRANCH  21  24
ENDBRANCH  17  18
ENDBRANCH  16  17
ENDBRANCH  15  16
ENDBRANCH  13  15
ENDBRANCH  11  13
BRANCH  12  37
HETATM   37  C   UNL     1      -7.203   7.738  66.669  1.00  0.00    -0.087 A  
HETATM   38  C   UNL     1      -6.181   8.228  64.518  1.00  0.00    -0.065 A  
HETATM   39  O   UNL     1     -10.346  10.219  65.575  1.00  0.00    -0.258 OA 
HETATM   40  C   UNL     1      -8.283   8.579  66.332  1.00  0.00    -0.108 A  
HETATM   41  O   UNL     1      -9.415  10.657  63.639  1.00  0.00    -0.244 OA 
HETATM   42  C   UNL     1      -8.301   9.232  65.093  1.00  0.00    -0.150 A  
HETATM   43  C   UNL     1      -7.257   9.051  64.179  1.00  0.00    -0.095 A  
HETATM   44  N   UNL     1      -9.437  10.097  64.744  1.00  0.00    -0.272 N  
HETATM   45  C   UNL     1      -6.148   7.586  65.757  1.00  0.00    -0.038 A  
ENDBRANCH  12  37
ENDBRANCH   3   5
ENDBRANCH   2   3
TORSDOF 11
ENDMDL
MODEL       83
REMARK 921   NORMALIZED FREE ENERGY PREDICTED BY IDOCK:   -4.87 KCAL/MOL
REMARK 922        TOTAL FREE ENERGY PREDICTED BY IDOCK:   -9.87 KCAL/MOL
REMARK 923 INTER-LIGAND FREE ENERGY PREDICTED BY IDOCK:   -8.88 KCAL/MOL
REMARK 924 INTRA-LIGAND FREE ENERGY PREDICTED BY IDOCK:   -0.98 KCAL/MOL
REMARK 927      BINDING AFFINITY PREDICTED BY RF-SCORE:    0.00 PKD
ROOT
HETATM    1  C   UNL     1      -7.767   2.241  70.217  1.00  0.00    -0.042 C  
HETATM    2  O   UNL     1      -7.800   3.437  71.000  1.00  0.00    -0.049 OA 
ENDROOT
BRANCH   2   3
HETATM    3  C   UNL     1      -7.163   4.483  70.412  1.00  0.00    -0.049 C  
HETATM    4  O   UNL     1      -5.993   4.474  70.053  1.00  0.00    -0.016 OA 
BRANCH   3   5
HETATM    5  C   UNL     1      -8.070   5.655  70.304  1.00  0.00    -0.104 C  
HETATM    6  C   UNL     1      -8.750   6.124  71.383  1.00  0.00    -0.135 C  
HETATM    7  N   UNL     1      -9.623   7.192  71.232  1.00  0.00    -0.164 NA 
HETATM    8  C   UNL     1      -8.686   5.599  72.795  1.00  0.00    -0.119 C  
HETATM    9  C   UNL     1     -10.025   7.711  70.020  1.00  0.00    -0.190 C  
HETATM   10  C   UNL     1     -11.184   8.679  70.062  1.00  0.00    -0.098 C  
HETATM   11  C   UNL     1      -9.398   7.317  68.888  1.00  0.00    -0.144 C  
HETATM   12  C   UNL     1      -8.250   6.302  68.922  1.00  0.00    -0.113 C  
BRANCH  11  13
HETATM   13  C   UNL     1      -9.929   7.755  67.580  1.00  0.00    -0.178 C  
HETATM   14  O   UNL     1     -10.912   7.258  67.048  1.00  0.00    -0.358 OA 
BRANCH  13  15
HETATM   15  O   UNL     1      -9.169   8.749  67.050  1.00  0.00    -0.135 OA 
BRANCH  15  16
HETATM   16  C   UNL     1      -9.748   9.329  65.862  1.00  0.00    -0.285 C  
BRANCH  16  17
HETATM   17  C   UNL     1      -9.314  10.800  65.751  1.00  0.00    -0.203 C  
BRANCH  17  18
HETATM   18  N   UNL     1     -10.380  11.809  65.869  1.00  0.00    -0.232 NA 
HETATM   19  C   UNL     1     -10.645  11.836  68.412  1.00  0.00    -0.216 C  
HETATM   20  C   UNL     1     -11.276  11.564  67.022  1.00  0.00    -0.300 C  
HETATM   21  N   UNL     1     -10.100  13.209  68.571  1.00  0.00    -0.229 NA 
HETATM   22  C   UNL     1      -9.763  13.151  66.027  1.00  0.00    -0.226 C  
HETATM   23  C   UNL     1      -9.169  13.433  67.434  1.00  0.00    -0.213 C  
BRANCH  21  24
HETATM   24  C   UNL     1     -11.185  14.236  68.629  1.00  0.00    -0.264 C  
BRANCH  24  25
HETATM   25  C   UNL     1     -12.040  14.147  69.905  1.00  0.00    -0.405 A  
HETATM   26  C   UNL     1     -12.815  15.254  70.303  1.00  0.00    -0.298 A  
HETATM   27  C   UNL     1     -12.122  12.978  70.679  1.00  0.00    -0.333 A  
HETATM   28  C   UNL     1     -13.632  15.194  71.435  1.00  0.00    -0.570 A  
HETATM   29  C   UNL     1     -13.679  14.033  72.201  1.00  0.00    -0.603 A  
HETATM   30  C   UNL     1     -12.923  12.927  71.825  1.00  0.00    -0.416 A  
ENDBRANCH  24  25
BRANCH  24  31
HETATM   31  C   UNL     1     -10.658  15.656  68.370  1.00  0.00    -0.252 A  
HETATM   32  C   UNL     1      -9.918  18.351  68.049  1.00  0.00    -0.374 A  
HETATM   33  C   UNL     1     -10.513  17.661  66.996  1.00  0.00    -0.305 A  
HETATM   34  C   UNL     1     -10.035  16.362  69.416  1.00  0.00    -0.214 A  
HETATM   35  C   UNL     1     -10.885  16.325  67.156  1.00  0.00    -0.190 A  
HETATM   36  C   UNL     1      -9.678  17.702  69.258  1.00  0.00     0.005 A  
ENDBRANCH  24  31
ENDBRANCH  21  24
ENDBRANCH  17  18
ENDBRANCH  16  17
ENDBRANCH  15  16
ENDBRANCH  13  15
ENDBRANCH  11  13
BRANCH  12  37
HETATM   37  C   UNL     1      -8.407   5.268  67.796  1.00  0.00    -0.098 A  
HETATM   38  C   UNL     1      -9.656   3.480  66.721  1.00  0.00    -0.140 A  
HETATM   39  O   UNL     1      -5.900   5.307  64.488  1.00  0.00    -0.020 OA 
HETATM   40  C   UNL     1      -7.533   5.303  66.691  1.00  0.00    -0.087 A  
HETATM   41  O   UNL     1      -7.032   3.692  63.528  1.00  0.00    -0.042 OA 
HETATM   42  C   UNL     1      -7.731   4.430  65.614  1.00  0.00    -0.090 A  
HETATM   43  C   UNL     1      -8.798   3.524  65.620  1.00  0.00    -0.129 A  
HETATM   44  N   UNL     1      -6.822   4.482  64.460  1.00  0.00    -0.045 N  
HETATM   45  C   UNL     1      -9.456   4.337  67.805  1.00  0.00    -0.215 A  
ENDBRANCH  12  37
ENDBRANCH   3   5
ENDBRANCH   2   3
TORSDOF 11
ENDMDL
MODEL       84
REMARK 921   NORMALIZED FREE ENERGY PREDICTED BY IDOCK:   -4.86 KCAL/MOL
REMARK 922        TOTAL FREE ENERGY PREDICTED BY IDOCK:   -9.85 KCAL/MOL
REMARK 923 INTER-LIGAND FREE ENERGY PREDICTED BY IDOCK:   -9.91 KCAL/MOL
REMARK 924 INTRA-LIGAND FREE ENERGY PREDICTED BY IDOCK:    0.06 KCAL/MOL
REMARK 927      BINDING AFFINITY PREDICTED BY RF-SCORE:    0.00 PKD
ROOT
HETATM    1  C   UNL     1      -9.861  18.370  68.169  1.00  0.00    -0.342 C  
HETATM    2  O   UNL     1     -10.807  17.921  67.194  1.00  0.00    -0.284 OA 
ENDROOT
BRANCH   2   3
HETATM    3  C   UNL     1     -10.246  17.193  66.195  1.00  0.00    -0.334 C  
HETATM    4  O   UNL     1     -10.631  17.190  65.033  1.00  0.00    -0.704 OA 
BRANCH   3   5
HETATM    5  C   UNL     1      -9.126  16.365  66.715  1.00  0.00    -0.259 C  
HETATM    6  C   UNL     1      -7.831  16.747  66.553  1.00  0.00    -0.303 C  
HETATM    7  N   UNL     1      -6.812  15.925  67.011  1.00  0.00    -0.256 NA 
HETATM    8  C   UNL     1      -7.332  18.008  65.893  1.00  0.00    -0.248 C  
HETATM    9  C   UNL     1      -6.987  14.631  67.451  1.00  0.00    -0.093 C  
HETATM   10  C   UNL     1      -5.728  13.817  67.641  1.00  0.00    -0.024 C  
HETATM   11  C   UNL     1      -8.239  14.162  67.658  1.00  0.00    -0.193 C  
HETATM   12  C   UNL     1      -9.471  15.039  67.409  1.00  0.00    -0.202 C  
BRANCH  11  13
HETATM   13  C   UNL     1      -8.430  12.733  67.981  1.00  0.00    -0.177 C  
HETATM   14  O   UNL     1      -9.230  12.328  68.812  1.00  0.00    -0.049 OA 
BRANCH  13  15
HETATM   15  O   UNL     1      -7.588  11.949  67.257  1.00  0.00    -0.137 OA 
BRANCH  15  16
HETATM   16  C   UNL     1      -8.278  10.967  66.457  1.00  0.00    -0.161 C  
BRANCH  16  17
HETATM   17  C   UNL     1      -7.894   9.558  66.937  1.00  0.00    -0.101 C  
BRANCH  17  18
HETATM   18  N   UNL     1      -8.968   8.550  66.934  1.00  0.00    -0.138 NA 
HETATM   19  C   UNL     1      -7.643   6.530  67.773  1.00  0.00    -0.106 C  
HETATM   20  C   UNL     1      -8.474   7.186  66.638  1.00  0.00    -0.121 C  
HETATM   21  N   UNL     1      -8.348   6.462  69.078  1.00  0.00    -0.118 NA 
HETATM   22  C   UNL     1      -9.625   8.536  68.266  1.00  0.00    -0.144 C  
HETATM   23  C   UNL     1      -8.806   7.842  69.389  1.00  0.00    -0.139 C  
BRANCH  21  24
HETATM   24  C   UNL     1      -9.477   5.481  69.051  1.00  0.00    -0.129 C  
BRANCH  24  25
HETATM   25  C   UNL     1      -9.052   4.077  68.587  1.00  0.00    -0.188 A  
HETATM   26  C   UNL     1      -8.147   3.330  69.368  1.00  0.00    -0.061 A  
HETATM   27  C   UNL     1      -9.569   3.475  67.428  1.00  0.00    -0.172 A  
HETATM   28  C   UNL     1      -7.769   2.037  68.996  1.00  0.00    -0.045 A  
HETATM   29  C   UNL     1      -8.275   1.470  67.830  1.00  0.00    -0.068 A  
HETATM   30  C   UNL     1      -9.172   2.190  67.046  1.00  0.00    -0.072 A  
ENDBRANCH  24  25
BRANCH  24  31
HETATM   31  C   UNL     1     -10.258   5.455  70.374  1.00  0.00    -0.332 A  
HETATM   32  C   UNL     1     -11.549   5.652  72.865  1.00  0.00    -0.252 A  
HETATM   33  C   UNL     1     -10.508   4.744  72.690  1.00  0.00    -0.260 A  
HETATM   34  C   UNL     1     -11.326   6.351  70.564  1.00  0.00    -0.438 A  
HETATM   35  C   UNL     1      -9.863   4.648  71.455  1.00  0.00    -0.259 A  
HETATM   36  C   UNL     1     -11.959   6.454  71.803  1.00  0.00    -0.370 A  
ENDBRANCH  24  31
ENDBRANCH  21  24
ENDBRANCH  17  18
ENDBRANCH  16  17
ENDBRANCH  15  16
ENDBRANCH  13  15
ENDBRANCH  11  13
BRANCH  12  37
HETATM   37  C   UNL     1     -10.561  14.246  66.670  1.00  0.00    -0.278 A  
HETATM   38  C   UNL     1     -12.888  13.600  66.388  1.00  0.00     0.084 A  
HETATM   39  O   UNL     1      -9.741  12.305  63.094  1.00  0.00    -0.334 OA 
HETATM   40  C   UNL     1     -10.246  13.590  65.463  1.00  0.00    -0.308 A  
HETATM   41  O   UNL     1     -11.843  11.726  62.850  1.00  0.00    -0.044 OA 
HETATM   42  C   UNL     1     -11.255  12.951  64.731  1.00  0.00    -0.306 A  
HETATM   43  C   UNL     1     -12.579  12.962  65.185  1.00  0.00    -0.536 A  
HETATM   44  N   UNL     1     -10.921  12.280  63.466  1.00  0.00    -0.454 N  
HETATM   45  C   UNL     1     -11.885  14.227  67.131  1.00  0.00    -0.454 A  
ENDBRANCH  12  37
ENDBRANCH   3   5
ENDBRANCH   2   3
TORSDOF 11
ENDMDL
MODEL       85
REMARK 921   NORMALIZED FREE ENERGY PREDICTED BY IDOCK:   -4.86 KCAL/MOL
REMARK 922        TOTAL FREE ENERGY PREDICTED BY IDOCK:   -9.84 KCAL/MOL
REMARK 923 INTER-LIGAND FREE ENERGY PREDICTED BY IDOCK:   -9.70 KCAL/MOL
REMARK 924 INTRA-LIGAND FREE ENERGY PREDICTED BY IDOCK:   -0.14 KCAL/MOL
REMARK 927      BINDING AFFINITY PREDICTED BY RF-SCORE:    0.00 PKD
ROOT
HETATM    1  C   UNL     1      -8.571   6.209  69.759  1.00  0.00    -0.132 C  
HETATM    2  O   UNL     1      -8.580   6.296  71.186  1.00  0.00    -0.124 OA 
ENDROOT
BRANCH   2   3
HETATM    3  C   UNL     1      -8.630   7.572  71.647  1.00  0.00    -0.115 C  
HETATM    4  O   UNL     1      -7.651   8.277  71.855  1.00  0.00    -0.092 OA 
BRANCH   3   5
HETATM    5  C   UNL     1     -10.035   7.983  71.905  1.00  0.00    -0.255 C  
HETATM    6  C   UNL     1     -10.875   7.205  72.638  1.00  0.00    -0.279 C  
HETATM    7  N   UNL     1     -12.192   7.600  72.817  1.00  0.00    -0.022 NA 
HETATM    8  C   UNL     1     -10.547   5.894  73.305  1.00  0.00    -0.277 C  
HETATM    9  C   UNL     1     -12.799   8.636  72.140  1.00  0.00    -0.391 C  
HETATM   10  C   UNL     1     -14.302   8.727  72.272  1.00  0.00    -0.468 C  
HETATM   11  C   UNL     1     -12.046   9.476  71.395  1.00  0.00    -0.459 C  
HETATM   12  C   UNL     1     -10.527   9.298  71.283  1.00  0.00    -0.408 C  
BRANCH  11  13
HETATM   13  C   UNL     1     -12.713  10.488  70.550  1.00  0.00    -0.305 C  
HETATM   14  O   UNL     1     -12.619  10.521  69.332  1.00  0.00    -0.212 OA 
BRANCH  13  15
HETATM   15  O   UNL     1     -13.411  11.375  71.307  1.00  0.00    -0.155 OA 
BRANCH  15  16
HETATM   16  C   UNL     1     -12.567  12.346  71.960  1.00  0.00     0.171 C  
BRANCH  16  17
HETATM   17  C   UNL     1     -12.414  13.579  71.055  1.00  0.00    -0.369 C  
BRANCH  17  18
HETATM   18  N   UNL     1     -11.336  13.526  70.053  1.00  0.00    -0.049 NA 
HETATM   19  C   UNL     1     -12.406  14.948  68.217  1.00  0.00     0.177 C  
HETATM   20  C   UNL     1     -11.843  13.573  68.663  1.00  0.00    -0.369 C  
HETATM   21  N   UNL     1     -11.449  16.073  68.367  1.00  0.00    -0.362 NA 
HETATM   22  C   UNL     1     -10.421  14.678  70.262  1.00  0.00     0.294 C  
HETATM   23  C   UNL     1     -10.975  16.046  69.776  1.00  0.00    -0.334 C  
BRANCH  21  24
HETATM   24  C   UNL     1     -10.323  15.980  67.387  1.00  0.00    -0.294 C  
BRANCH  24  25
HETATM   25  C   UNL     1     -10.655  15.115  66.159  1.00  0.00    -0.318 A  
HETATM   26  C   UNL     1     -11.621  15.559  65.235  1.00  0.00     0.000 A  
HETATM   27  C   UNL     1      -9.995  13.905  65.886  1.00  0.00    -0.317 A  
HETATM   28  C   UNL     1     -11.920  14.816  64.089  1.00  0.00    -0.282 A  
HETATM   29  C   UNL     1     -11.270  13.608  63.852  1.00  0.00    -0.067 A  
HETATM   30  C   UNL     1     -10.310  13.152  64.751  1.00  0.00    -0.369 A  
ENDBRANCH  24  25
BRANCH  24  31
HETATM   31  C   UNL     1      -9.770  17.362  67.003  1.00  0.00    -0.276 A  
HETATM   32  C   UNL     1      -8.577  19.864  66.524  1.00  0.00    -0.390 A  
HETATM   33  C   UNL     1      -9.833  19.793  67.120  1.00  0.00    -0.513 A  
HETATM   34  C   UNL     1      -8.511  17.453  66.382  1.00  0.00    -0.292 A  
HETATM   35  C   UNL     1     -10.424  18.552  67.362  1.00  0.00    -0.455 A  
HETATM   36  C   UNL     1      -7.916  18.695  66.153  1.00  0.00    -0.229 A  
ENDBRANCH  24  31
ENDBRANCH  21  24
ENDBRANCH  17  18
ENDBRANCH  16  17
ENDBRANCH  15  16
ENDBRANCH  13  15
ENDBRANCH  11  13
BRANCH  12  37
HETATM   37  C   UNL     1     -10.067   9.478  69.827  1.00  0.00    -0.238 A  
HETATM   38  C   UNL     1     -10.273   8.960  67.461  1.00  0.00    -0.309 A  
HETATM   39  O   UNL     1      -7.354  12.444  68.791  1.00  0.00    -0.108 OA 
HETATM   40  C   UNL     1      -9.136  10.489  69.511  1.00  0.00    -0.063 A  
HETATM   41  O   UNL     1      -7.545  11.967  66.659  1.00  0.00    -0.048 OA 
HETATM   42  C   UNL     1      -8.788  10.725  68.175  1.00  0.00    -0.133 A  
HETATM   43  C   UNL     1      -9.362   9.970  67.146  1.00  0.00    -0.173 A  
HETATM   44  N   UNL     1      -7.827  11.790  67.853  1.00  0.00    -0.126 N  
HETATM   45  C   UNL     1     -10.614   8.708  68.791  1.00  0.00    -0.169 A  
ENDBRANCH  12  37
ENDBRANCH   3   5
ENDBRANCH   2   3
TORSDOF 11
ENDMDL
MODEL       86
REMARK 921   NORMALIZED FREE ENERGY PREDICTED BY IDOCK:   -4.81 KCAL/MOL
REMARK 922        TOTAL FREE ENERGY PREDICTED BY IDOCK:   -9.76 KCAL/MOL
REMARK 923 INTER-LIGAND FREE ENERGY PREDICTED BY IDOCK:   -7.99 KCAL/MOL
REMARK 924 INTRA-LIGAND FREE ENERGY PREDICTED BY IDOCK:   -1.77 KCAL/MOL
REMARK 927      BINDING AFFINITY PREDICTED BY RF-SCORE:    0.00 PKD
ROOT
HETATM    1  C   UNL     1      -6.566   1.796  71.424  1.00  0.00    -0.019 C  
HETATM    2  O   UNL     1      -7.228   2.698  70.533  1.00  0.00    -0.033 OA 
ENDROOT
BRANCH   2   3
HETATM    3  C   UNL     1      -8.293   3.325  71.094  1.00  0.00    -0.066 C  
HETATM    4  O   UNL     1      -9.463   3.028  70.893  1.00  0.00    -0.140 OA 
BRANCH   3   5
HETATM    5  C   UNL     1      -7.844   4.450  71.955  1.00  0.00    -0.090 C  
HETATM    6  C   UNL     1      -8.198   4.522  73.266  1.00  0.00    -0.099 C  
HETATM    7  N   UNL     1      -7.798   5.612  74.025  1.00  0.00    -0.100 NA 
HETATM    8  C   UNL     1      -9.023   3.525  74.039  1.00  0.00    -0.090 C  
HETATM    9  C   UNL     1      -7.226   6.756  73.512  1.00  0.00    -0.079 C  
HETATM   10  C   UNL     1      -7.121   7.929  74.460  1.00  0.00    -0.172 C  
HETATM   11  C   UNL     1      -6.826   6.779  72.221  1.00  0.00    -0.063 C  
HETATM   12  C   UNL     1      -6.998   5.558  71.310  1.00  0.00    -0.066 C  
BRANCH  11  13
HETATM   13  C   UNL     1      -6.357   8.051  71.633  1.00  0.00    -0.041 C  
HETATM   14  O   UNL     1      -5.215   8.232  71.235  1.00  0.00    -0.029 OA 
BRANCH  13  15
HETATM   15  O   UNL     1      -7.347   8.982  71.623  1.00  0.00    -0.276 OA 
BRANCH  15  16
HETATM   16  C   UNL     1      -7.158   9.995  70.613  1.00  0.00     0.021 C  
BRANCH  16  17
HETATM   17  C   UNL     1      -8.261   9.865  69.549  1.00  0.00    -0.158 C  
BRANCH  17  18
HETATM   18  N   UNL     1      -8.040  10.589  68.286  1.00  0.00    -0.111 NA 
HETATM   19  C   UNL     1     -10.462  11.173  67.713  1.00  0.00    -0.193 C  
HETATM   20  C   UNL     1      -9.158  10.427  67.329  1.00  0.00    -0.135 C  
HETATM   21  N   UNL     1     -10.286  12.631  67.928  1.00  0.00    -0.215 NA 
HETATM   22  C   UNL     1      -7.874  12.036  68.578  1.00  0.00    -0.129 C  
HETATM   23  C   UNL     1      -9.190  12.787  68.922  1.00  0.00     0.316 C  
BRANCH  21  24
HETATM   24  C   UNL     1     -10.000  13.353  66.650  1.00  0.00    -0.277 C  
BRANCH  24  25
HETATM   25  C   UNL     1     -10.810  12.818  65.456  1.00  0.00    -0.301 A  
HETATM   26  C   UNL     1     -12.213  12.943  65.454  1.00  0.00    -0.528 A  
HETATM   27  C   UNL     1     -10.202  12.245  64.327  1.00  0.00    -0.356 A  
HETATM   28  C   UNL     1     -12.976  12.502  64.369  1.00  0.00    -0.248 A  
HETATM   29  C   UNL     1     -12.354  11.915  63.271  1.00  0.00    -0.508 A  
HETATM   30  C   UNL     1     -10.968  11.784  63.252  1.00  0.00    -0.387 A  
ENDBRANCH  24  25
BRANCH  24  31
HETATM   31  C   UNL     1     -10.114  14.878  66.804  1.00  0.00    -0.254 A  
HETATM   32  C   UNL     1     -10.080  17.656  67.245  1.00  0.00    -0.331 A  
HETATM   33  C   UNL     1     -10.968  16.849  67.951  1.00  0.00    -0.251 A  
HETATM   34  C   UNL     1      -9.239  15.712  66.084  1.00  0.00    -0.378 A  
HETATM   35  C   UNL     1     -10.982  15.469  67.737  1.00  0.00    -0.317 A  
HETATM   36  C   UNL     1      -9.217  17.088  66.311  1.00  0.00    -0.278 A  
ENDBRANCH  24  31
ENDBRANCH  21  24
ENDBRANCH  17  18
ENDBRANCH  16  17
ENDBRANCH  15  16
ENDBRANCH  13  15
ENDBRANCH  11  13
BRANCH  12  37
HETATM   37  C   UNL     1      -7.523   5.982  69.929  1.00  0.00    -0.080 A  
HETATM   38  C   UNL     1      -7.152   6.443  67.571  1.00  0.00    -0.080 A  
HETATM   39  O   UNL     1     -11.595   6.339  69.207  1.00  0.00    -0.363 OA 
HETATM   40  C   UNL     1      -8.912   6.103  69.720  1.00  0.00    -0.138 A  
HETATM   41  O   UNL     1     -11.249   6.756  67.082  1.00  0.00    -0.379 OA 
HETATM   42  C   UNL     1      -9.404   6.389  68.441  1.00  0.00    -0.121 A  
HETATM   43  C   UNL     1      -8.528   6.550  67.361  1.00  0.00    -0.119 A  
HETATM   44  N   UNL     1     -10.855   6.501  68.229  1.00  0.00    -0.276 N  
HETATM   45  C   UNL     1      -6.652   6.173  68.847  1.00  0.00    -0.051 A  
ENDBRANCH  12  37
ENDBRANCH   3   5
ENDBRANCH   2   3
TORSDOF 11
ENDMDL
MODEL       87
REMARK 921   NORMALIZED FREE ENERGY PREDICTED BY IDOCK:   -4.76 KCAL/MOL
REMARK 922        TOTAL FREE ENERGY PREDICTED BY IDOCK:   -9.69 KCAL/MOL
REMARK 923 INTER-LIGAND FREE ENERGY PREDICTED BY IDOCK:   -9.01 KCAL/MOL
REMARK 924 INTRA-LIGAND FREE ENERGY PREDICTED BY IDOCK:   -0.68 KCAL/MOL
REMARK 927      BINDING AFFINITY PREDICTED BY RF-SCORE:    0.00 PKD
ROOT
HETATM    1  C   UNL     1     -10.761   4.256  64.880  1.00  0.00    -0.108 C  
HETATM    2  O   UNL     1     -10.434   4.957  66.084  1.00  0.00    -0.283 OA 
ENDROOT
BRANCH   2   3
HETATM    3  C   UNL     1      -9.116   4.892  66.403  1.00  0.00    -0.127 C  
HETATM    4  O   UNL     1      -8.445   3.869  66.391  1.00  0.00    -0.107 OA 
BRANCH   3   5
HETATM    5  C   UNL     1      -8.610   6.228  66.813  1.00  0.00    -0.116 C  
HETATM    6  C   UNL     1      -7.739   6.922  66.033  1.00  0.00    -0.096 C  
HETATM    7  N   UNL     1      -7.253   8.145  66.471  1.00  0.00    -0.079 NA 
HETATM    8  C   UNL     1      -7.193   6.508  64.690  1.00  0.00    -0.064 C  
HETATM    9  C   UNL     1      -7.422   8.646  67.744  1.00  0.00    -0.097 C  
HETATM   10  C   UNL     1      -6.586   9.853  68.101  1.00  0.00    -0.056 C  
HETATM   11  C   UNL     1      -8.280   8.034  68.591  1.00  0.00    -0.126 C  
HETATM   12  C   UNL     1      -9.069   6.790  68.167  1.00  0.00    -0.123 C  
BRANCH  11  13
HETATM   13  C   UNL     1      -8.345   8.477  69.999  1.00  0.00    -0.123 C  
HETATM   14  O   UNL     1      -7.746   7.924  70.911  1.00  0.00    -0.079 OA 
BRANCH  13  15
HETATM   15  O   UNL     1      -9.169   9.549  70.139  1.00  0.00    -0.211 OA 
BRANCH  15  16
HETATM   16  C   UNL     1     -10.566   9.199  70.066  1.00  0.00    -0.227 C  
BRANCH  16  17
HETATM   17  C   UNL     1     -11.412  10.365  70.605  1.00  0.00    -0.349 C  
BRANCH  17  18
HETATM   18  N   UNL     1     -12.234  11.087  69.619  1.00  0.00    -0.329 NA 
HETATM   19  C   UNL     1     -10.966  13.306  69.567  1.00  0.00     0.068 C  
HETATM   20  C   UNL     1     -12.283  12.545  69.871  1.00  0.00    -0.163 C  
HETATM   21  N   UNL     1     -10.466  13.123  68.181  1.00  0.00    -0.241 NA 
HETATM   22  C   UNL     1     -11.676  10.860  68.261  1.00  0.00    -0.184 C  
HETATM   23  C   UNL     1     -10.380  11.657  67.948  1.00  0.00    -0.188 C  
BRANCH  21  24
HETATM   24  C   UNL     1     -11.340  13.807  67.178  1.00  0.00    -0.324 C  
BRANCH  24  25
HETATM   25  C   UNL     1     -11.021  15.303  67.013  1.00  0.00    -0.324 A  
HETATM   26  C   UNL     1     -10.781  15.826  65.726  1.00  0.00    -0.337 A  
HETATM   27  C   UNL     1     -11.003  16.196  68.096  1.00  0.00    -0.341 A  
HETATM   28  C   UNL     1     -10.525  17.186  65.537  1.00  0.00    -0.158 A  
HETATM   29  C   UNL     1     -10.489  18.049  66.628  1.00  0.00    -0.332 A  
HETATM   30  C   UNL     1     -10.725  17.553  67.908  1.00  0.00    -0.340 A  
ENDBRANCH  24  25
BRANCH  24  31
HETATM   31  C   UNL     1     -11.381  13.061  65.836  1.00  0.00    -0.344 A  
HETATM   32  C   UNL     1     -11.392  11.947  63.253  1.00  0.00    -0.373 A  
HETATM   33  C   UNL     1     -12.594  12.212  63.902  1.00  0.00    -0.545 A  
HETATM   34  C   UNL     1     -10.176  12.766  65.173  1.00  0.00    -0.297 A  
HETATM   35  C   UNL     1     -12.591  12.769  65.182  1.00  0.00    -0.513 A  
HETATM   36  C   UNL     1     -10.183  12.222  63.887  1.00  0.00    -0.421 A  
ENDBRANCH  24  31
ENDBRANCH  21  24
ENDBRANCH  17  18
ENDBRANCH  16  17
ENDBRANCH  15  16
ENDBRANCH  13  15
ENDBRANCH  11  13
BRANCH  12  37
HETATM   37  C   UNL     1      -9.058   5.734  69.284  1.00  0.00    -0.128 A  
HETATM   38  C   UNL     1     -10.228   4.368  70.920  1.00  0.00    -0.112 A  
HETATM   39  O   UNL     1      -5.629   3.552  70.132  1.00  0.00    -0.015 OA 
HETATM   40  C   UNL     1      -7.874   5.017  69.553  1.00  0.00    -0.068 A  
HETATM   41  O   UNL     1      -6.694   2.327  71.608  1.00  0.00    -0.018 OA 
HETATM   42  C   UNL     1      -7.881   3.984  70.498  1.00  0.00    -0.051 A  
HETATM   43  C   UNL     1      -9.058   3.650  71.177  1.00  0.00    -0.177 A  
HETATM   44  N   UNL     1      -6.645   3.233  70.764  1.00  0.00    -0.031 N  
HETATM   45  C   UNL     1     -10.225   5.409  69.990  1.00  0.00    -0.349 A  
ENDBRANCH  12  37
ENDBRANCH   3   5
ENDBRANCH   2   3
TORSDOF 11
ENDMDL
MODEL       88
REMARK 921   NORMALIZED FREE ENERGY PREDICTED BY IDOCK:   -4.72 KCAL/MOL
REMARK 922        TOTAL FREE ENERGY PREDICTED BY IDOCK:   -9.61 KCAL/MOL
REMARK 923 INTER-LIGAND FREE ENERGY PREDICTED BY IDOCK:   -7.26 KCAL/MOL
REMARK 924 INTRA-LIGAND FREE ENERGY PREDICTED BY IDOCK:   -2.35 KCAL/MOL
REMARK 927      BINDING AFFINITY PREDICTED BY RF-SCORE:    0.00 PKD
ROOT
HETATM    1  C   UNL     1     -12.730  14.316  66.036  1.00  0.00    -0.211 C  
HETATM    2  O   UNL     1     -11.594  15.163  66.229  1.00  0.00    -0.234 OA 
ENDROOT
BRANCH   2   3
HETATM    3  C   UNL     1     -11.282  15.356  67.536  1.00  0.00    -0.302 C  
HETATM    4  O   UNL     1     -12.099  15.455  68.441  1.00  0.00    -0.223 OA 
BRANCH   3   5
HETATM    5  C   UNL     1      -9.810  15.473  67.712  1.00  0.00    -0.213 C  
HETATM    6  C   UNL     1      -9.148  16.614  67.385  1.00  0.00    -0.201 C  
HETATM    7  N   UNL     1      -7.769  16.668  67.521  1.00  0.00    -0.160 NA 
HETATM    8  C   UNL     1      -9.748  17.891  66.855  1.00  0.00    -0.309 C  
HETATM    9  C   UNL     1      -6.962  15.579  67.776  1.00  0.00    -0.164 C  
HETATM   10  C   UNL     1      -5.477  15.799  67.610  1.00  0.00    -0.127 C  
HETATM   11  C   UNL     1      -7.527  14.401  68.125  1.00  0.00    -0.128 C  
HETATM   12  C   UNL     1      -9.048  14.248  68.240  1.00  0.00    -0.188 C  
BRANCH  11  13
HETATM   13  C   UNL     1      -6.674  13.201  68.248  1.00  0.00    -0.101 C  
HETATM   14  O   UNL     1      -6.397  12.674  69.316  1.00  0.00    -0.097 OA 
BRANCH  13  15
HETATM   15  O   UNL     1      -6.227  12.790  67.032  1.00  0.00    -0.252 OA 
BRANCH  15  16
HETATM   16  C   UNL     1      -5.552  11.516  67.080  1.00  0.00    -0.099 C  
BRANCH  16  17
HETATM   17  C   UNL     1      -5.646  10.837  65.704  1.00  0.00    -0.135 C  
BRANCH  17  18
HETATM   18  N   UNL     1      -6.922  10.173  65.387  1.00  0.00    -0.134 NA 
HETATM   19  C   UNL     1      -6.026   7.931  64.546  1.00  0.00    -0.048 C  
HETATM   20  C   UNL     1      -6.813   9.234  64.248  1.00  0.00    -0.090 C  
HETATM   21  N   UNL     1      -6.553   7.155  65.697  1.00  0.00    -0.050 NA 
HETATM   22  C   UNL     1      -7.386   9.418  66.580  1.00  0.00    -0.093 C  
HETATM   23  C   UNL     1      -6.620   8.093  66.849  1.00  0.00    -0.057 C  
BRANCH  21  24
HETATM   24  C   UNL     1      -7.879   6.534  65.391  1.00  0.00    -0.106 C  
BRANCH  24  25
HETATM   25  C   UNL     1      -7.772   5.273  64.516  1.00  0.00    -0.093 A  
HETATM   26  C   UNL     1      -8.893   4.840  63.780  1.00  0.00    -0.106 A  
HETATM   27  C   UNL     1      -6.577   4.550  64.376  1.00  0.00    -0.043 A  
HETATM   28  C   UNL     1      -8.819   3.721  62.945  1.00  0.00    -0.098 A  
HETATM   29  C   UNL     1      -7.631   3.005  62.841  1.00  0.00    -0.055 A  
HETATM   30  C   UNL     1      -6.511   3.418  63.558  1.00  0.00    -0.029 A  
ENDBRANCH  24  25
BRANCH  24  31
HETATM   31  C   UNL     1      -8.720   6.305  66.656  1.00  0.00    -0.126 A  
HETATM   32  C   UNL     1     -10.360   5.644  68.844  1.00  0.00    -0.295 A  
HETATM   33  C   UNL     1     -10.743   6.654  67.966  1.00  0.00    -0.330 A  
HETATM   34  C   UNL     1      -8.339   5.302  67.567  1.00  0.00    -0.106 A  
HETATM   35  C   UNL     1      -9.933   6.979  66.877  1.00  0.00    -0.283 A  
HETATM   36  C   UNL     1      -9.158   4.969  68.646  1.00  0.00    -0.139 A  
ENDBRANCH  24  31
ENDBRANCH  21  24
ENDBRANCH  17  18
ENDBRANCH  16  17
ENDBRANCH  15  16
ENDBRANCH  13  15
ENDBRANCH  11  13
BRANCH  12  37
HETATM   37  C   UNL     1      -9.510  12.933  67.590  1.00  0.00    -0.197 A  
HETATM   38  C   UNL     1     -10.534  10.734  67.755  1.00  0.00    -0.243 A  
HETATM   39  O   UNL     1      -9.576  12.493  63.463  1.00  0.00    -0.171 OA 
HETATM   40  C   UNL     1      -9.511  12.813  66.186  1.00  0.00    -0.169 A  
HETATM   41  O   UNL     1     -10.497  10.509  63.623  1.00  0.00    -0.102 OA 
HETATM   42  C   UNL     1     -10.025  11.658  65.583  1.00  0.00    -0.240 A  
HETATM   43  C   UNL     1     -10.547  10.621  66.364  1.00  0.00    -0.240 A  
HETATM   44  N   UNL     1     -10.034  11.547  64.117  1.00  0.00    -0.268 N  
HETATM   45  C   UNL     1     -10.009  11.876  68.365  1.00  0.00    -0.203 A  
ENDBRANCH  12  37
ENDBRANCH   3   5
ENDBRANCH   2   3
TORSDOF 11
ENDMDL
MODEL       89
REMARK 921   NORMALIZED FREE ENERGY PREDICTED BY IDOCK:   -4.71 KCAL/MOL
REMARK 922        TOTAL FREE ENERGY PREDICTED BY IDOCK:   -9.60 KCAL/MOL
REMARK 923 INTER-LIGAND FREE ENERGY PREDICTED BY IDOCK:   -7.84 KCAL/MOL
REMARK 924 INTRA-LIGAND FREE ENERGY PREDICTED BY IDOCK:   -1.75 KCAL/MOL
REMARK 927      BINDING AFFINITY PREDICTED BY RF-SCORE:    0.00 PKD
ROOT
HETATM    1  C   UNL     1     -11.900  15.712  68.639  1.00  0.00    -0.291 C  
HETATM    2  O   UNL     1     -11.951  14.340  69.039  1.00  0.00    -0.319 OA 
ENDROOT
BRANCH   2   3
HETATM    3  C   UNL     1     -11.860  13.472  68.000  1.00  0.00    -0.365 C  
HETATM    4  O   UNL     1     -12.569  13.501  67.002  1.00  0.00    -0.161 OA 
BRANCH   3   5
HETATM    5  C   UNL     1     -10.809  12.453  68.257  1.00  0.00    -0.264 C  
HETATM    6  C   UNL     1     -10.939  11.542  69.257  1.00  0.00    -0.208 C  
HETATM    7  N   UNL     1      -9.916  10.636  69.496  1.00  0.00    -0.161 NA 
HETATM    8  C   UNL     1     -12.106  11.387  70.199  1.00  0.00    -0.439 C  
HETATM    9  C   UNL     1      -8.662  10.702  68.927  1.00  0.00    -0.161 C  
HETATM   10  C   UNL     1      -7.612   9.795  69.524  1.00  0.00    -0.114 C  
HETATM   11  C   UNL     1      -8.437  11.567  67.913  1.00  0.00    -0.142 C  
HETATM   12  C   UNL     1      -9.547  12.482  67.383  1.00  0.00    -0.192 C  
BRANCH  11  13
HETATM   13  C   UNL     1      -7.059  11.746  67.409  1.00  0.00    -0.126 C  
HETATM   14  O   UNL     1      -6.151  12.221  68.075  1.00  0.00    -0.057 OA 
BRANCH  13  15
HETATM   15  O   UNL     1      -6.953  11.341  66.116  1.00  0.00    -0.063 OA 
BRANCH  15  16
HETATM   16  C   UNL     1      -5.713  10.659  65.838  1.00  0.00    -0.132 C  
BRANCH  16  17
HETATM   17  C   UNL     1      -5.986   9.464  64.909  1.00  0.00    -0.066 C  
BRANCH  17  18
HETATM   18  N   UNL     1      -5.896   8.126  65.519  1.00  0.00    -0.041 NA 
HETATM   19  C   UNL     1      -8.243   7.968  66.521  1.00  0.00    -0.115 C  
HETATM   20  C   UNL     1      -6.709   8.001  66.750  1.00  0.00    -0.064 C  
HETATM   21  N   UNL     1      -8.694   6.900  65.593  1.00  0.00    -0.117 NA 
HETATM   22  C   UNL     1      -6.364   7.113  64.538  1.00  0.00    -0.037 C  
HETATM   23  C   UNL     1      -7.904   7.058  64.344  1.00  0.00    -0.111 C  
BRANCH  21  24
HETATM   24  C   UNL     1      -8.543   5.539  66.194  1.00  0.00    -0.129 C  
BRANCH  24  25
HETATM   25  C   UNL     1      -9.252   5.392  67.552  1.00  0.00    -0.114 A  
HETATM   26  C   UNL     1     -10.339   6.232  67.865  1.00  0.00    -0.239 A  
HETATM   27  C   UNL     1      -8.890   4.412  68.490  1.00  0.00    -0.133 A  
HETATM   28  C   UNL     1     -11.029   6.100  69.073  1.00  0.00    -0.436 A  
HETATM   29  C   UNL     1     -10.637   5.137  69.999  1.00  0.00    -0.219 A  
HETATM   30  C   UNL     1      -9.567   4.295  69.709  1.00  0.00    -0.279 A  
ENDBRANCH  24  25
BRANCH  24  31
HETATM   31  C   UNL     1      -8.919   4.422  65.209  1.00  0.00    -0.140 A  
HETATM   32  C   UNL     1      -9.739   2.246  63.626  1.00  0.00    -0.127 A  
HETATM   33  C   UNL     1      -8.416   2.340  64.049  1.00  0.00    -0.082 A  
HETATM   34  C   UNL     1     -10.246   4.321  64.753  1.00  0.00    -0.163 A  
HETATM   35  C   UNL     1      -8.009   3.417  64.839  1.00  0.00    -0.089 A  
HETATM   36  C   UNL     1     -10.654   3.236  63.975  1.00  0.00    -0.166 A  
ENDBRANCH  24  31
ENDBRANCH  21  24
ENDBRANCH  17  18
ENDBRANCH  16  17
ENDBRANCH  15  16
ENDBRANCH  13  15
ENDBRANCH  11  13
BRANCH  12  37
HETATM   37  C   UNL     1      -9.013  13.906  67.156  1.00  0.00    -0.242 A  
HETATM   38  C   UNL     1      -8.957  15.967  65.867  1.00  0.00    -0.256 A  
HETATM   39  O   UNL     1      -6.736  15.825  70.047  1.00  0.00    -0.122 OA 
HETATM   40  C   UNL     1      -8.234  14.525  68.154  1.00  0.00    -0.146 A  
HETATM   41  O   UNL     1      -6.690  17.679  68.876  1.00  0.00    -0.216 OA 
HETATM   42  C   UNL     1      -7.829  15.857  68.000  1.00  0.00    -0.136 A  
HETATM   43  C   UNL     1      -8.198  16.585  66.862  1.00  0.00    -0.250 A  
HETATM   44  N   UNL     1      -7.028  16.500  69.052  1.00  0.00    -0.196 N  
HETATM   45  C   UNL     1      -9.353  14.635  66.006  1.00  0.00    -0.216 A  
ENDBRANCH  12  37
ENDBRANCH   3   5
ENDBRANCH   2   3
TORSDOF 11
ENDMDL
MODEL       90
REMARK 921   NORMALIZED FREE ENERGY PREDICTED BY IDOCK:   -4.67 KCAL/MOL
REMARK 922        TOTAL FREE ENERGY PREDICTED BY IDOCK:   -9.54 KCAL/MOL
REMARK 923 INTER-LIGAND FREE ENERGY PREDICTED BY IDOCK:   -8.59 KCAL/MOL
REMARK 924 INTRA-LIGAND FREE ENERGY PREDICTED BY IDOCK:   -0.94 KCAL/MOL
REMARK 927      BINDING AFFINITY PREDICTED BY RF-SCORE:    0.00 PKD
ROOT
HETATM    1  C   UNL     1      -8.843  16.234  68.905  1.00  0.00    -0.253 C  
HETATM    2  O   UNL     1      -8.863  15.068  68.076  1.00  0.00    -0.159 OA 
ENDROOT
BRANCH   2   3
HETATM    3  C   UNL     1     -10.105  14.740  67.638  1.00  0.00    -0.227 C  
HETATM    4  O   UNL     1     -11.148  15.062  68.192  1.00  0.00    -0.268 OA 
BRANCH   3   5
HETATM    5  C   UNL     1     -10.025  13.900  66.414  1.00  0.00    -0.303 C  
HETATM    6  C   UNL     1     -10.417  14.376  65.203  1.00  0.00    -0.415 C  
HETATM    7  N   UNL     1     -10.370  13.546  64.093  1.00  0.00    -0.276 NA 
HETATM    8  C   UNL     1     -10.936  15.758  64.896  1.00  0.00    -0.443 C  
HETATM    9  C   UNL     1     -10.142  12.187  64.139  1.00  0.00    -0.308 C  
HETATM   10  C   UNL     1     -10.407  11.426  62.861  1.00  0.00    -0.159 C  
HETATM   11  C   UNL     1      -9.734  11.620  65.296  1.00  0.00    -0.255 C  
HETATM   12  C   UNL     1      -9.520  12.457  66.563  1.00  0.00    -0.242 C  
BRANCH  11  13
HETATM   13  C   UNL     1      -9.640  10.148  65.385  1.00  0.00    -0.264 C  
HETATM   14  O   UNL     1     -10.527   9.440  65.838  1.00  0.00    -0.080 OA 
BRANCH  13  15
HETATM   15  O   UNL     1      -8.440   9.705  64.927  1.00  0.00    -0.132 OA 
BRANCH  15  16
HETATM   16  C   UNL     1      -7.874   8.661  65.746  1.00  0.00    -0.100 C  
BRANCH  16  17
HETATM   17  C   UNL     1      -8.122   7.299  65.078  1.00  0.00    -0.120 C  
BRANCH  17  18
HETATM   18  N   UNL     1      -8.051   6.117  65.954  1.00  0.00    -0.115 NA 
HETATM   19  C   UNL     1      -7.997   7.288  68.226  1.00  0.00    -0.124 C  
HETATM   20  C   UNL     1      -7.287   6.369  67.197  1.00  0.00    -0.083 C  
HETATM   21  N   UNL     1      -9.344   6.813  68.635  1.00  0.00    -0.132 NA 
HETATM   22  C   UNL     1      -9.429   5.702  66.322  1.00  0.00    -0.155 C  
HETATM   23  C   UNL     1     -10.119   6.602  67.384  1.00  0.00    -0.164 C  
BRANCH  21  24
HETATM   24  C   UNL     1      -9.269   5.577  69.473  1.00  0.00    -0.121 C  
BRANCH  24  25
HETATM   25  C   UNL     1      -7.867   5.321  70.055  1.00  0.00    -0.080 A  
HETATM   26  C   UNL     1      -7.297   6.260  70.937  1.00  0.00    -0.080 A  
HETATM   27  C   UNL     1      -7.138   4.153  69.780  1.00  0.00    -0.042 A  
HETATM   28  C   UNL     1      -6.043   6.040  71.513  1.00  0.00    -0.035 A  
HETATM   29  C   UNL     1      -5.327   4.887  71.208  1.00  0.00    -0.004 A  
HETATM   30  C   UNL     1      -5.873   3.945  70.340  1.00  0.00    -0.017 A  
ENDBRANCH  24  25
BRANCH  24  31
HETATM   31  C   UNL     1     -10.369   5.533  70.545  1.00  0.00    -0.342 A  
HETATM   32  C   UNL     1     -12.253   5.678  72.628  1.00  0.00     0.048 A  
HETATM   33  C   UNL     1     -11.268   4.695  72.647  1.00  0.00    -0.091 A  
HETATM   34  C   UNL     1     -11.385   6.506  70.532  1.00  0.00    -0.426 A  
HETATM   35  C   UNL     1     -10.330   4.624  71.616  1.00  0.00    -0.189 A  
HETATM   36  C   UNL     1     -12.313   6.583  71.571  1.00  0.00    -0.282 A  
ENDBRANCH  24  31
ENDBRANCH  21  24
ENDBRANCH  17  18
ENDBRANCH  16  17
ENDBRANCH  15  16
ENDBRANCH  13  15
ENDBRANCH  11  13
BRANCH  12  37
HETATM   37  C   UNL     1     -10.111  11.743  67.790  1.00  0.00    -0.199 A  
HETATM   38  C   UNL     1     -12.024  10.907  69.037  1.00  0.00    -0.322 A  
HETATM   39  O   UNL     1      -7.666   9.773  70.504  1.00  0.00    -0.207 OA 
HETATM   40  C   UNL     1      -9.252  11.091  68.698  1.00  0.00    -0.186 A  
HETATM   41  O   UNL     1      -9.397   9.026  71.624  1.00  0.00    -0.265 OA 
HETATM   42  C   UNL     1      -9.787  10.354  69.761  1.00  0.00    -0.091 A  
HETATM   43  C   UNL     1     -11.172  10.250  69.928  1.00  0.00    -0.360 A  
HETATM   44  N   UNL     1      -8.884   9.667  70.696  1.00  0.00    -0.138 N  
HETATM   45  C   UNL     1     -11.498  11.656  67.983  1.00  0.00    -0.385 A  
ENDBRANCH  12  37
ENDBRANCH   3   5
ENDBRANCH   2   3
TORSDOF 11
ENDMDL
MODEL       91
REMARK 921   NORMALIZED FREE ENERGY PREDICTED BY IDOCK:   -4.67 KCAL/MOL
REMARK 922        TOTAL FREE ENERGY PREDICTED BY IDOCK:   -9.53 KCAL/MOL
REMARK 923 INTER-LIGAND FREE ENERGY PREDICTED BY IDOCK:   -8.72 KCAL/MOL
REMARK 924 INTRA-LIGAND FREE ENERGY PREDICTED BY IDOCK:   -0.81 KCAL/MOL
REMARK 927      BINDING AFFINITY PREDICTED BY RF-SCORE:    0.00 PKD
ROOT
HETATM    1  C   UNL     1     -12.921  10.314  71.182  1.00  0.00    -0.409 C  
HETATM    2  O   UNL     1     -11.798  11.078  70.734  1.00  0.00    -0.329 OA 
ENDROOT
BRANCH   2   3
HETATM    3  C   UNL     1     -12.005  11.690  69.541  1.00  0.00    -0.317 C  
HETATM    4  O   UNL     1     -12.650  11.216  68.616  1.00  0.00    -0.318 OA 
BRANCH   3   5
HETATM    5  C   UNL     1     -11.304  13.001  69.496  1.00  0.00    -0.223 C  
HETATM    6  C   UNL     1     -11.746  14.063  70.219  1.00  0.00    -0.238 C  
HETATM    7  N   UNL     1     -11.092  15.282  70.115  1.00  0.00    -0.273 NA 
HETATM    8  C   UNL     1     -12.923  14.095  71.159  1.00  0.00    -0.419 C  
HETATM    9  C   UNL     1     -10.131  15.578  69.172  1.00  0.00    -0.239 C  
HETATM   10  C   UNL     1      -9.747  17.034  69.048  1.00  0.00    -0.216 C  
HETATM   11  C   UNL     1      -9.616  14.585  68.412  1.00  0.00    -0.213 C  
HETATM   12  C   UNL     1     -10.083  13.134  68.573  1.00  0.00    -0.203 C  
BRANCH  11  13
HETATM   13  C   UNL     1      -8.703  14.925  67.302  1.00  0.00    -0.207 C  
HETATM   14  O   UNL     1      -9.081  15.177  66.167  1.00  0.00    -0.295 OA 
BRANCH  13  15
HETATM   15  O   UNL     1      -7.406  14.893  67.706  1.00  0.00    -0.132 OA 
BRANCH  15  16
HETATM   16  C   UNL     1      -6.808  13.586  67.580  1.00  0.00    -0.170 C  
BRANCH  16  17
HETATM   17  C   UNL     1      -6.347  13.101  68.965  1.00  0.00    -0.099 C  
BRANCH  17  18
HETATM   18  N   UNL     1      -5.480  11.910  68.987  1.00  0.00    -0.050 NA 
HETATM   19  C   UNL     1      -7.079  10.255  70.100  1.00  0.00    -0.148 C  
HETATM   20  C   UNL     1      -5.739  11.034  70.152  1.00  0.00    -0.104 C  
HETATM   21  N   UNL     1      -7.248   9.419  68.884  1.00  0.00    -0.071 NA 
HETATM   22  C   UNL     1      -5.704  11.125  67.746  1.00  0.00    -0.043 C  
HETATM   23  C   UNL     1      -7.028  10.314  67.717  1.00  0.00    -0.083 C  
BRANCH  21  24
HETATM   24  C   UNL     1      -6.322   8.244  68.882  1.00  0.00    -0.044 C  
BRANCH  24  25
HETATM   25  C   UNL     1      -6.463   7.358  70.132  1.00  0.00    -0.035 A  
HETATM   26  C   UNL     1      -5.551   7.505  71.196  1.00  0.00    -0.034 A  
HETATM   27  C   UNL     1      -7.502   6.426  70.285  1.00  0.00    -0.094 A  
HETATM   28  C   UNL     1      -5.672   6.743  72.361  1.00  0.00    -0.038 A  
HETATM   29  C   UNL     1      -6.696   5.808  72.481  1.00  0.00    -0.069 A  
HETATM   30  C   UNL     1      -7.609   5.648  71.442  1.00  0.00    -0.104 A  
ENDBRANCH  24  25
BRANCH  24  31
HETATM   31  C   UNL     1      -6.405   7.440  67.576  1.00  0.00    -0.052 A  
HETATM   32  C   UNL     1      -6.550   6.221  65.045  1.00  0.00    -0.039 A  
HETATM   33  C   UNL     1      -7.691   6.318  65.838  1.00  0.00    -0.093 A  
HETATM   34  C   UNL     1      -5.259   7.313  66.769  1.00  0.00    -0.022 A  
HETATM   35  C   UNL     1      -7.621   6.927  67.092  1.00  0.00    -0.107 A  
HETATM   36  C   UNL     1      -5.335   6.717  65.510  1.00  0.00    -0.025 A  
ENDBRANCH  24  31
ENDBRANCH  21  24
ENDBRANCH  17  18
ENDBRANCH  16  17
ENDBRANCH  15  16
ENDBRANCH  13  15
ENDBRANCH  11  13
BRANCH  12  37
HETATM   37  C   UNL     1     -10.300  12.479  67.200  1.00  0.00    -0.230 A  
HETATM   38  C   UNL     1      -9.994  10.614  65.669  1.00  0.00    -0.327 A  
HETATM   39  O   UNL     1     -12.907  14.136  64.427  1.00  0.00    -0.626 OA 
HETATM   40  C   UNL     1     -11.185  13.073  66.277  1.00  0.00    -0.332 A  
HETATM   41  O   UNL     1     -12.622  12.450  63.052  1.00  0.00    -0.455 OA 
HETATM   42  C   UNL     1     -11.466  12.430  65.065  1.00  0.00    -0.332 A  
HETATM   43  C   UNL     1     -10.881  11.196  64.762  1.00  0.00    -0.277 A  
HETATM   44  N   UNL     1     -12.400  13.050  64.114  1.00  0.00    -0.372 N  
HETATM   45  C   UNL     1      -9.696  11.255  66.874  1.00  0.00    -0.215 A  
ENDBRANCH  12  37
ENDBRANCH   3   5
ENDBRANCH   2   3
TORSDOF 11
ENDMDL
MODEL       92
REMARK 921   NORMALIZED FREE ENERGY PREDICTED BY IDOCK:   -4.64 KCAL/MOL
REMARK 922        TOTAL FREE ENERGY PREDICTED BY IDOCK:   -9.49 KCAL/MOL
REMARK 923 INTER-LIGAND FREE ENERGY PREDICTED BY IDOCK:   -7.68 KCAL/MOL
REMARK 924 INTRA-LIGAND FREE ENERGY PREDICTED BY IDOCK:   -1.80 KCAL/MOL
REMARK 927      BINDING AFFINITY PREDICTED BY RF-SCORE:    0.00 PKD
ROOT
HETATM    1  C   UNL     1      -9.391  20.453  68.084  1.00  0.00    -0.019 C  
HETATM    2  O   UNL     1      -9.734  19.075  67.916  1.00  0.00    -0.303 OA 
ENDROOT
BRANCH   2   3
HETATM    3  C   UNL     1      -8.920  18.419  67.050  1.00  0.00    -0.275 C  
HETATM    4  O   UNL     1      -7.712  18.592  66.960  1.00  0.00    -0.222 OA 
BRANCH   3   5
HETATM    5  C   UNL     1      -9.705  17.491  66.194  1.00  0.00    -0.225 C  
HETATM    6  C   UNL     1     -10.650  17.953  65.333  1.00  0.00     0.116 C  
HETATM    7  N   UNL     1     -11.394  17.052  64.585  1.00  0.00    -0.865 NA 
HETATM    8  C   UNL     1     -11.024  19.391  65.082  1.00  0.00     0.603 C  
HETATM    9  C   UNL     1     -11.401  15.687  64.781  1.00  0.00    -0.343 C  
HETATM   10  C   UNL     1     -12.479  14.917  64.055  1.00  0.00     0.026 C  
HETATM   11  C   UNL     1     -10.488  15.130  65.609  1.00  0.00    -0.378 C  
HETATM   12  C   UNL     1      -9.445  15.984  66.338  1.00  0.00    -0.322 C  
BRANCH  11  13
HETATM   13  C   UNL     1     -10.594  13.693  65.937  1.00  0.00    -0.289 C  
HETATM   14  O   UNL     1     -11.523  13.209  66.568  1.00  0.00    -0.310 OA 
BRANCH  13  15
HETATM   15  O   UNL     1      -9.520  13.002  65.470  1.00  0.00    -0.029 OA 
BRANCH  15  16
HETATM   16  C   UNL     1      -9.875  11.726  64.899  1.00  0.00    -0.223 C  
BRANCH  16  17
HETATM   17  C   UNL     1      -9.204  10.603  65.706  1.00  0.00    -0.189 C  
BRANCH  17  18
HETATM   18  N   UNL     1     -10.063   9.471  66.094  1.00  0.00    -0.281 NA 
HETATM   19  C   UNL     1      -8.299   7.955  67.155  1.00  0.00    -0.117 C  
HETATM   20  C   UNL     1      -9.358   8.171  66.041  1.00  0.00    -0.117 C  
HETATM   21  N   UNL     1      -8.831   8.103  68.533  1.00  0.00    -0.134 NA 
HETATM   22  C   UNL     1     -10.555   9.687  67.479  1.00  0.00    -0.277 C  
HETATM   23  C   UNL     1      -9.502   9.429  68.591  1.00  0.00    -0.146 C  
BRANCH  21  24
HETATM   24  C   UNL     1      -9.752   6.983  68.899  1.00  0.00    -0.144 C  
BRANCH  24  25
HETATM   25  C   UNL     1      -9.105   5.594  68.762  1.00  0.00    -0.126 A  
HETATM   26  C   UNL     1      -7.953   5.285  69.512  1.00  0.00    -0.088 A  
HETATM   27  C   UNL     1      -9.645   4.587  67.946  1.00  0.00    -0.208 A  
HETATM   28  C   UNL     1      -7.362   4.021  69.440  1.00  0.00    -0.053 A  
HETATM   29  C   UNL     1      -7.900   3.045  68.606  1.00  0.00    -0.060 A  
HETATM   30  C   UNL     1      -9.040   3.329  67.858  1.00  0.00    -0.213 A  
ENDBRANCH  24  25
BRANCH  24  31
HETATM   31  C   UNL     1     -10.409   7.195  70.272  1.00  0.00    -0.214 A  
HETATM   32  C   UNL     1     -11.750   7.808  72.667  1.00  0.00    -0.364 A  
HETATM   33  C   UNL     1     -10.407   8.143  72.516  1.00  0.00    -0.401 A  
HETATM   34  C   UNL     1     -11.760   6.845  70.452  1.00  0.00    -0.377 A  
HETATM   35  C   UNL     1      -9.742   7.843  71.325  1.00  0.00    -0.187 A  
HETATM   36  C   UNL     1     -12.426   7.158  71.638  1.00  0.00    -0.405 A  
ENDBRANCH  24  31
ENDBRANCH  21  24
ENDBRANCH  17  18
ENDBRANCH  16  17
ENDBRANCH  15  16
ENDBRANCH  13  15
ENDBRANCH  11  13
BRANCH  12  37
HETATM   37  C   UNL     1      -9.310  15.540  67.804  1.00  0.00    -0.195 A  
HETATM   38  C   UNL     1      -7.942  14.849  69.691  1.00  0.00    -0.010 A  
HETATM   39  O   UNL     1     -12.536  15.749  70.408  1.00  0.00    -0.402 OA 
HETATM   40  C   UNL     1     -10.428  15.615  68.659  1.00  0.00    -0.231 A  
HETATM   41  O   UNL     1     -11.294  15.123  72.103  1.00  0.00    -0.419 OA 
HETATM   42  C   UNL     1     -10.290  15.309  70.019  1.00  0.00    -0.221 A  
HETATM   43  C   UNL     1      -9.046  14.936  70.541  1.00  0.00     1.418 A  
HETATM   44  N   UNL     1     -11.458  15.402  70.907  1.00  0.00    -0.329 N  
HETATM   45  C   UNL     1      -8.075  15.137  68.331  1.00  0.00    -0.139 A  
ENDBRANCH  12  37
ENDBRANCH   3   5
ENDBRANCH   2   3
TORSDOF 11
ENDMDL
MODEL       93
REMARK 921   NORMALIZED FREE ENERGY PREDICTED BY IDOCK:   -4.63 KCAL/MOL
REMARK 922        TOTAL FREE ENERGY PREDICTED BY IDOCK:   -9.47 KCAL/MOL
REMARK 923 INTER-LIGAND FREE ENERGY PREDICTED BY IDOCK:   -9.82 KCAL/MOL
REMARK 924 INTRA-LIGAND FREE ENERGY PREDICTED BY IDOCK:    0.36 KCAL/MOL
REMARK 927      BINDING AFFINITY PREDICTED BY RF-SCORE:    0.00 PKD
ROOT
HETATM    1  C   UNL     1      -7.730  20.359  66.689  1.00  0.00    -0.229 C  
HETATM    2  O   UNL     1      -7.917  19.011  67.129  1.00  0.00    -0.250 OA 
ENDROOT
BRANCH   2   3
HETATM    3  C   UNL     1      -7.688  18.091  66.157  1.00  0.00    -0.231 C  
HETATM    4  O   UNL     1      -6.774  18.146  65.346  1.00  0.00    -0.437 OA 
BRANCH   3   5
HETATM    5  C   UNL     1      -8.727  17.028  66.187  1.00  0.00    -0.254 C  
HETATM    6  C   UNL     1     -10.039  17.317  65.978  1.00  0.00    -0.262 C  
HETATM    7  N   UNL     1     -10.984  16.304  66.060  1.00  0.00    -0.098 NA 
HETATM    8  C   UNL     1     -10.633  18.666  65.667  1.00  0.00    -0.171 C  
HETATM    9  C   UNL     1     -10.735  15.036  66.539  1.00  0.00    -0.312 C  
HETATM   10  C   UNL     1     -11.949  14.176  66.806  1.00  0.00    -0.475 C  
HETATM   11  C   UNL     1      -9.460  14.649  66.764  1.00  0.00    -0.275 C  
HETATM   12  C   UNL     1      -8.281  15.592  66.501  1.00  0.00    -0.227 C  
BRANCH  11  13
HETATM   13  C   UNL     1      -9.205  13.349  67.420  1.00  0.00    -0.213 C  
HETATM   14  O   UNL     1      -9.278  13.175  68.628  1.00  0.00    -0.109 OA 
BRANCH  13  15
HETATM   15  O   UNL     1      -8.859  12.400  66.511  1.00  0.00    -0.191 OA 
BRANCH  15  16
HETATM   16  C   UNL     1      -9.615  11.180  66.653  1.00  0.00    -0.190 C  
BRANCH  16  17
HETATM   17  C   UNL     1      -8.658   9.978  66.597  1.00  0.00    -0.125 C  
BRANCH  17  18
HETATM   18  N   UNL     1      -9.116   8.745  67.260  1.00  0.00    -0.131 NA 
HETATM   19  C   UNL     1      -8.356   9.253  69.648  1.00  0.00    -0.140 C  
HETATM   20  C   UNL     1      -8.249   8.348  68.393  1.00  0.00    -0.124 C  
HETATM   21  N   UNL     1      -9.734   9.385  70.184  1.00  0.00    -0.218 NA 
HETATM   22  C   UNL     1     -10.495   8.952  67.771  1.00  0.00    -0.239 C  
HETATM   23  C   UNL     1     -10.592   9.825  69.052  1.00  0.00    -0.219 C  
BRANCH  21  24
HETATM   24  C   UNL     1     -10.217   8.112  70.802  1.00  0.00    -0.194 C  
BRANCH  24  25
HETATM   25  C   UNL     1      -9.379   7.667  72.013  1.00  0.00    -0.182 A  
HETATM   26  C   UNL     1      -9.019   6.312  72.151  1.00  0.00    -0.137 A  
HETATM   27  C   UNL     1      -8.907   8.572  72.978  1.00  0.00    -0.124 A  
HETATM   28  C   UNL     1      -8.227   5.880  73.218  1.00  0.00    -0.116 A  
HETATM   29  C   UNL     1      -7.790   6.791  74.176  1.00  0.00    -0.115 A  
HETATM   30  C   UNL     1      -8.132   8.135  74.057  1.00  0.00    -0.312 A  
ENDBRANCH  24  25
BRANCH  24  31
HETATM   31  C   UNL     1     -11.723   8.147  71.107  1.00  0.00    -0.309 A  
HETATM   32  C   UNL     1     -14.407   8.213  71.947  1.00  0.00    -0.566 A  
HETATM   33  C   UNL     1     -13.851   7.024  71.484  1.00  0.00    -0.359 A  
HETATM   34  C   UNL     1     -12.308   9.345  71.557  1.00  0.00    -0.452 A  
HETATM   35  C   UNL     1     -12.517   6.988  71.072  1.00  0.00    -0.373 A  
HETATM   36  C   UNL     1     -13.637   9.374  71.983  1.00  0.00    -0.505 A  
ENDBRANCH  24  31
ENDBRANCH  21  24
ENDBRANCH  17  18
ENDBRANCH  16  17
ENDBRANCH  15  16
ENDBRANCH  13  15
ENDBRANCH  11  13
BRANCH  12  37
HETATM   37  C   UNL     1      -7.264  15.523  67.652  1.00  0.00    -0.203 A  
HETATM   38  C   UNL     1      -5.393  14.439  68.764  1.00  0.00    -0.088 A  
HETATM   39  O   UNL     1      -6.832  18.675  70.318  1.00  0.00     0.356 OA 
HETATM   40  C   UNL     1      -7.149  16.607  68.546  1.00  0.00    -0.172 A  
HETATM   41  O   UNL     1      -5.147  17.687  71.316  1.00  0.00    -0.431 OA 
HETATM   42  C   UNL     1      -6.158  16.596  69.535  1.00  0.00    -0.214 A  
HETATM   43  C   UNL     1      -5.271  15.519  69.641  1.00  0.00    -0.097 A  
HETATM   44  N   UNL     1      -6.037  17.736  70.455  1.00  0.00     0.057 N  
HETATM   45  C   UNL     1      -6.389  14.435  67.785  1.00  0.00    -0.168 A  
ENDBRANCH  12  37
ENDBRANCH   3   5
ENDBRANCH   2   3
TORSDOF 11
ENDMDL
MODEL       94
REMARK 921   NORMALIZED FREE ENERGY PREDICTED BY IDOCK:   -4.63 KCAL/MOL
REMARK 922        TOTAL FREE ENERGY PREDICTED BY IDOCK:   -9.46 KCAL/MOL
REMARK 923 INTER-LIGAND FREE ENERGY PREDICTED BY IDOCK:   -9.77 KCAL/MOL
REMARK 924 INTRA-LIGAND FREE ENERGY PREDICTED BY IDOCK:    0.31 KCAL/MOL
REMARK 927      BINDING AFFINITY PREDICTED BY RF-SCORE:    0.00 PKD
ROOT
HETATM    1  C   UNL     1     -13.383  14.635  65.697  1.00  0.00     0.903 C  
HETATM    2  O   UNL     1     -12.758  14.523  64.416  1.00  0.00    -0.655 OA 
ENDROOT
BRANCH   2   3
HETATM    3  C   UNL     1     -11.405  14.613  64.467  1.00  0.00    -0.310 C  
HETATM    4  O   UNL     1     -10.765  15.632  64.245  1.00  0.00    -0.171 OA 
BRANCH   3   5
HETATM    5  C   UNL     1     -10.803  13.292  64.790  1.00  0.00    -0.374 C  
HETATM    6  C   UNL     1     -11.333  12.138  64.307  1.00  0.00    -0.360 C  
HETATM    7  N   UNL     1     -10.770  10.923  64.668  1.00  0.00    -0.264 NA 
HETATM    8  C   UNL     1     -12.523  11.998  63.393  1.00  0.00    -0.625 C  
HETATM    9  C   UNL     1      -9.820  10.760  65.654  1.00  0.00    -0.245 C  
HETATM   10  C   UNL     1      -9.544   9.338  66.083  1.00  0.00    -0.327 C  
HETATM   11  C   UNL     1      -9.223  11.849  66.187  1.00  0.00    -0.204 C  
HETATM   12  C   UNL     1      -9.582  13.265  65.722  1.00  0.00    -0.068 C  
BRANCH  11  13
HETATM   13  C   UNL     1      -8.320  11.683  67.346  1.00  0.00    -0.152 C  
HETATM   14  O   UNL     1      -8.567  12.114  68.463  1.00  0.00    -0.153 OA 
BRANCH  13  15
HETATM   15  O   UNL     1      -7.187  11.020  66.994  1.00  0.00    -0.107 OA 
BRANCH  15  16
HETATM   16  C   UNL     1      -6.378  10.646  68.128  1.00  0.00    -0.058 C  
BRANCH  16  17
HETATM   17  C   UNL     1      -6.699   9.196  68.527  1.00  0.00    -0.059 C  
BRANCH  17  18
HETATM   18  N   UNL     1      -7.185   8.987  69.901  1.00  0.00    -0.054 NA 
HETATM   19  C   UNL     1      -9.693   8.822  69.435  1.00  0.00    -0.172 C  
HETATM   20  C   UNL     1      -8.526   9.570  70.131  1.00  0.00    -0.205 C  
HETATM   21  N   UNL     1      -9.782   7.381  69.782  1.00  0.00    -0.170 NA 
HETATM   22  C   UNL     1      -7.250   7.528  70.176  1.00  0.00    -0.068 C  
HETATM   23  C   UNL     1      -8.444   6.792  69.510  1.00  0.00    -0.133 C  
BRANCH  21  24
HETATM   24  C   UNL     1     -10.216   7.175  71.199  1.00  0.00    -0.191 C  
BRANCH  24  25
HETATM   25  C   UNL     1     -11.640   7.687  71.479  1.00  0.00    -0.304 A  
HETATM   26  C   UNL     1     -11.829   9.013  71.917  1.00  0.00    -0.447 A  
HETATM   27  C   UNL     1     -12.782   6.897  71.269  1.00  0.00    -0.368 A  
HETATM   28  C   UNL     1     -13.110   9.522  72.144  1.00  0.00    -0.522 A  
HETATM   29  C   UNL     1     -14.227   8.713  71.954  1.00  0.00    -0.507 A  
HETATM   30  C   UNL     1     -14.062   7.401  71.519  1.00  0.00    -0.541 A  
ENDBRANCH  24  25
BRANCH  24  31
HETATM   31  C   UNL     1     -10.008   5.726  71.667  1.00  0.00    -0.218 A  
HETATM   32  C   UNL     1      -9.342   3.128  72.515  1.00  0.00    -0.152 A  
HETATM   33  C   UNL     1      -9.748   3.350  71.202  1.00  0.00    -0.222 A  
HETATM   34  C   UNL     1      -9.616   5.479  72.995  1.00  0.00    -0.161 A  
HETATM   35  C   UNL     1     -10.074   4.639  70.778  1.00  0.00    -0.264 A  
HETATM   36  C   UNL     1      -9.277   4.191  73.412  1.00  0.00    -0.110 A  
ENDBRANCH  24  31
ENDBRANCH  21  24
ENDBRANCH  17  18
ENDBRANCH  16  17
ENDBRANCH  15  16
ENDBRANCH  13  15
ENDBRANCH  11  13
BRANCH  12  37
HETATM   37  C   UNL     1      -9.729  14.210  66.925  1.00  0.00    -0.272 A  
HETATM   38  C   UNL     1     -10.765  14.793  69.046  1.00  0.00    -0.251 A  
HETATM   39  O   UNL     1      -7.054  17.323  67.543  1.00  0.00    -0.155 OA 
HETATM   40  C   UNL     1      -8.809  15.264  67.100  1.00  0.00    -0.232 A  
HETATM   41  O   UNL     1      -7.997  17.842  69.454  1.00  0.00     0.104 OA 
HETATM   42  C   UNL     1      -8.875  16.066  68.246  1.00  0.00    -0.182 A  
HETATM   43  C   UNL     1      -9.845  15.828  69.226  1.00  0.00    -0.265 A  
HETATM   44  N   UNL     1      -7.904  17.155  68.427  1.00  0.00    -0.233 N  
HETATM   45  C   UNL     1     -10.715  13.998  67.900  1.00  0.00    -0.246 A  
ENDBRANCH  12  37
ENDBRANCH   3   5
ENDBRANCH   2   3
TORSDOF 11
ENDMDL
MODEL       95
REMARK 921   NORMALIZED FREE ENERGY PREDICTED BY IDOCK:   -4.60 KCAL/MOL
REMARK 922        TOTAL FREE ENERGY PREDICTED BY IDOCK:   -9.42 KCAL/MOL
REMARK 923 INTER-LIGAND FREE ENERGY PREDICTED BY IDOCK:   -8.57 KCAL/MOL
REMARK 924 INTRA-LIGAND FREE ENERGY PREDICTED BY IDOCK:   -0.85 KCAL/MOL
REMARK 927      BINDING AFFINITY PREDICTED BY RF-SCORE:    0.00 PKD
ROOT
HETATM    1  C   UNL     1     -11.668  15.954  71.552  1.00  0.00    -0.475 C  
HETATM    2  O   UNL     1     -11.117  14.968  70.673  1.00  0.00    -0.260 OA 
ENDROOT
BRANCH   2   3
HETATM    3  C   UNL     1     -11.714  14.940  69.454  1.00  0.00    -0.319 C  
HETATM    4  O   UNL     1     -12.285  15.890  68.935  1.00  0.00    -0.226 OA 
BRANCH   3   5
HETATM    5  C   UNL     1     -11.615  13.584  68.854  1.00  0.00    -0.364 C  
HETATM    6  C   UNL     1     -12.077  12.486  69.509  1.00  0.00    -0.187 C  
HETATM    7  N   UNL     1     -11.925  11.232  68.935  1.00  0.00    -0.462 NA 
HETATM    8  C   UNL     1     -12.757  12.451  70.854  1.00  0.00    -0.273 C  
HETATM    9  C   UNL     1     -11.154  10.966  67.824  1.00  0.00    -0.309 C  
HETATM   10  C   UNL     1     -10.897   9.508  67.527  1.00  0.00    -0.239 C  
HETATM   11  C   UNL     1     -10.661  11.993  67.096  1.00  0.00    -0.255 C  
HETATM   12  C   UNL     1     -10.937  13.451  67.482  1.00  0.00    -0.284 C  
BRANCH  11  13
HETATM   13  C   UNL     1      -9.711  11.710  66.000  1.00  0.00    -0.232 C  
HETATM   14  O   UNL     1     -10.049  11.552  64.836  1.00  0.00    -0.243 OA 
BRANCH  13  15
HETATM   15  O   UNL     1      -8.437  11.624  66.464  1.00  0.00    -0.172 OA 
BRANCH  15  16
HETATM   16  C   UNL     1      -7.705  10.515  65.902  1.00  0.00    -0.148 C  
BRANCH  16  17
HETATM   17  C   UNL     1      -6.229  10.614  66.324  1.00  0.00    -0.119 C  
BRANCH  17  18
HETATM   18  N   UNL     1      -5.732   9.556  67.220  1.00  0.00    -0.040 NA 
HETATM   19  C   UNL     1      -7.441   9.776  69.109  1.00  0.00    -0.082 C  
HETATM   20  C   UNL     1      -5.962   9.861  68.651  1.00  0.00    -0.038 C  
HETATM   21  N   UNL     1      -8.085   8.466  68.837  1.00  0.00    -0.112 NA 
HETATM   22  C   UNL     1      -6.419   8.280  66.893  1.00  0.00    -0.057 C  
HETATM   23  C   UNL     1      -7.888   8.184  67.391  1.00  0.00    -0.106 C  
BRANCH  21  24
HETATM   24  C   UNL     1      -7.533   7.382  69.708  1.00  0.00    -0.092 C  
BRANCH  24  25
HETATM   25  C   UNL     1      -7.836   7.589  71.202  1.00  0.00    -0.091 A  
HETATM   26  C   UNL     1      -6.798   7.459  72.147  1.00  0.00    -0.059 A  
HETATM   27  C   UNL     1      -9.108   7.953  71.672  1.00  0.00    -0.175 A  
HETATM   28  C   UNL     1      -7.030   7.678  73.508  1.00  0.00    -0.097 A  
HETATM   29  C   UNL     1      -8.305   8.015  73.954  1.00  0.00    -0.319 A  
HETATM   30  C   UNL     1      -9.343   8.150  73.036  1.00  0.00    -0.335 A  
ENDBRANCH  24  25
BRANCH  24  31
HETATM   31  C   UNL     1      -7.927   5.981  69.215  1.00  0.00    -0.103 A  
HETATM   32  C   UNL     1      -8.581   3.508  68.046  1.00  0.00    -0.118 A  
HETATM   33  C   UNL     1      -9.591   4.383  68.435  1.00  0.00    -0.203 A  
HETATM   34  C   UNL     1      -6.921   5.074  68.835  1.00  0.00    -0.052 A  
HETATM   35  C   UNL     1      -9.268   5.613  69.011  1.00  0.00    -0.141 A  
HETATM   36  C   UNL     1      -7.247   3.852  68.246  1.00  0.00    -0.055 A  
ENDBRANCH  24  31
ENDBRANCH  21  24
ENDBRANCH  17  18
ENDBRANCH  16  17
ENDBRANCH  15  16
ENDBRANCH  13  15
ENDBRANCH  11  13
BRANCH  12  37
HETATM   37  C   UNL     1      -9.658  14.295  67.365  1.00  0.00    -0.214 A  
HETATM   38  C   UNL     1      -8.416  16.134  66.372  1.00  0.00    -0.369 A  
HETATM   39  O   UNL     1      -6.555  13.864  70.089  1.00  0.00    -0.072 OA 
HETATM   40  C   UNL     1      -8.619  14.116  68.301  1.00  0.00    -0.175 A  
HETATM   41  O   UNL     1      -5.442  15.523  69.184  1.00  0.00    -0.096 OA 
HETATM   42  C   UNL     1      -7.493  14.950  68.264  1.00  0.00    -0.113 A  
HETATM   43  C   UNL     1      -7.393  15.966  67.308  1.00  0.00    -0.251 A  
HETATM   44  N   UNL     1      -6.420  14.765  69.252  1.00  0.00    -0.112 N  
HETATM   45  C   UNL     1      -9.534  15.298  66.393  1.00  0.00    -0.326 A  
ENDBRANCH  12  37
ENDBRANCH   3   5
ENDBRANCH   2   3
TORSDOF 11
ENDMDL
MODEL       96
REMARK 921   NORMALIZED FREE ENERGY PREDICTED BY IDOCK:   -4.57 KCAL/MOL
REMARK 922        TOTAL FREE ENERGY PREDICTED BY IDOCK:   -9.38 KCAL/MOL
REMARK 923 INTER-LIGAND FREE ENERGY PREDICTED BY IDOCK:   -8.46 KCAL/MOL
REMARK 924 INTRA-LIGAND FREE ENERGY PREDICTED BY IDOCK:   -0.92 KCAL/MOL
REMARK 927      BINDING AFFINITY PREDICTED BY RF-SCORE:    0.00 PKD
ROOT
HETATM    1  C   UNL     1     -12.405  11.493  71.116  1.00  0.00    -0.277 C  
HETATM    2  O   UNL     1     -12.395  12.159  69.850  1.00  0.00    -0.179 OA 
ENDROOT
BRANCH   2   3
HETATM    3  C   UNL     1     -12.520  13.507  69.950  1.00  0.00    -0.134 C  
HETATM    4  O   UNL     1     -13.580  14.099  70.105  1.00  0.00     0.515 OA 
BRANCH   3   5
HETATM    5  C   UNL     1     -11.197  14.168  69.801  1.00  0.00    -0.205 C  
HETATM    6  C   UNL     1     -10.825  15.192  70.613  1.00  0.00    -0.179 C  
HETATM    7  N   UNL     1      -9.601  15.815  70.413  1.00  0.00     0.475 NA 
HETATM    8  C   UNL     1     -11.615  15.780  71.754  1.00  0.00    -0.541 C  
HETATM    9  C   UNL     1      -8.791  15.617  69.316  1.00  0.00    -0.264 C  
HETATM   10  C   UNL     1      -7.646  16.589  69.151  1.00  0.00    -0.210 C  
HETATM   11  C   UNL     1      -9.070  14.612  68.456  1.00  0.00    -0.188 C  
HETATM   12  C   UNL     1     -10.273  13.687  68.672  1.00  0.00    -0.199 C  
BRANCH  11  13
HETATM   13  C   UNL     1      -8.295  14.498  67.203  1.00  0.00    -0.202 C  
HETATM   14  O   UNL     1      -8.702  14.887  66.118  1.00  0.00    -0.097 OA 
BRANCH  13  15
HETATM   15  O   UNL     1      -7.101  13.886  67.419  1.00  0.00    -0.174 OA 
BRANCH  15  16
HETATM   16  C   UNL     1      -7.166  12.452  67.270  1.00  0.00    -0.125 C  
BRANCH  16  17
HETATM   17  C   UNL     1      -7.660  11.826  68.585  1.00  0.00    -0.125 C  
BRANCH  17  18
HETATM   18  N   UNL     1      -7.195  10.458  68.874  1.00  0.00    -0.076 NA 
HETATM   19  C   UNL     1      -9.291   9.542  70.017  1.00  0.00    -0.234 C  
HETATM   20  C   UNL     1      -7.785   9.902  70.113  1.00  0.00    -0.175 C  
HETATM   21  N   UNL     1      -9.619   8.597  68.919  1.00  0.00    -0.157 NA 
HETATM   22  C   UNL     1      -7.559   9.573  67.738  1.00  0.00    -0.087 C  
HETATM   23  C   UNL     1      -9.061   9.182  67.671  1.00  0.00    -0.122 C  
BRANCH  21  24
HETATM   24  C   UNL     1      -9.091   7.224  69.189  1.00  0.00    -0.137 C  
BRANCH  24  25
HETATM   25  C   UNL     1      -9.663   6.594  70.471  1.00  0.00    -0.187 A  
HETATM   26  C   UNL     1      -8.791   5.981  71.394  1.00  0.00    -0.136 A  
HETATM   27  C   UNL     1     -11.028   6.644  70.794  1.00  0.00    -0.318 A  
HETATM   28  C   UNL     1      -9.272   5.434  72.586  1.00  0.00    -0.145 A  
HETATM   29  C   UNL     1     -10.634   5.473  72.874  1.00  0.00    -0.268 A  
HETATM   30  C   UNL     1     -11.511   6.076  71.977  1.00  0.00    -0.343 A  
ENDBRANCH  24  25
BRANCH  24  31
HETATM   31  C   UNL     1      -9.222   6.299  67.969  1.00  0.00    -0.116 A  
HETATM   32  C   UNL     1      -9.564   4.406  65.917  1.00  0.00    -0.188 A  
HETATM   33  C   UNL     1      -8.292   4.668  66.418  1.00  0.00    -0.106 A  
HETATM   34  C   UNL     1     -10.497   6.037  67.435  1.00  0.00    -0.309 A  
HETATM   35  C   UNL     1      -8.122   5.604  67.440  1.00  0.00    -0.102 A  
HETATM   36  C   UNL     1     -10.666   5.091  66.423  1.00  0.00    -0.242 A  
ENDBRANCH  24  31
ENDBRANCH  21  24
ENDBRANCH  17  18
ENDBRANCH  16  17
ENDBRANCH  15  16
ENDBRANCH  13  15
ENDBRANCH  11  13
BRANCH  12  37
HETATM   37  C   UNL     1     -11.021  13.451  67.350  1.00  0.00    -0.287 A  
HETATM   38  C   UNL     1     -12.607  14.174  65.655  1.00  0.00    -0.495 A  
HETATM   39  O   UNL     1      -9.973  10.327  64.826  1.00  0.00    -0.331 OA 
HETATM   40  C   UNL     1     -10.646  12.375  66.520  1.00  0.00    -0.261 A  
HETATM   41  O   UNL     1     -11.409  10.986  63.305  1.00  0.00     0.074 OA 
HETATM   42  C   UNL     1     -11.253  12.213  65.269  1.00  0.00    -0.332 A  
HETATM   43  C   UNL     1     -12.226  13.116  64.828  1.00  0.00    -0.477 A  
HETATM   44  N   UNL     1     -10.847  11.095  64.404  1.00  0.00    -0.320 N  
HETATM   45  C   UNL     1     -12.018  14.335  66.911  1.00  0.00    -0.467 A  
ENDBRANCH  12  37
ENDBRANCH   3   5
ENDBRANCH   2   3
TORSDOF 11
ENDMDL
MODEL       97
REMARK 921   NORMALIZED FREE ENERGY PREDICTED BY IDOCK:   -4.46 KCAL/MOL
REMARK 922        TOTAL FREE ENERGY PREDICTED BY IDOCK:   -9.19 KCAL/MOL
REMARK 923 INTER-LIGAND FREE ENERGY PREDICTED BY IDOCK:   -9.37 KCAL/MOL
REMARK 924 INTRA-LIGAND FREE ENERGY PREDICTED BY IDOCK:    0.18 KCAL/MOL
REMARK 927      BINDING AFFINITY PREDICTED BY RF-SCORE:    0.00 PKD
ROOT
HETATM    1  C   UNL     1     -10.195   4.629  65.856  1.00  0.00    -0.276 C  
HETATM    2  O   UNL     1     -10.535   4.799  67.235  1.00  0.00    -0.113 OA 
ENDROOT
BRANCH   2   3
HETATM    3  C   UNL     1      -9.627   4.255  68.085  1.00  0.00    -0.137 C  
HETATM    4  O   UNL     1      -9.634   3.090  68.461  1.00  0.00    -0.170 OA 
BRANCH   3   5
HETATM    5  C   UNL     1      -8.646   5.279  68.529  1.00  0.00    -0.094 C  
HETATM    6  C   UNL     1      -7.319   5.147  68.267  1.00  0.00    -0.071 C  
HETATM    7  N   UNL     1      -6.429   6.101  68.739  1.00  0.00    -0.044 NA 
HETATM    8  C   UNL     1      -6.651   4.032  67.502  1.00  0.00    -0.046 C  
HETATM    9  C   UNL     1      -6.749   7.094  69.640  1.00  0.00    -0.049 C  
HETATM   10  C   UNL     1      -5.585   7.850  70.236  1.00  0.00    -0.023 C  
HETATM   11  C   UNL     1      -8.045   7.314  69.954  1.00  0.00    -0.127 C  
HETATM   12  C   UNL     1      -9.171   6.479  69.332  1.00  0.00    -0.144 C  
BRANCH  11  13
HETATM   13  C   UNL     1      -8.375   8.271  71.031  1.00  0.00    -0.124 C  
HETATM   14  O   UNL     1      -8.573   7.941  72.192  1.00  0.00    -0.120 OA 
BRANCH  13  15
HETATM   15  O   UNL     1      -8.451   9.540  70.553  1.00  0.00    -0.195 OA 
BRANCH  15  16
HETATM   16  C   UNL     1      -9.466   9.702  69.540  1.00  0.00    -0.199 C  
BRANCH  16  17
HETATM   17  C   UNL     1     -10.742  10.269  70.183  1.00  0.00    -0.278 C  
BRANCH  17  18
HETATM   18  N   UNL     1     -11.665  10.985  69.286  1.00  0.00    -0.300 NA 
HETATM   19  C   UNL     1     -10.792  13.366  69.608  1.00  0.00     0.244 C  
HETATM   20  C   UNL     1     -11.964  12.359  69.748  1.00  0.00    -0.289 C  
HETATM   21  N   UNL     1     -10.254  13.481  68.229  1.00  0.00    -0.245 NA 
HETATM   22  C   UNL     1     -11.062  11.063  67.931  1.00  0.00    -0.288 C  
HETATM   23  C   UNL     1      -9.916  12.102  67.786  1.00  0.00    -0.198 C  
BRANCH  21  24
HETATM   24  C   UNL     1     -11.220  14.154  67.307  1.00  0.00    -0.316 C  
BRANCH  24  25
HETATM   25  C   UNL     1     -10.937  15.655  67.119  1.00  0.00    -0.270 A  
HETATM   26  C   UNL     1     -10.626  16.149  65.837  1.00  0.00    -0.322 A  
HETATM   27  C   UNL     1     -11.022  16.578  68.174  1.00  0.00    -0.336 A  
HETATM   28  C   UNL     1     -10.400  17.511  65.623  1.00  0.00    -0.145 A  
HETATM   29  C   UNL     1     -10.466  18.405  66.688  1.00  0.00    -0.415 A  
HETATM   30  C   UNL     1     -10.774  17.938  67.963  1.00  0.00    -0.307 A  
ENDBRANCH  24  25
BRANCH  24  31
HETATM   31  C   UNL     1     -11.366  13.409  65.972  1.00  0.00    -0.329 A  
HETATM   32  C   UNL     1     -11.593  12.300  63.396  1.00  0.00    -0.530 A  
HETATM   33  C   UNL     1     -12.733  12.514  64.166  1.00  0.00    -0.417 A  
HETATM   34  C   UNL     1     -10.223  13.166  65.188  1.00  0.00    -0.299 A  
HETATM   35  C   UNL     1     -12.623  13.069  65.442  1.00  0.00    -0.481 A  
HETATM   36  C   UNL     1     -10.338  12.624  63.907  1.00  0.00    -0.405 A  
ENDBRANCH  24  31
ENDBRANCH  21  24
ENDBRANCH  17  18
ENDBRANCH  16  17
ENDBRANCH  15  16
ENDBRANCH  13  15
ENDBRANCH  11  13
BRANCH  12  37
HETATM   37  C   UNL     1     -10.201   6.077  70.399  1.00  0.00    -0.261 A  
HETATM   38  C   UNL     1     -10.814   4.809  72.381  1.00  0.00    -0.171 A  
HETATM   39  O   UNL     1     -13.820   8.081  70.743  1.00  0.00     0.170 OA 
HETATM   40  C   UNL     1     -11.425   6.772  70.483  1.00  0.00    -0.413 A  
HETATM   41  O   UNL     1     -14.364   6.930  72.529  1.00  0.00     0.112 OA 
HETATM   42  C   UNL     1     -12.326   6.480  71.515  1.00  0.00    -0.226 A  
HETATM   43  C   UNL     1     -12.020   5.507  72.472  1.00  0.00    -0.085 A  
HETATM   44  N   UNL     1     -13.594   7.219  71.602  1.00  0.00    -0.380 N  
HETATM   45  C   UNL     1      -9.916   5.083  71.347  1.00  0.00    -0.259 A  
ENDBRANCH  12  37
ENDBRANCH   3   5
ENDBRANCH   2   3
TORSDOF 11
ENDMDL
MODEL       98
REMARK 921   NORMALIZED FREE ENERGY PREDICTED BY IDOCK:   -4.39 KCAL/MOL
REMARK 922        TOTAL FREE ENERGY PREDICTED BY IDOCK:   -9.07 KCAL/MOL
REMARK 923 INTER-LIGAND FREE ENERGY PREDICTED BY IDOCK:   -8.13 KCAL/MOL
REMARK 924 INTRA-LIGAND FREE ENERGY PREDICTED BY IDOCK:   -0.94 KCAL/MOL
REMARK 927      BINDING AFFINITY PREDICTED BY RF-SCORE:    0.00 PKD
ROOT
HETATM    1  C   UNL     1      -6.317  15.249  69.462  1.00  0.00    -0.145 C  
HETATM    2  O   UNL     1      -6.556  13.867  69.182  1.00  0.00    -0.101 OA 
ENDROOT
BRANCH   2   3
HETATM    3  C   UNL     1      -7.092  13.651  67.954  1.00  0.00    -0.149 C  
HETATM    4  O   UNL     1      -7.105  14.470  67.045  1.00  0.00    -0.095 OA 
BRANCH   3   5
HETATM    5  C   UNL     1      -7.698  12.295  67.877  1.00  0.00    -0.133 C  
HETATM    6  C   UNL     1      -7.166  11.328  67.085  1.00  0.00    -0.126 C  
HETATM    7  N   UNL     1      -7.787  10.090  67.005  1.00  0.00    -0.102 NA 
HETATM    8  C   UNL     1      -5.931  11.434  66.227  1.00  0.00    -0.044 C  
HETATM    9  C   UNL     1      -9.036   9.805  67.514  1.00  0.00    -0.131 C  
HETATM   10  C   UNL     1      -9.646   8.492  67.082  1.00  0.00    -0.232 C  
HETATM   11  C   UNL     1      -9.643  10.700  68.326  1.00  0.00    -0.167 C  
HETATM   12  C   UNL     1      -8.973  12.029  68.692  1.00  0.00    -0.027 C  
BRANCH  11  13
HETATM   13  C   UNL     1     -11.040  10.463  68.745  1.00  0.00    -0.250 C  
HETATM   14  O   UNL     1     -11.994  10.523  67.983  1.00  0.00    -0.350 OA 
BRANCH  13  15
HETATM   15  O   UNL     1     -11.115  10.200  70.076  1.00  0.00    -0.264 OA 
BRANCH  15  16
HETATM   16  C   UNL     1     -12.359   9.577  70.459  1.00  0.00     0.015 C  
BRANCH  16  17
HETATM   17  C   UNL     1     -12.261   9.098  71.917  1.00  0.00    -0.379 C  
BRANCH  17  18
HETATM   18  N   UNL     1     -12.239   7.641  72.127  1.00  0.00    -0.286 NA 
HETATM   19  C   UNL     1     -10.978   6.936  70.018  1.00  0.00    -0.279 C  
HETATM   20  C   UNL     1     -12.279   6.877  70.860  1.00  0.00    -0.353 C  
HETATM   21  N   UNL     1      -9.763   6.496  70.749  1.00  0.00    -0.179 NA 
HETATM   22  C   UNL     1     -10.999   7.275  72.860  1.00  0.00    -0.337 C  
HETATM   23  C   UNL     1      -9.705   7.296  72.001  1.00  0.00    -0.157 C  
BRANCH  21  24
HETATM   24  C   UNL     1      -9.774   5.024  71.015  1.00  0.00    -0.184 C  
BRANCH  24  25
HETATM   25  C   UNL     1      -9.515   4.177  69.756  1.00  0.00    -0.265 A  
HETATM   26  C   UNL     1      -9.699   4.750  68.482  1.00  0.00    -0.215 A  
HETATM   27  C   UNL     1      -9.051   2.854  69.819  1.00  0.00    -0.196 A  
HETATM   28  C   UNL     1      -9.437   4.021  67.319  1.00  0.00    -0.229 A  
HETATM   29  C   UNL     1      -9.001   2.702  67.405  1.00  0.00    -0.187 A  
HETATM   30  C   UNL     1      -8.811   2.118  68.654  1.00  0.00    -0.149 A  
ENDBRANCH  24  25
BRANCH  24  31
HETATM   31  C   UNL     1      -8.857   4.637  72.185  1.00  0.00    -0.135 A  
HETATM   32  C   UNL     1      -7.292   4.153  74.471  1.00  0.00    -0.071 A  
HETATM   33  C   UNL     1      -6.720   4.743  73.348  1.00  0.00    -0.067 A  
HETATM   34  C   UNL     1      -9.412   4.022  73.323  1.00  0.00    -0.131 A  
HETATM   35  C   UNL     1      -7.497   4.988  72.214  1.00  0.00    -0.093 A  
HETATM   36  C   UNL     1      -8.636   3.791  74.459  1.00  0.00    -0.088 A  
ENDBRANCH  24  31
ENDBRANCH  21  24
ENDBRANCH  17  18
ENDBRANCH  16  17
ENDBRANCH  15  16
ENDBRANCH  13  15
ENDBRANCH  11  13
BRANCH  12  37
HETATM   37  C   UNL     1      -9.983  13.185  68.613  1.00  0.00    -0.117 A  
HETATM   38  C   UNL     1     -11.359  14.711  67.313  1.00  0.00    -0.364 A  
HETATM   39  O   UNL     1     -11.902  14.588  72.016  1.00  0.00    -0.248 OA 
HETATM   40  C   UNL     1     -10.609  13.644  69.789  1.00  0.00     0.475 A  
HETATM   41  O   UNL     1     -13.137  15.962  70.834  1.00  0.00    -0.505 OA 
HETATM   42  C   UNL     1     -11.604  14.627  69.713  1.00  0.00    -0.296 A  
HETATM   43  C   UNL     1     -11.989  15.155  68.476  1.00  0.00    -0.243 A  
HETATM   44  N   UNL     1     -12.262  15.091  70.944  1.00  0.00    -0.302 N  
HETATM   45  C   UNL     1     -10.355  13.742  67.380  1.00  0.00    -0.252 A  
ENDBRANCH  12  37
ENDBRANCH   3   5
ENDBRANCH   2   3
TORSDOF 11
ENDMDL
MODEL       99
REMARK 921   NORMALIZED FREE ENERGY PREDICTED BY IDOCK:   -4.35 KCAL/MOL
REMARK 922        TOTAL FREE ENERGY PREDICTED BY IDOCK:   -9.01 KCAL/MOL
REMARK 923 INTER-LIGAND FREE ENERGY PREDICTED BY IDOCK:   -8.05 KCAL/MOL
REMARK 924 INTRA-LIGAND FREE ENERGY PREDICTED BY IDOCK:   -0.96 KCAL/MOL
REMARK 927      BINDING AFFINITY PREDICTED BY RF-SCORE:    0.00 PKD
ROOT
HETATM    1  C   UNL     1     -10.161  18.133  67.262  1.00  0.00    -0.347 C  
HETATM    2  O   UNL     1     -10.797  16.863  67.429  1.00  0.00    -0.278 OA 
ENDROOT
BRANCH   2   3
HETATM    3  C   UNL     1     -10.019  15.950  68.064  1.00  0.00    -0.220 C  
HETATM    4  O   UNL     1      -8.810  15.838  67.912  1.00  0.00    -0.173 OA 
BRANCH   3   5
HETATM    5  C   UNL     1     -10.844  15.076  68.938  1.00  0.00    -0.243 C  
HETATM    6  C   UNL     1     -11.263  15.494  70.161  1.00  0.00    -0.318 C  
HETATM    7  N   UNL     1     -11.992  14.632  70.967  1.00  0.00    -0.325 NA 
HETATM    8  C   UNL     1     -11.014  16.838  70.796  1.00  0.00     0.371 C  
HETATM    9  C   UNL     1     -12.169  13.287  70.719  1.00  0.00    -0.308 C  
HETATM   10  C   UNL     1     -12.752  12.473  71.850  1.00  0.00    -0.192 C  
HETATM   11  C   UNL     1     -11.798  12.778  69.523  1.00  0.00    -0.379 C  
HETATM   12  C   UNL     1     -11.180  13.663  68.435  1.00  0.00    -0.306 C  
BRANCH  11  13
HETATM   13  C   UNL     1     -11.845  11.316  69.315  1.00  0.00    -0.354 C  
HETATM   14  O   UNL     1     -12.750  10.745  68.722  1.00  0.00    -0.054 OA 
BRANCH  13  15
HETATM   15  O   UNL     1     -10.776  10.703  69.888  1.00  0.00    -0.259 OA 
BRANCH  15  16
HETATM   16  C   UNL     1     -10.254   9.618  69.093  1.00  0.00    -0.202 C  
BRANCH  16  17
HETATM   17  C   UNL     1     -10.553   8.284  69.796  1.00  0.00    -0.228 C  
BRANCH  17  18
HETATM   18  N   UNL     1      -9.387   7.465  70.169  1.00  0.00    -0.158 NA 
HETATM   19  C   UNL     1     -10.586   5.572  71.401  1.00  0.00    -0.243 C  
HETATM   20  C   UNL     1      -9.576   6.748  71.451  1.00  0.00    -0.167 C  
HETATM   21  N   UNL     1     -10.272   4.547  70.374  1.00  0.00    -0.162 NA 
HETATM   22  C   UNL     1      -9.134   6.464  69.101  1.00  0.00    -0.131 C  
HETATM   23  C   UNL     1     -10.125   5.267  69.081  1.00  0.00    -0.219 C  
BRANCH  21  24
HETATM   24  C   UNL     1      -9.051   3.759  70.728  1.00  0.00    -0.109 C  
BRANCH  24  25
HETATM   25  C   UNL     1      -9.187   2.988  72.052  1.00  0.00    -0.167 A  
HETATM   26  C   UNL     1     -10.429   2.419  72.402  1.00  0.00    -0.134 A  
HETATM   27  C   UNL     1      -8.104   2.779  72.920  1.00  0.00    -0.066 A  
HETATM   28  C   UNL     1     -10.578   1.680  73.578  1.00  0.00    -0.201 A  
HETATM   29  C   UNL     1      -9.496   1.507  74.436  1.00  0.00    -0.084 A  
HETATM   30  C   UNL     1      -8.260   2.058  74.108  1.00  0.00    -0.057 A  
ENDBRANCH  24  25
BRANCH  24  31
HETATM   31  C   UNL     1      -8.579   2.865  69.570  1.00  0.00    -0.115 A  
HETATM   32  C   UNL     1      -7.671   1.472  67.301  1.00  0.00    -0.059 A  
HETATM   33  C   UNL     1      -9.032   1.514  67.595  1.00  0.00    -0.159 A  
HETATM   34  C   UNL     1      -7.206   2.793  69.269  1.00  0.00    -0.044 A  
HETATM   35  C   UNL     1      -9.483   2.209  68.718  1.00  0.00    -0.188 A  
HETATM   36  C   UNL     1      -6.759   2.110  68.138  1.00  0.00    -0.035 A  
ENDBRANCH  24  31
ENDBRANCH  21  24
ENDBRANCH  17  18
ENDBRANCH  16  17
ENDBRANCH  15  16
ENDBRANCH  13  15
ENDBRANCH  11  13
BRANCH  12  37
HETATM   37  C   UNL     1      -9.977  12.962  67.784  1.00  0.00    -0.230 A  
HETATM   38  C   UNL     1      -7.673  12.189  67.871  1.00  0.00    -0.134 A  
HETATM   39  O   UNL     1     -10.387  10.876  64.219  1.00  0.00    -0.344 OA 
HETATM   40  C   UNL     1     -10.148  12.270  66.568  1.00  0.00    -0.232 A  
HETATM   41  O   UNL     1      -8.307  10.186  64.306  1.00  0.00    -0.158 OA 
HETATM   42  C   UNL     1      -9.083  11.544  66.019  1.00  0.00    -0.198 A  
HETATM   43  C   UNL     1      -7.847  11.493  66.673  1.00  0.00    -0.112 A  
HETATM   44  N   UNL     1      -9.275  10.815  64.757  1.00  0.00    -0.206 N  
HETATM   45  C   UNL     1      -8.725  12.927  68.416  1.00  0.00    -0.119 A  
ENDBRANCH  12  37
ENDBRANCH   3   5
ENDBRANCH   2   3
TORSDOF 11
ENDMDL
MODEL      100
REMARK 921   NORMALIZED FREE ENERGY PREDICTED BY IDOCK:   -4.35 KCAL/MOL
REMARK 922        TOTAL FREE ENERGY PREDICTED BY IDOCK:   -9.01 KCAL/MOL
REMARK 923 INTER-LIGAND FREE ENERGY PREDICTED BY IDOCK:   -8.14 KCAL/MOL
REMARK 924 INTRA-LIGAND FREE ENERGY PREDICTED BY IDOCK:   -0.86 KCAL/MOL
REMARK 927      BINDING AFFINITY PREDICTED BY RF-SCORE:    0.00 PKD
ROOT
HETATM    1  C   UNL     1     -11.143   5.213  66.106  1.00  0.00     0.206 C  
HETATM    2  O   UNL     1     -10.969   6.394  66.893  1.00  0.00    -0.370 OA 
ENDROOT
BRANCH   2   3
HETATM    3  C   UNL     1     -10.123   6.224  67.940  1.00  0.00    -0.145 C  
HETATM    4  O   UNL     1     -10.331   5.482  68.892  1.00  0.00    -0.204 OA 
BRANCH   3   5
HETATM    5  C   UNL     1      -8.926   7.094  67.795  1.00  0.00    -0.122 C  
HETATM    6  C   UNL     1      -7.733   6.590  67.383  1.00  0.00    -0.101 C  
HETATM    7  N   UNL     1      -6.628   7.425  67.305  1.00  0.00    -0.059 NA 
HETATM    8  C   UNL     1      -7.435   5.165  66.993  1.00  0.00    -0.087 C  
HETATM    9  C   UNL     1      -6.577   8.708  67.806  1.00  0.00    -0.062 C  
HETATM   10  C   UNL     1      -5.208   9.344  67.869  1.00  0.00    -0.037 C  
HETATM   11  C   UNL     1      -7.716   9.303  68.228  1.00  0.00    -0.087 C  
HETATM   12  C   UNL     1      -9.065   8.579  68.164  1.00  0.00    -0.138 C  
BRANCH  11  13
HETATM   13  C   UNL     1      -7.638  10.614  68.905  1.00  0.00    -0.113 C  
HETATM   14  O   UNL     1      -7.397  10.747  70.096  1.00  0.00    -0.119 OA 
BRANCH  13  15
HETATM   15  O   UNL     1      -7.893  11.630  68.039  1.00  0.00    -0.114 OA 
BRANCH  15  16
HETATM   16  C   UNL     1      -8.093  12.897  68.698  1.00  0.00    -0.007 C  
BRANCH  16  17
HETATM   17  C   UNL     1      -6.756  13.653  68.762  1.00  0.00    -0.104 C  
BRANCH  17  18
HETATM   18  N   UNL     1      -6.828  15.082  69.112  1.00  0.00    -0.121 NA 
HETATM   19  C   UNL     1      -5.659  16.070  67.064  1.00  0.00     0.238 C  
HETATM   20  C   UNL     1      -5.675  15.857  68.600  1.00  0.00    -0.101 C  
HETATM   21  N   UNL     1      -6.885  16.715  66.529  1.00  0.00    -0.206 NA 
HETATM   22  C   UNL     1      -8.074  15.659  68.544  1.00  0.00    -0.147 C  
HETATM   23  C   UNL     1      -8.037  15.908  67.011  1.00  0.00    -0.230 C  
BRANCH  21  24
HETATM   24  C   UNL     1      -6.984  18.150  66.938  1.00  0.00    -0.190 C  
BRANCH  24  25
HETATM   25  C   UNL     1      -6.315  19.114  65.944  1.00  0.00    -0.244 A  
HETATM   26  C   UNL     1      -5.832  18.622  64.715  1.00  0.00    -0.241 A  
HETATM   27  C   UNL     1      -6.203  20.493  66.186  1.00  0.00    -0.254 A  
HETATM   28  C   UNL     1      -5.253  19.476  63.773  1.00  0.00    -0.265 A  
HETATM   29  C   UNL     1      -5.130  20.835  64.045  1.00  0.00    -0.217 A  
HETATM   30  C   UNL     1      -5.604  21.343  65.252  1.00  0.00    -0.104 A  
ENDBRANCH  24  25
BRANCH  24  31
HETATM   31  C   UNL     1      -8.425  18.560  67.278  1.00  0.00    -0.264 A  
HETATM   32  C   UNL     1     -11.005  19.565  67.776  1.00  0.00    -0.251 A  
HETATM   33  C   UNL     1     -10.074  19.495  68.808  1.00  0.00    -0.519 A  
HETATM   34  C   UNL     1      -9.387  18.618  66.253  1.00  0.00    -0.251 A  
HETATM   35  C   UNL     1      -8.791  19.001  68.561  1.00  0.00    -0.398 A  
HETATM   36  C   UNL     1     -10.663  19.125  66.500  1.00  0.00    -0.456 A  
ENDBRANCH  24  31
ENDBRANCH  21  24
ENDBRANCH  17  18
ENDBRANCH  16  17
ENDBRANCH  15  16
ENDBRANCH  13  15
ENDBRANCH  11  13
BRANCH  12  37
HETATM   37  C   UNL     1      -9.860   8.798  69.461  1.00  0.00    -0.180 A  
HETATM   38  C   UNL     1     -11.735   9.783  70.657  1.00  0.00    -0.377 A  
HETATM   39  O   UNL     1      -9.024   6.600  72.882  1.00  0.00    -0.129 OA 
HETATM   40  C   UNL     1      -9.544   8.042  70.608  1.00  0.00    -0.172 A  
HETATM   41  O   UNL     1     -10.715   7.496  73.952  1.00  0.00    -0.285 OA 
HETATM   42  C   UNL     1     -10.327   8.162  71.763  1.00  0.00    -0.230 A  
HETATM   43  C   UNL     1     -11.429   9.024  71.788  1.00  0.00    -0.442 A  
HETATM   44  N   UNL     1      -9.998   7.360  72.950  1.00  0.00    -0.209 N  
HETATM   45  C   UNL     1     -10.950   9.680  69.506  1.00  0.00    -0.233 A  
ENDBRANCH  12  37
ENDBRANCH   3   5
ENDBRANCH   2   3
TORSDOF 11
ENDMDL
MODEL      101
REMARK 921   NORMALIZED FREE ENERGY PREDICTED BY IDOCK:   -4.27 KCAL/MOL
REMARK 922        TOTAL FREE ENERGY PREDICTED BY IDOCK:   -8.88 KCAL/MOL
REMARK 923 INTER-LIGAND FREE ENERGY PREDICTED BY IDOCK:   -8.62 KCAL/MOL
REMARK 924 INTRA-LIGAND FREE ENERGY PREDICTED BY IDOCK:   -0.26 KCAL/MOL
REMARK 927      BINDING AFFINITY PREDICTED BY RF-SCORE:    0.00 PKD
ROOT
HETATM    1  C   UNL     1     -10.215   4.676  71.224  1.00  0.00    -0.135 C  
HETATM    2  O   UNL     1      -8.885   4.714  71.749  1.00  0.00    -0.119 OA 
ENDROOT
BRANCH   2   3
HETATM    3  C   UNL     1      -7.926   4.667  70.789  1.00  0.00    -0.076 C  
HETATM    4  O   UNL     1      -7.551   3.647  70.227  1.00  0.00    -0.044 OA 
BRANCH   3   5
HETATM    5  C   UNL     1      -7.363   6.021  70.544  1.00  0.00    -0.085 C  
HETATM    6  C   UNL     1      -6.940   6.806  71.569  1.00  0.00    -0.067 C  
HETATM    7  N   UNL     1      -6.464   8.081  71.304  1.00  0.00    -0.037 NA 
HETATM    8  C   UNL     1      -6.934   6.458  73.036  1.00  0.00    -0.074 C  
HETATM    9  C   UNL     1      -6.564   8.718  70.086  1.00  0.00    -0.039 C  
HETATM   10  C   UNL     1      -6.239  10.194  70.078  1.00  0.00    -0.076 C  
HETATM   11  C   UNL     1      -6.962   8.017  69.000  1.00  0.00    -0.058 C  
HETATM   12  C   UNL     1      -7.308   6.527  69.094  1.00  0.00    -0.093 C  
BRANCH  11  13
HETATM   13  C   UNL     1      -7.216   8.733  67.732  1.00  0.00    -0.084 C  
HETATM   14  O   UNL     1      -6.624   8.493  66.690  1.00  0.00    -0.058 OA 
BRANCH  13  15
HETATM   15  O   UNL     1      -8.162   9.695  67.893  1.00  0.00    -0.106 OA 
BRANCH  15  16
HETATM   16  C   UNL     1      -9.034   9.825  66.750  1.00  0.00    -0.138 C  
BRANCH  16  17
HETATM   17  C   UNL     1      -8.758  11.165  66.050  1.00  0.00    -0.183 C  
BRANCH  17  18
HETATM   18  N   UNL     1      -9.874  12.126  66.012  1.00  0.00    -0.240 NA 
HETATM   19  C   UNL     1     -10.639  11.971  68.446  1.00  0.00    -0.217 C  
HETATM   20  C   UNL     1     -10.968  11.772  66.943  1.00  0.00    -0.285 C  
HETATM   21  N   UNL     1     -10.203  13.347  68.794  1.00  0.00    -0.174 NA 
HETATM   22  C   UNL     1      -9.365  13.475  66.371  1.00  0.00    -0.176 C  
HETATM   23  C   UNL     1      -9.076  13.681  67.883  1.00  0.00    -0.198 C  
BRANCH  21  24
HETATM   24  C   UNL     1     -11.326  14.330  68.694  1.00  0.00    -0.275 C  
BRANCH  24  25
HETATM   25  C   UNL     1     -12.308  14.253  69.875  1.00  0.00    -0.377 A  
HETATM   26  C   UNL     1     -12.384  13.073  70.643  1.00  0.00    -0.391 A  
HETATM   27  C   UNL     1     -13.112  15.338  70.261  1.00  0.00    -0.143 A  
HETATM   28  C   UNL     1     -13.237  12.983  71.746  1.00  0.00    -0.486 A  
HETATM   29  C   UNL     1     -14.043  14.063  72.095  1.00  0.00    -0.641 A  
HETATM   30  C   UNL     1     -13.982  15.238  71.351  1.00  0.00    -0.601 A  
ENDBRANCH  24  25
BRANCH  24  31
HETATM   31  C   UNL     1     -10.827  15.759  68.433  1.00  0.00    -0.297 A  
HETATM   32  C   UNL     1      -9.710  18.259  67.787  1.00  0.00    -0.305 A  
HETATM   33  C   UNL     1      -9.463  17.686  69.031  1.00  0.00    -0.099 A  
HETATM   34  C   UNL     1     -11.083  16.364  67.188  1.00  0.00     0.026 A  
HETATM   35  C   UNL     1     -10.013  16.443  69.351  1.00  0.00    -0.214 A  
HETATM   36  C   UNL     1     -10.521  17.599  66.866  1.00  0.00    -0.290 A  
ENDBRANCH  24  31
ENDBRANCH  21  24
ENDBRANCH  17  18
ENDBRANCH  16  17
ENDBRANCH  15  16
ENDBRANCH  13  15
ENDBRANCH  11  13
BRANCH  12  37
HETATM   37  C   UNL     1      -8.591   6.218  68.306  1.00  0.00    -0.117 A  
HETATM   38  C   UNL     1     -10.920   6.680  67.784  1.00  0.00    -0.367 A  
HETATM   39  O   UNL     1      -8.553   3.570  65.110  1.00  0.00    -0.107 OA 
HETATM   40  C   UNL     1      -8.545   5.306  67.232  1.00  0.00    -0.105 A  
HETATM   41  O   UNL     1     -10.655   3.993  64.648  1.00  0.00    -0.253 OA 
HETATM   42  C   UNL     1      -9.685   5.095  66.445  1.00  0.00    -0.173 A  
HETATM   43  C   UNL     1     -10.871   5.787  66.712  1.00  0.00    -0.327 A  
HETATM   44  N   UNL     1      -9.625   4.152  65.319  1.00  0.00    -0.174 N  
HETATM   45  C   UNL     1      -9.793   6.885  68.582  1.00  0.00    -0.145 A  
ENDBRANCH  12  37
ENDBRANCH   3   5
ENDBRANCH   2   3
TORSDOF 11
ENDMDL
MODEL      102
REMARK 921   NORMALIZED FREE ENERGY PREDICTED BY IDOCK:   -4.25 KCAL/MOL
REMARK 922        TOTAL FREE ENERGY PREDICTED BY IDOCK:   -8.85 KCAL/MOL
REMARK 923 INTER-LIGAND FREE ENERGY PREDICTED BY IDOCK:   -7.19 KCAL/MOL
REMARK 924 INTRA-LIGAND FREE ENERGY PREDICTED BY IDOCK:   -1.66 KCAL/MOL
REMARK 927      BINDING AFFINITY PREDICTED BY RF-SCORE:    0.00 PKD
ROOT
HETATM    1  C   UNL     1     -13.140  12.487  71.737  1.00  0.00    -0.347 C  
HETATM    2  O   UNL     1     -12.217  12.674  70.661  1.00  0.00    -0.374 OA 
ENDROOT
BRANCH   2   3
HETATM    3  C   UNL     1     -12.344  13.876  70.044  1.00  0.00    -0.316 C  
HETATM    4  O   UNL     1     -13.405  14.362  69.675  1.00  0.00     0.705 OA 
BRANCH   3   5
HETATM    5  C   UNL     1     -11.012  14.504  69.840  1.00  0.00    -0.147 C  
HETATM    6  C   UNL     1     -10.679  15.669  70.455  1.00  0.00    -0.273 C  
HETATM    7  N   UNL     1      -9.444  16.248  70.203  1.00  0.00     0.649 NA 
HETATM    8  C   UNL     1     -11.527  16.463  71.416  1.00  0.00    -0.264 C  
HETATM    9  C   UNL     1      -8.578  15.845  69.210  1.00  0.00    -0.247 C  
HETATM   10  C   UNL     1      -7.421  16.773  68.920  1.00  0.00    -0.240 C  
HETATM   11  C   UNL     1      -8.815  14.690  68.548  1.00  0.00    -0.182 C  
HETATM   12  C   UNL     1     -10.032  13.818  68.877  1.00  0.00    -0.043 C  
BRANCH  11  13
HETATM   13  C   UNL     1      -7.974  14.339  67.385  1.00  0.00    -0.192 C  
HETATM   14  O   UNL     1      -8.083  14.867  66.288  1.00  0.00     0.341 OA 
BRANCH  13  15
HETATM   15  O   UNL     1      -7.100  13.346  67.693  1.00  0.00    -0.138 OA 
BRANCH  15  16
HETATM   16  C   UNL     1      -7.316  12.144  66.924  1.00  0.00    -0.008 C  
BRANCH  16  17
HETATM   17  C   UNL     1      -7.332  10.931  67.869  1.00  0.00    -0.088 C  
BRANCH  17  18
HETATM   18  N   UNL     1      -8.450   9.986  67.702  1.00  0.00    -0.115 NA 
HETATM   19  C   UNL     1      -7.136   7.793  67.660  1.00  0.00    -0.083 C  
HETATM   20  C   UNL     1      -8.074   8.785  66.923  1.00  0.00    -0.101 C  
HETATM   21  N   UNL     1      -7.663   7.316  68.963  1.00  0.00    -0.109 NA 
HETATM   22  C   UNL     1      -8.922   9.552  69.042  1.00  0.00    -0.144 C  
HETATM   23  C   UNL     1      -7.999   8.527  69.758  1.00  0.00    -0.103 C  
BRANCH  21  24
HETATM   24  C   UNL     1      -8.837   6.405  68.791  1.00  0.00    -0.124 C  
BRANCH  24  25
HETATM   25  C   UNL     1      -8.449   5.001  68.295  1.00  0.00    -0.098 A  
HETATM   26  C   UNL     1      -7.137   4.528  68.498  1.00  0.00    -0.053 A  
HETATM   27  C   UNL     1      -9.369   4.136  67.681  1.00  0.00    -0.208 A  
HETATM   28  C   UNL     1      -6.762   3.244  68.095  1.00  0.00    -0.045 A  
HETATM   29  C   UNL     1      -7.685   2.413  67.466  1.00  0.00    -0.061 A  
HETATM   30  C   UNL     1      -8.987   2.860  67.258  1.00  0.00    -0.185 A  
ENDBRANCH  24  25
BRANCH  24  31
HETATM   31  C   UNL     1      -9.731   6.364  70.039  1.00  0.00    -0.183 A  
HETATM   32  C   UNL     1     -11.413   6.009  72.266  1.00  0.00    -0.364 A  
HETATM   33  C   UNL     1     -11.888   6.659  71.130  1.00  0.00    -0.414 A  
HETATM   34  C   UNL     1      -9.261   5.729  71.204  1.00  0.00    -0.168 A  
HETATM   35  C   UNL     1     -11.056   6.832  70.023  1.00  0.00    -0.366 A  
HETATM   36  C   UNL     1     -10.100   5.545  72.304  1.00  0.00    -0.225 A  
ENDBRANCH  24  31
ENDBRANCH  21  24
ENDBRANCH  17  18
ENDBRANCH  16  17
ENDBRANCH  15  16
ENDBRANCH  13  15
ENDBRANCH  11  13
BRANCH  12  37
HETATM   37  C   UNL     1     -10.709  13.324  67.588  1.00  0.00    -0.250 A  
HETATM   38  C   UNL     1     -11.799  11.570  66.306  1.00  0.00     0.357 A  
HETATM   39  O   UNL     1     -11.740  15.973  64.564  1.00  0.00    -0.318 OA 
HETATM   40  C   UNL     1     -11.037  14.249  66.576  1.00  0.00    -0.323 A  
HETATM   41  O   UNL     1     -12.719  14.383  63.414  1.00  0.00    -0.689 OA 
HETATM   42  C   UNL     1     -11.744  13.825  65.444  1.00  0.00    -0.335 A  
HETATM   43  C   UNL     1     -12.136  12.489  65.310  1.00  0.00    -0.500 A  
HETATM   44  N   UNL     1     -12.094  14.799  64.400  1.00  0.00    -0.476 N  
HETATM   45  C   UNL     1     -11.082  11.981  67.431  1.00  0.00    -0.337 A  
ENDBRANCH  12  37
ENDBRANCH   3   5
ENDBRANCH   2   3
TORSDOF 11
ENDMDL
MODEL      103
REMARK 921   NORMALIZED FREE ENERGY PREDICTED BY IDOCK:   -4.19 KCAL/MOL
REMARK 922        TOTAL FREE ENERGY PREDICTED BY IDOCK:   -8.74 KCAL/MOL
REMARK 923 INTER-LIGAND FREE ENERGY PREDICTED BY IDOCK:   -7.90 KCAL/MOL
REMARK 924 INTRA-LIGAND FREE ENERGY PREDICTED BY IDOCK:   -0.84 KCAL/MOL
REMARK 927      BINDING AFFINITY PREDICTED BY RF-SCORE:    0.00 PKD
ROOT
HETATM    1  C   UNL     1     -12.871   7.102  71.317  1.00  0.00    -0.349 C  
HETATM    2  O   UNL     1     -11.531   7.099  71.816  1.00  0.00    -0.252 OA 
ENDROOT
BRANCH   2   3
HETATM    3  C   UNL     1     -10.675   6.371  71.054  1.00  0.00    -0.251 C  
HETATM    4  O   UNL     1     -10.498   5.165  71.161  1.00  0.00    -0.218 OA 
BRANCH   3   5
HETATM    5  C   UNL     1      -9.948   7.249  70.098  1.00  0.00    -0.184 C  
HETATM    6  C   UNL     1     -10.104   7.111  68.755  1.00  0.00    -0.173 C  
HETATM    7  N   UNL     1      -9.373   7.918  67.895  1.00  0.00    -0.140 NA 
HETATM    8  C   UNL     1     -11.004   6.136  68.040  1.00  0.00    -0.399 C  
HETATM    9  C   UNL     1      -8.331   8.734  68.280  1.00  0.00    -0.126 C  
HETATM   10  C   UNL     1      -7.492   9.312  67.165  1.00  0.00    -0.091 C  
HETATM   11  C   UNL     1      -8.105   8.946  69.596  1.00  0.00    -0.104 C  
HETATM   12  C   UNL     1      -8.981   8.295  70.672  1.00  0.00    -0.161 C  
BRANCH  11  13
HETATM   13  C   UNL     1      -6.898   9.693  70.010  1.00  0.00    -0.085 C  
HETATM   14  O   UNL     1      -5.777   9.205  70.038  1.00  0.00    -0.031 OA 
BRANCH  13  15
HETATM   15  O   UNL     1      -7.209  10.965  70.373  1.00  0.00    -0.051 OA 
BRANCH  15  16
HETATM   16  C   UNL     1      -6.130  11.895  70.148  1.00  0.00    -0.137 C  
BRANCH  16  17
HETATM   17  C   UNL     1      -6.289  12.533  68.759  1.00  0.00    -0.079 C  
BRANCH  17  18
HETATM   18  N   UNL     1      -7.667  12.821  68.324  1.00  0.00    -0.129 NA 
HETATM   19  C   UNL     1      -8.005  15.075  69.482  1.00  0.00    -0.135 C  
HETATM   20  C   UNL     1      -8.435  13.593  69.326  1.00  0.00     0.620 C  
HETATM   21  N   UNL     1      -8.041  15.852  68.217  1.00  0.00    -0.141 NA 
HETATM   22  C   UNL     1      -7.624  13.599  67.059  1.00  0.00     0.243 C  
HETATM   23  C   UNL     1      -7.233  15.093  67.227  1.00  0.00    -0.162 C  
BRANCH  21  24
HETATM   24  C   UNL     1      -9.441  16.089  67.747  1.00  0.00    -0.217 C  
BRANCH  24  25
HETATM   25  C   UNL     1     -10.507  15.639  68.762  1.00  0.00    -0.225 A  
HETATM   26  C   UNL     1     -10.754  16.424  69.906  1.00  0.00    -0.300 A  
HETATM   27  C   UNL     1     -11.291  14.490  68.574  1.00  0.00    -0.309 A  
HETATM   28  C   UNL     1     -11.741  16.065  70.828  1.00  0.00    -0.410 A  
HETATM   29  C   UNL     1     -12.490  14.908  70.633  1.00  0.00    -0.411 A  
HETATM   30  C   UNL     1     -12.264  14.120  69.508  1.00  0.00    -0.351 A  
ENDBRANCH  24  25
BRANCH  24  31
HETATM   31  C   UNL     1      -9.658  17.531  67.264  1.00  0.00    -0.273 A  
HETATM   32  C   UNL     1     -10.244  20.200  66.596  1.00  0.00    -0.556 A  
HETATM   33  C   UNL     1     -10.775  19.159  65.838  1.00  0.00    -0.435 A  
HETATM   34  C   UNL     1      -9.113  18.596  68.005  1.00  0.00    -0.327 A  
HETATM   35  C   UNL     1     -10.488  17.834  66.172  1.00  0.00    -0.301 A  
HETATM   36  C   UNL     1      -9.413  19.919  67.678  1.00  0.00    -0.479 A  
ENDBRANCH  24  31
ENDBRANCH  21  24
ENDBRANCH  17  18
ENDBRANCH  16  17
ENDBRANCH  15  16
ENDBRANCH  13  15
ENDBRANCH  11  13
BRANCH  12  37
HETATM   37  C   UNL     1      -8.115   7.741  71.815  1.00  0.00    -0.118 A  
HETATM   38  C   UNL     1      -7.448   7.728  74.153  1.00  0.00    -0.182 A  
HETATM   39  O   UNL     1      -5.793   4.341  71.286  1.00  0.00    -0.012 OA 
HETATM   40  C   UNL     1      -7.330   6.590  71.599  1.00  0.00    -0.087 A  
HETATM   41  O   UNL     1      -5.196   4.340  73.397  1.00  0.00    -0.006 OA 
HETATM   42  C   UNL     1      -6.617   6.020  72.662  1.00  0.00    -0.068 A  
HETATM   43  C   UNL     1      -6.682   6.580  73.942  1.00  0.00    -0.073 A  
HETATM   44  N   UNL     1      -5.812   4.812  72.431  1.00  0.00    -0.012 N  
HETATM   45  C   UNL     1      -8.150   8.311  73.097  1.00  0.00    -0.215 A  
ENDBRANCH  12  37
ENDBRANCH   3   5
ENDBRANCH   2   3
TORSDOF 11
ENDMDL
MODEL      104
REMARK 921   NORMALIZED FREE ENERGY PREDICTED BY IDOCK:   -4.16 KCAL/MOL
REMARK 922        TOTAL FREE ENERGY PREDICTED BY IDOCK:   -8.69 KCAL/MOL
REMARK 923 INTER-LIGAND FREE ENERGY PREDICTED BY IDOCK:   -9.92 KCAL/MOL
REMARK 924 INTRA-LIGAND FREE ENERGY PREDICTED BY IDOCK:    1.23 KCAL/MOL
REMARK 927      BINDING AFFINITY PREDICTED BY RF-SCORE:    0.00 PKD
ROOT
HETATM    1  C   UNL     1      -9.523   3.781  68.180  1.00  0.00    -0.157 C  
HETATM    2  O   UNL     1      -9.863   4.667  69.251  1.00  0.00    -0.189 OA 
ENDROOT
BRANCH   2   3
HETATM    3  C   UNL     1      -9.027   5.730  69.356  1.00  0.00    -0.116 C  
HETATM    4  O   UNL     1      -7.894   5.684  69.817  1.00  0.00    -0.084 OA 
BRANCH   3   5
HETATM    5  C   UNL     1      -9.691   6.970  68.874  1.00  0.00    -0.144 C  
HETATM    6  C   UNL     1      -9.348   7.539  67.689  1.00  0.00    -0.137 C  
HETATM    7  N   UNL     1      -9.958   8.721  67.295  1.00  0.00    -0.200 NA 
HETATM    8  C   UNL     1      -8.327   7.035  66.701  1.00  0.00    -0.118 C  
HETATM    9  C   UNL     1     -10.759   9.498  68.105  1.00  0.00    -0.197 C  
HETATM   10  C   UNL     1     -11.096  10.875  67.582  1.00  0.00    -0.376 C  
HETATM   11  C   UNL     1     -11.167   9.013  69.299  1.00  0.00     0.151 C  
HETATM   12  C   UNL     1     -10.754   7.615  69.775  1.00  0.00    -0.243 C  
BRANCH  11  13
HETATM   13  C   UNL     1     -11.894   9.901  70.229  1.00  0.00    -0.184 C  
HETATM   14  O   UNL     1     -12.831   9.533  70.923  1.00  0.00    -0.253 OA 
BRANCH  13  15
HETATM   15  O   UNL     1     -11.402  11.167  70.184  1.00  0.00    -0.279 OA 
BRANCH  15  16
HETATM   16  C   UNL     1     -12.298  12.141  70.759  1.00  0.00    -0.297 C  
BRANCH  16  17
HETATM   17  C   UNL     1     -11.984  13.528  70.174  1.00  0.00    -0.329 C  
BRANCH  17  18
HETATM   18  N   UNL     1     -11.236  13.550  68.906  1.00  0.00    -0.263 NA 
HETATM   19  C   UNL     1     -11.503  16.022  68.309  1.00  0.00    -0.291 C  
HETATM   20  C   UNL     1     -11.770  14.539  67.942  1.00  0.00    -0.351 C  
HETATM   21  N   UNL     1     -10.069  16.348  68.513  1.00  0.00    -0.238 NA 
HETATM   22  C   UNL     1      -9.816  13.883  69.186  1.00  0.00     0.174 C  
HETATM   23  C   UNL     1      -9.549  15.378  69.513  1.00  0.00    -0.257 C  
BRANCH  21  24
HETATM   24  C   UNL     1      -9.301  16.308  67.230  1.00  0.00    -0.224 C  
BRANCH  24  25
HETATM   25  C   UNL     1     -10.090  15.679  66.068  1.00  0.00    -0.355 A  
HETATM   26  C   UNL     1      -9.898  14.319  65.752  1.00  0.00    -0.314 A  
HETATM   27  C   UNL     1     -11.043  16.396  65.326  1.00  0.00    -0.117 A  
HETATM   28  C   UNL     1     -10.626  13.707  64.728  1.00  0.00    -0.436 A  
HETATM   29  C   UNL     1     -11.548  14.443  63.990  1.00  0.00    -0.052 A  
HETATM   30  C   UNL     1     -11.754  15.788  64.287  1.00  0.00    -0.162 A  
ENDBRANCH  24  25
BRANCH  24  31
HETATM   31  C   UNL     1      -8.705  17.677  66.865  1.00  0.00    -0.262 A  
HETATM   32  C   UNL     1      -7.399  20.121  66.383  1.00  0.00    -0.313 A  
HETATM   33  C   UNL     1      -8.532  20.084  67.191  1.00  0.00    -0.390 A  
HETATM   34  C   UNL     1      -7.572  17.737  66.034  1.00  0.00    -0.255 A  
HETATM   35  C   UNL     1      -9.178  18.871  67.435  1.00  0.00    -0.313 A  
HETATM   36  C   UNL     1      -6.920  18.949  65.803  1.00  0.00    -0.296 A  
ENDBRANCH  24  31
ENDBRANCH  21  24
ENDBRANCH  17  18
ENDBRANCH  16  17
ENDBRANCH  15  16
ENDBRANCH  13  15
ENDBRANCH  11  13
BRANCH  12  37
HETATM   37  C   UNL     1     -10.340   7.648  71.256  1.00  0.00    -0.215 A  
HETATM   38  C   UNL     1     -10.684   6.977  73.567  1.00  0.00    -0.368 A  
HETATM   39  O   UNL     1      -6.718   9.301  72.428  1.00  0.00    -0.303 OA 
HETATM   40  C   UNL     1      -9.107   8.226  71.621  1.00  0.00    -0.242 A  
HETATM   41  O   UNL     1      -7.038   8.693  74.511  1.00  0.00    -0.260 OA 
HETATM   42  C   UNL     1      -8.676   8.170  72.952  1.00  0.00    -0.224 A  
HETATM   43  C   UNL     1      -9.456   7.537  73.926  1.00  0.00    -0.286 A  
HETATM   44  N   UNL     1      -7.383   8.763  73.323  1.00  0.00     0.133 N  
HETATM   45  C   UNL     1     -11.128   7.041  72.245  1.00  0.00    -0.287 A  
ENDBRANCH  12  37
ENDBRANCH   3   5
ENDBRANCH   2   3
TORSDOF 11
ENDMDL
MODEL      105
REMARK 921   NORMALIZED FREE ENERGY PREDICTED BY IDOCK:   -4.11 KCAL/MOL
REMARK 922        TOTAL FREE ENERGY PREDICTED BY IDOCK:   -8.61 KCAL/MOL
REMARK 923 INTER-LIGAND FREE ENERGY PREDICTED BY IDOCK:   -6.71 KCAL/MOL
REMARK 924 INTRA-LIGAND FREE ENERGY PREDICTED BY IDOCK:   -1.90 KCAL/MOL
REMARK 927      BINDING AFFINITY PREDICTED BY RF-SCORE:    0.00 PKD
ROOT
HETATM    1  C   UNL     1     -10.612  18.128  67.541  1.00  0.00    -0.401 C  
HETATM    2  O   UNL     1     -11.020  16.794  67.855  1.00  0.00    -0.337 OA 
ENDROOT
BRANCH   2   3
HETATM    3  C   UNL     1     -10.056  16.069  68.478  1.00  0.00    -0.233 C  
HETATM    4  O   UNL     1      -9.143  16.545  69.140  1.00  0.00    -0.254 OA 
BRANCH   3   5
HETATM    5  C   UNL     1     -10.236  14.617  68.211  1.00  0.00    -0.227 C  
HETATM    6  C   UNL     1     -10.014  14.094  66.976  1.00  0.00    -0.260 C  
HETATM    7  N   UNL     1     -10.238  12.743  66.755  1.00  0.00    -0.236 NA 
HETATM    8  C   UNL     1      -9.544  14.831  65.748  1.00  0.00    -0.289 C  
HETATM    9  C   UNL     1     -10.869  11.897  67.642  1.00  0.00    -0.227 C  
HETATM   10  C   UNL     1     -11.262  10.541  67.103  1.00  0.00    -0.134 C  
HETATM   11  C   UNL     1     -11.121  12.321  68.901  1.00  0.00    -0.291 C  
HETATM   12  C   UNL     1     -10.722  13.727  69.364  1.00  0.00    -0.014 C  
BRANCH  11  13
HETATM   13  C   UNL     1     -11.931  11.473  69.800  1.00  0.00    -0.346 C  
HETATM   14  O   UNL     1     -13.152  11.425  69.765  1.00  0.00     0.281 OA 
BRANCH  13  15
HETATM   15  O   UNL     1     -11.144  10.790  70.671  1.00  0.00    -0.170 OA 
BRANCH  15  16
HETATM   16  C   UNL     1     -11.895   9.932  71.556  1.00  0.00    -0.365 C  
BRANCH  16  17
HETATM   17  C   UNL     1     -11.053   8.693  71.899  1.00  0.00    -0.346 C  
BRANCH  17  18
HETATM   18  N   UNL     1     -11.415   7.443  71.209  1.00  0.00    -0.265 NA 
HETATM   19  C   UNL     1      -9.532   7.359  69.483  1.00  0.00    -0.155 C  
HETATM   20  C   UNL     1     -11.052   7.453  69.774  1.00  0.00    -0.152 C  
HETATM   21  N   UNL     1      -8.870   6.175  70.088  1.00  0.00    -0.143 NA 
HETATM   22  C   UNL     1     -10.719   6.306  71.865  1.00  0.00    -0.230 C  
HETATM   23  C   UNL     1      -9.204   6.194  71.537  1.00  0.00    -0.146 C  
BRANCH  21  24
HETATM   24  C   UNL     1      -9.290   4.903  69.424  1.00  0.00    -0.127 C  
BRANCH  24  25
HETATM   25  C   UNL     1      -9.107   4.925  67.896  1.00  0.00    -0.127 A  
HETATM   26  C   UNL     1     -10.159   4.497  67.063  1.00  0.00    -0.180 A  
HETATM   27  C   UNL     1      -7.938   5.404  67.283  1.00  0.00    -0.101 A  
HETATM   28  C   UNL     1     -10.041   4.540  65.671  1.00  0.00    -0.261 A  
HETATM   29  C   UNL     1      -8.864   4.996  65.084  1.00  0.00    -0.153 A  
HETATM   30  C   UNL     1      -7.812   5.425  65.890  1.00  0.00    -0.103 A  
ENDBRANCH  24  25
BRANCH  24  31
HETATM   31  C   UNL     1      -8.651   3.667  70.077  1.00  0.00    -0.105 A  
HETATM   32  C   UNL     1      -7.541   1.528  71.527  1.00  0.00    -0.036 A  
HETATM   33  C   UNL     1      -6.708   2.457  70.908  1.00  0.00    -0.032 A  
HETATM   34  C   UNL     1      -9.476   2.707  70.691  1.00  0.00    -0.206 A  
HETATM   35  C   UNL     1      -7.259   3.521  70.192  1.00  0.00    -0.041 A  
HETATM   36  C   UNL     1      -8.923   1.652  71.418  1.00  0.00    -0.117 A  
ENDBRANCH  24  31
ENDBRANCH  21  24
ENDBRANCH  17  18
ENDBRANCH  16  17
ENDBRANCH  15  16
ENDBRANCH  13  15
ENDBRANCH  11  13
BRANCH  12  37
HETATM   37  C   UNL     1     -11.855  14.372  70.178  1.00  0.00    -0.380 A  
HETATM   38  C   UNL     1     -14.162  15.115  70.378  1.00  0.00     0.926 A  
HETATM   39  O   UNL     1     -11.411  15.140  74.233  1.00  0.00     0.268 OA 
HETATM   40  C   UNL     1     -11.668  14.628  71.551  1.00  0.00    -0.273 A  
HETATM   41  O   UNL     1     -13.493  15.810  74.402  1.00  0.00     0.177 OA 
HETATM   42  C   UNL     1     -12.729  15.121  72.322  1.00  0.00    -0.340 A  
HETATM   43  C   UNL     1     -13.980  15.356  71.741  1.00  0.00    -0.626 A  
HETATM   44  N   UNL     1     -12.529  15.373  73.756  1.00  0.00    -0.561 N  
HETATM   45  C   UNL     1     -13.105  14.637  69.599  1.00  0.00     0.623 A  
ENDBRANCH  12  37
ENDBRANCH   3   5
ENDBRANCH   2   3
TORSDOF 11
ENDMDL
MODEL      106
REMARK 921   NORMALIZED FREE ENERGY PREDICTED BY IDOCK:   -4.11 KCAL/MOL
REMARK 922        TOTAL FREE ENERGY PREDICTED BY IDOCK:   -8.61 KCAL/MOL
REMARK 923 INTER-LIGAND FREE ENERGY PREDICTED BY IDOCK:   -7.73 KCAL/MOL
REMARK 924 INTRA-LIGAND FREE ENERGY PREDICTED BY IDOCK:   -0.88 KCAL/MOL
REMARK 927      BINDING AFFINITY PREDICTED BY RF-SCORE:    0.00 PKD
ROOT
HETATM    1  C   UNL     1     -10.746  14.234  64.598  1.00  0.00    -0.365 C  
HETATM    2  O   UNL     1     -10.048  12.987  64.546  1.00  0.00    -0.317 OA 
ENDROOT
BRANCH   2   3
HETATM    3  C   UNL     1     -10.872  11.909  64.526  1.00  0.00    -0.316 C  
HETATM    4  O   UNL     1     -11.532  11.554  63.558  1.00  0.00    -0.404 OA 
BRANCH   3   5
HETATM    5  C   UNL     1     -10.896  11.242  65.854  1.00  0.00    -0.264 C  
HETATM    6  C   UNL     1     -11.509  11.817  66.922  1.00  0.00    -0.293 C  
HETATM    7  N   UNL     1     -11.470  11.185  68.156  1.00  0.00    -0.387 NA 
HETATM    8  C   UNL     1     -12.253  13.128  66.945  1.00  0.00    -0.284 C  
HETATM    9  C   UNL     1     -10.680  10.095  68.455  1.00  0.00    -0.230 C  
HETATM   10  C   UNL     1     -10.573   9.733  69.917  1.00  0.00    -0.301 C  
HETATM   11  C   UNL     1     -10.040   9.445  67.457  1.00  0.00    -0.268 C  
HETATM   12  C   UNL     1     -10.171   9.895  65.998  1.00  0.00    -0.269 C  
BRANCH  11  13
HETATM   13  C   UNL     1      -9.075   8.377  67.794  1.00  0.00    -0.135 C  
HETATM   14  O   UNL     1      -9.404   7.236  68.083  1.00  0.00    -0.132 OA 
BRANCH  13  15
HETATM   15  O   UNL     1      -7.798   8.842  67.763  1.00  0.00    -0.101 OA 
BRANCH  15  16
HETATM   16  C   UNL     1      -7.383   9.433  69.011  1.00  0.00    -0.072 C  
BRANCH  16  17
HETATM   17  C   UNL     1      -6.400  10.581  68.729  1.00  0.00    -0.047 C  
BRANCH  17  18
HETATM   18  N   UNL     1      -6.582  11.809  69.521  1.00  0.00    -0.117 NA 
HETATM   19  C   UNL     1      -5.881  13.539  67.774  1.00  0.00    -0.116 C  
HETATM   20  C   UNL     1      -5.625  12.877  69.153  1.00  0.00    -0.073 C  
HETATM   21  N   UNL     1      -7.244  14.107  67.618  1.00  0.00    -0.170 NA 
HETATM   22  C   UNL     1      -7.962  12.320  69.315  1.00  0.00     0.548 C  
HETATM   23  C   UNL     1      -8.201  13.018  67.948  1.00  0.00    -0.166 C  
BRANCH  21  24
HETATM   24  C   UNL     1      -7.443  15.319  68.472  1.00  0.00    -0.121 C  
BRANCH  24  25
HETATM   25  C   UNL     1      -6.676  16.552  67.966  1.00  0.00    -0.147 A  
HETATM   26  C   UNL     1      -6.590  16.800  66.581  1.00  0.00    -0.216 A  
HETATM   27  C   UNL     1      -6.087  17.485  68.836  1.00  0.00    -0.195 A  
HETATM   28  C   UNL     1      -5.933  17.931  66.090  1.00  0.00    -0.248 A  
HETATM   29  C   UNL     1      -5.336  18.829  66.969  1.00  0.00    -0.140 A  
HETATM   30  C   UNL     1      -5.411  18.605  68.341  1.00  0.00    -0.191 A  
ENDBRANCH  24  25
BRANCH  24  31
HETATM   31  C   UNL     1      -8.930  15.612  68.727  1.00  0.00    -0.205 A  
HETATM   32  C   UNL     1     -11.700  15.870  69.142  1.00  0.00    -0.369 A  
HETATM   33  C   UNL     1     -11.128  16.322  67.956  1.00  0.00    -0.299 A  
HETATM   34  C   UNL     1      -9.522  15.181  69.928  1.00  0.00     0.047 A  
HETATM   35  C   UNL     1      -9.754  16.190  67.747  1.00  0.00    -0.229 A  
HETATM   36  C   UNL     1     -10.898  15.301  70.129  1.00  0.00    -0.302 A  
ENDBRANCH  24  31
ENDBRANCH  21  24
ENDBRANCH  17  18
ENDBRANCH  16  17
ENDBRANCH  15  16
ENDBRANCH  13  15
ENDBRANCH  11  13
BRANCH  12  37
HETATM   37  C   UNL     1      -8.801   9.879  65.300  1.00  0.00    -0.210 A  
HETATM   38  C   UNL     1      -6.528  10.712  65.076  1.00  0.00     0.046 A  
HETATM   39  O   UNL     1      -7.828   6.914  62.563  1.00  0.00    -0.101 OA 
HETATM   40  C   UNL     1      -8.506   8.863  64.368  1.00  0.00    -0.170 A  
HETATM   41  O   UNL     1      -5.780   7.675  62.366  1.00  0.00    -0.057 OA 
HETATM   42  C   UNL     1      -7.227   8.782  63.804  1.00  0.00    -0.096 A  
HETATM   43  C   UNL     1      -6.232   9.698  64.163  1.00  0.00    -0.104 A  
HETATM   44  N   UNL     1      -6.924   7.712  62.842  1.00  0.00    -0.071 N  
HETATM   45  C   UNL     1      -7.805  10.809  65.632  1.00  0.00    -0.076 A  
ENDBRANCH  12  37
ENDBRANCH   3   5
ENDBRANCH   2   3
TORSDOF 11
ENDMDL
MODEL      107
REMARK 921   NORMALIZED FREE ENERGY PREDICTED BY IDOCK:   -4.09 KCAL/MOL
REMARK 922        TOTAL FREE ENERGY PREDICTED BY IDOCK:   -8.58 KCAL/MOL
REMARK 923 INTER-LIGAND FREE ENERGY PREDICTED BY IDOCK:   -7.13 KCAL/MOL
REMARK 924 INTRA-LIGAND FREE ENERGY PREDICTED BY IDOCK:   -1.45 KCAL/MOL
REMARK 927      BINDING AFFINITY PREDICTED BY RF-SCORE:    0.00 PKD
ROOT
HETATM    1  C   UNL     1      -8.411   5.534  73.233  1.00  0.00    -0.117 C  
HETATM    2  O   UNL     1      -9.159   6.272  72.263  1.00  0.00    -0.141 OA 
ENDROOT
BRANCH   2   3
HETATM    3  C   UNL     1      -9.253   7.596  72.548  1.00  0.00    -0.157 C  
HETATM    4  O   UNL     1      -9.683   8.054  73.598  1.00  0.00    -0.215 OA 
BRANCH   3   5
HETATM    5  C   UNL     1      -8.802   8.414  71.392  1.00  0.00    -0.230 C  
HETATM    6  C   UNL     1      -7.550   8.942  71.347  1.00  0.00    -0.084 C  
HETATM    7  N   UNL     1      -7.181   9.739  70.273  1.00  0.00    -0.136 NA 
HETATM    8  C   UNL     1      -6.457   8.776  72.371  1.00  0.00    -0.034 C  
HETATM    9  C   UNL     1      -8.052  10.220  69.318  1.00  0.00    -0.155 C  
HETATM   10  C   UNL     1      -7.507  11.289  68.400  1.00  0.00    -0.108 C  
HETATM   11  C   UNL     1      -9.317   9.745  69.272  1.00  0.00    -0.198 C  
HETATM   12  C   UNL     1      -9.807   8.683  70.262  1.00  0.00    -0.195 C  
BRANCH  11  13
HETATM   13  C   UNL     1     -10.289  10.371  68.352  1.00  0.00    -0.174 C  
HETATM   14  O   UNL     1     -10.629  11.543  68.421  1.00  0.00    -0.185 OA 
BRANCH  13  15
HETATM   15  O   UNL     1     -10.764   9.469  67.453  1.00  0.00    -0.279 OA 
BRANCH  15  16
HETATM   16  C   UNL     1     -10.043   9.485  66.203  1.00  0.00    -0.256 C  
BRANCH  16  17
HETATM   17  C   UNL     1      -8.958   8.397  66.227  1.00  0.00    -0.174 C  
BRANCH  17  18
HETATM   18  N   UNL     1      -9.422   7.006  66.082  1.00  0.00    -0.065 NA 
HETATM   19  C   UNL     1      -7.171   5.802  66.218  1.00  0.00    -0.077 C  
HETATM   20  C   UNL     1      -8.438   6.143  65.391  1.00  0.00    -0.138 C  
HETATM   21  N   UNL     1      -7.456   5.168  67.530  1.00  0.00    -0.082 NA 
HETATM   22  C   UNL     1      -9.684   6.439  67.430  1.00  0.00    -0.121 C  
HETATM   23  C   UNL     1      -8.412   6.061  68.237  1.00  0.00    -0.112 C  
BRANCH  21  24
HETATM   24  C   UNL     1      -7.985   3.778  67.375  1.00  0.00    -0.090 C  
BRANCH  24  25
HETATM   25  C   UNL     1      -7.224   2.951  66.324  1.00  0.00    -0.066 A  
HETATM   26  C   UNL     1      -7.850   2.633  65.102  1.00  0.00    -0.081 A  
HETATM   27  C   UNL     1      -5.896   2.533  66.508  1.00  0.00    -0.022 A  
HETATM   28  C   UNL     1      -7.174   1.916  64.111  1.00  0.00    -0.055 A  
HETATM   29  C   UNL     1      -5.866   1.491  64.325  1.00  0.00    -0.012 A  
HETATM   30  C   UNL     1      -5.229   1.797  65.524  1.00  0.00    -0.005 A  
ENDBRANCH  24  25
BRANCH  24  31
HETATM   31  C   UNL     1      -8.110   3.049  68.721  1.00  0.00    -0.068 A  
HETATM   32  C   UNL     1      -8.546   1.905  71.254  1.00  0.00    -0.091 A  
HETATM   33  C   UNL     1      -7.429   2.706  71.034  1.00  0.00    -0.033 A  
HETATM   34  C   UNL     1      -9.222   2.219  68.957  1.00  0.00    -0.207 A  
HETATM   35  C   UNL     1      -7.214   3.278  69.779  1.00  0.00    -0.041 A  
HETATM   36  C   UNL     1      -9.441   1.660  70.216  1.00  0.00    -0.147 A  
ENDBRANCH  24  31
ENDBRANCH  21  24
ENDBRANCH  17  18
ENDBRANCH  16  17
ENDBRANCH  15  16
ENDBRANCH  13  15
ENDBRANCH  11  13
BRANCH  12  37
HETATM   37  C   UNL     1     -11.210   9.035  70.784  1.00  0.00    -0.329 A  
HETATM   38  C   UNL     1     -13.355   8.364  71.711  1.00  0.00    -0.378 A  
HETATM   39  O   UNL     1     -12.309  12.977  71.474  1.00  0.00    -0.157 OA 
HETATM   40  C   UNL     1     -11.554  10.385  70.999  1.00  0.00    -0.384 A  
HETATM   41  O   UNL     1     -14.243  12.362  72.307  1.00  0.00     0.011 OA 
HETATM   42  C   UNL     1     -12.792  10.708  71.569  1.00  0.00    -0.462 A  
HETATM   43  C   UNL     1     -13.691   9.701  71.936  1.00  0.00    -0.376 A  
HETATM   44  N   UNL     1     -13.138  12.118  71.801  1.00  0.00    -0.420 N  
HETATM   45  C   UNL     1     -12.130   8.034  71.129  1.00  0.00    -0.284 A  
ENDBRANCH  12  37
ENDBRANCH   3   5
ENDBRANCH   2   3
TORSDOF 11
ENDMDL
MODEL      108
REMARK 921   NORMALIZED FREE ENERGY PREDICTED BY IDOCK:   -4.08 KCAL/MOL
REMARK 922        TOTAL FREE ENERGY PREDICTED BY IDOCK:   -8.57 KCAL/MOL
REMARK 923 INTER-LIGAND FREE ENERGY PREDICTED BY IDOCK:   -7.57 KCAL/MOL
REMARK 924 INTRA-LIGAND FREE ENERGY PREDICTED BY IDOCK:   -1.00 KCAL/MOL
REMARK 927      BINDING AFFINITY PREDICTED BY RF-SCORE:    0.00 PKD
ROOT
HETATM    1  C   UNL     1      -6.519   3.010  70.404  1.00  0.00    -0.032 C  
HETATM    2  O   UNL     1      -7.060   4.290  70.065  1.00  0.00    -0.041 OA 
ENDROOT
BRANCH   2   3
HETATM    3  C   UNL     1      -7.281   5.085  71.143  1.00  0.00    -0.064 C  
HETATM    4  O   UNL     1      -7.786   4.711  72.193  1.00  0.00    -0.092 OA 
BRANCH   3   5
HETATM    5  C   UNL     1      -6.863   6.483  70.859  1.00  0.00    -0.063 C  
HETATM    6  C   UNL     1      -5.941   7.115  71.631  1.00  0.00    -0.037 C  
HETATM    7  N   UNL     1      -5.611   8.435  71.362  1.00  0.00    -0.034 NA 
HETATM    8  C   UNL     1      -5.200   6.543  72.812  1.00  0.00    -0.036 C  
HETATM    9  C   UNL     1      -6.293   9.250  70.483  1.00  0.00    -0.062 C  
HETATM   10  C   UNL     1      -5.953  10.721  70.541  1.00  0.00    -0.122 C  
HETATM   11  C   UNL     1      -7.221   8.712  69.661  1.00  0.00    -0.052 C  
HETATM   12  C   UNL     1      -7.535   7.212  69.685  1.00  0.00    -0.098 C  
BRANCH  11  13
HETATM   13  C   UNL     1      -8.057   9.605  68.832  1.00  0.00    -0.098 C  
HETATM   14  O   UNL     1      -9.080  10.140  69.234  1.00  0.00    -0.175 OA 
BRANCH  13  15
HETATM   15  O   UNL     1      -7.551   9.725  67.576  1.00  0.00    -0.091 OA 
BRANCH  15  16
HETATM   16  C   UNL     1      -6.637  10.832  67.438  1.00  0.00    -0.071 C  
BRANCH  16  17
HETATM   17  C   UNL     1      -7.418  12.086  67.012  1.00  0.00    -0.106 C  
BRANCH  17  18
HETATM   18  N   UNL     1      -7.453  13.196  67.979  1.00  0.00    -0.117 NA 
HETATM   19  C   UNL     1      -8.361  15.042  66.461  1.00  0.00     0.033 C  
HETATM   20  C   UNL     1      -7.205  14.513  67.351  1.00  0.00    -0.137 C  
HETATM   21  N   UNL     1      -9.669  15.134  67.158  1.00  0.00    -0.225 NA 
HETATM   22  C   UNL     1      -8.786  13.228  68.634  1.00  0.00     0.038 C  
HETATM   23  C   UNL     1      -9.932  13.797  67.752  1.00  0.00    -0.242 C  
BRANCH  21  24
HETATM   24  C   UNL     1      -9.679  16.223  68.183  1.00  0.00    -0.227 C  
BRANCH  24  25
HETATM   25  C   UNL     1      -9.771  17.632  67.572  1.00  0.00    -0.280 A  
HETATM   26  C   UNL     1      -9.399  18.752  68.344  1.00  0.00    -0.382 A  
HETATM   27  C   UNL     1     -10.170  17.856  66.245  1.00  0.00    -0.363 A  
HETATM   28  C   UNL     1      -9.434  20.042  67.808  1.00  0.00    -0.486 A  
HETATM   29  C   UNL     1      -9.857  20.242  66.497  1.00  0.00    -0.531 A  
HETATM   30  C   UNL     1     -10.227  19.149  65.717  1.00  0.00    -0.270 A  
ENDBRANCH  24  25
BRANCH  24  31
HETATM   31  C   UNL     1     -10.731  15.984  69.277  1.00  0.00    -0.275 A  
HETATM   32  C   UNL     1     -12.565  15.272  71.287  1.00  0.00    -0.449 A  
HETATM   33  C   UNL     1     -12.997  15.427  69.973  1.00  0.00     0.002 A  
HETATM   34  C   UNL     1     -10.317  15.845  70.615  1.00  0.00     0.283 A  
HETATM   35  C   UNL     1     -12.087  15.775  68.973  1.00  0.00    -0.190 A  
HETATM   36  C   UNL     1     -11.227  15.482  71.609  1.00  0.00    -0.388 A  
ENDBRANCH  24  31
ENDBRANCH  21  24
ENDBRANCH  17  18
ENDBRANCH  16  17
ENDBRANCH  15  16
ENDBRANCH  13  15
ENDBRANCH  11  13
BRANCH  12  37
HETATM   37  C   UNL     1      -9.053   6.975  69.629  1.00  0.00    -0.144 A  
HETATM   38  C   UNL     1     -11.024   6.128  68.484  1.00  0.00    -0.404 A  
HETATM   39  O   UNL     1     -11.447   7.625  72.957  1.00  0.00    -0.342 OA 
HETATM   40  C   UNL     1      -9.839   7.215  70.774  1.00  0.00    -0.180 A  
HETATM   41  O   UNL     1     -13.219   6.862  71.915  1.00  0.00    -0.307 OA 
HETATM   42  C   UNL     1     -11.205   6.906  70.763  1.00  0.00    -0.294 A  
HETATM   43  C   UNL     1     -11.799   6.353  69.623  1.00  0.00     0.013 A  
HETATM   44  N   UNL     1     -12.014   7.148  71.966  1.00  0.00    -0.296 N  
HETATM   45  C   UNL     1      -9.665   6.447  68.482  1.00  0.00    -0.134 A  
ENDBRANCH  12  37
ENDBRANCH   3   5
ENDBRANCH   2   3
TORSDOF 11
ENDMDL
MODEL      109
REMARK 921   NORMALIZED FREE ENERGY PREDICTED BY IDOCK:   -4.08 KCAL/MOL
REMARK 922        TOTAL FREE ENERGY PREDICTED BY IDOCK:   -8.57 KCAL/MOL
REMARK 923 INTER-LIGAND FREE ENERGY PREDICTED BY IDOCK:  -11.83 KCAL/MOL
REMARK 924 INTRA-LIGAND FREE ENERGY PREDICTED BY IDOCK:    3.27 KCAL/MOL
REMARK 927      BINDING AFFINITY PREDICTED BY RF-SCORE:    0.00 PKD
ROOT
HETATM    1  C   UNL     1     -10.702   5.476  66.486  1.00  0.00    -0.240 C  
HETATM    2  O   UNL     1     -10.590   6.894  66.629  1.00  0.00    -0.233 OA 
ENDROOT
BRANCH   2   3
HETATM    3  C   UNL     1      -9.598   7.274  67.475  1.00  0.00    -0.141 C  
HETATM    4  O   UNL     1      -8.471   6.797  67.486  1.00  0.00    -0.121 OA 
BRANCH   3   5
HETATM    5  C   UNL     1     -10.082   8.319  68.414  1.00  0.00    -0.227 C  
HETATM    6  C   UNL     1     -10.945   8.020  69.421  1.00  0.00    -0.009 C  
HETATM    7  N   UNL     1     -11.409   9.032  70.248  1.00  0.00    -0.223 NA 
HETATM    8  C   UNL     1     -11.503   6.663  69.764  1.00  0.00    -0.388 C  
HETATM    9  C   UNL     1     -11.226  10.379  70.019  1.00  0.00    -0.316 C  
HETATM   10  C   UNL     1     -12.041  11.316  70.879  1.00  0.00    -0.406 C  
HETATM   11  C   UNL     1     -10.374  10.778  69.048  1.00  0.00    -0.235 C  
HETATM   12  C   UNL     1      -9.607   9.764  68.192  1.00  0.00    -0.158 C  
BRANCH  11  13
HETATM   13  C   UNL     1     -10.296  12.212  68.701  1.00  0.00    -0.195 C  
HETATM   14  O   UNL     1      -9.253  12.851  68.693  1.00  0.00    -0.102 OA 
BRANCH  13  15
HETATM   15  O   UNL     1     -11.527  12.718  68.425  1.00  0.00    -0.265 OA 
BRANCH  15  16
HETATM   16  C   UNL     1     -11.507  14.136  68.159  1.00  0.00    -0.310 C  
BRANCH  16  17
HETATM   17  C   UNL     1     -10.828  14.391  66.804  1.00  0.00    -0.301 C  
BRANCH  17  18
HETATM   18  N   UNL     1     -10.367  15.767  66.551  1.00  0.00    -0.286 NA 
HETATM   19  C   UNL     1      -9.331  16.283  68.831  1.00  0.00    -0.248 C  
HETATM   20  C   UNL     1     -10.405  16.617  67.762  1.00  0.00    -0.306 C  
HETATM   21  N   UNL     1      -7.937  16.319  68.321  1.00  0.00    -0.160 NA 
HETATM   22  C   UNL     1      -8.970  15.725  66.047  1.00  0.00    -0.287 C  
HETATM   23  C   UNL     1      -7.895  15.431  67.129  1.00  0.00    -0.214 C  
BRANCH  21  24
HETATM   24  C   UNL     1      -7.494  17.713  68.008  1.00  0.00    -0.223 C  
BRANCH  24  25
HETATM   25  C   UNL     1      -8.652  18.642  67.603  1.00  0.00    -0.288 A  
HETATM   26  C   UNL     1      -9.468  19.213  68.600  1.00  0.00    -0.460 A  
HETATM   27  C   UNL     1      -8.908  18.992  66.267  1.00  0.00    -0.285 A  
HETATM   28  C   UNL     1     -10.503  20.091  68.270  1.00  0.00    -0.409 A  
HETATM   29  C   UNL     1     -10.755  20.404  66.937  1.00  0.00     0.144 A  
HETATM   30  C   UNL     1      -9.959  19.853  65.937  1.00  0.00    -0.489 A  
ENDBRANCH  24  25
BRANCH  24  31
HETATM   31  C   UNL     1      -6.620  18.310  69.120  1.00  0.00    -0.265 A  
HETATM   32  C   UNL     1      -5.220  19.313  71.344  1.00  0.00    -0.340 A  
HETATM   33  C   UNL     1      -5.923  20.182  70.514  1.00  0.00    -0.382 A  
HETATM   34  C   UNL     1      -5.886  17.450  69.958  1.00  0.00    -0.228 A  
HETATM   35  C   UNL     1      -6.622  19.684  69.413  1.00  0.00    -0.383 A  
HETATM   36  C   UNL     1      -5.199  17.949  71.067  1.00  0.00    -0.241 A  
ENDBRANCH  24  31
ENDBRANCH  21  24
ENDBRANCH  17  18
ENDBRANCH  16  17
ENDBRANCH  15  16
ENDBRANCH  13  15
ENDBRANCH  11  13
BRANCH  12  37
HETATM   37  C   UNL     1      -9.630  10.176  66.711  1.00  0.00    -0.222 A  
HETATM   38  C   UNL     1      -8.714  10.052  64.463  1.00  0.00    -0.214 A  
HETATM   39  O   UNL     1     -12.821  12.313  65.135  1.00  0.00    -0.522 OA 
HETATM   40  C   UNL     1     -10.725  10.910  66.210  1.00  0.00    -0.241 A  
HETATM   41  O   UNL     1     -11.985  12.197  63.111  1.00  0.00    -0.390 OA 
HETATM   42  C   UNL     1     -10.803  11.203  64.843  1.00  0.00    -0.190 A  
HETATM   43  C   UNL     1      -9.805  10.767  63.964  1.00  0.00    -0.390 A  
HETATM   44  N   UNL     1     -11.954  11.958  64.326  1.00  0.00    -0.297 N  
HETATM   45  C   UNL     1      -8.621   9.769  65.827  1.00  0.00    -0.147 A  
ENDBRANCH  12  37
ENDBRANCH   3   5
ENDBRANCH   2   3
TORSDOF 11
ENDMDL
MODEL      110
REMARK 921   NORMALIZED FREE ENERGY PREDICTED BY IDOCK:   -4.03 KCAL/MOL
REMARK 922        TOTAL FREE ENERGY PREDICTED BY IDOCK:   -8.48 KCAL/MOL
REMARK 923 INTER-LIGAND FREE ENERGY PREDICTED BY IDOCK:   -6.26 KCAL/MOL
REMARK 924 INTRA-LIGAND FREE ENERGY PREDICTED BY IDOCK:   -2.22 KCAL/MOL
REMARK 927      BINDING AFFINITY PREDICTED BY RF-SCORE:    0.00 PKD
ROOT
HETATM    1  C   UNL     1      -8.464   8.593  64.212  1.00  0.00    -0.084 C  
HETATM    2  O   UNL     1      -7.935   9.426  65.247  1.00  0.00    -0.105 OA 
ENDROOT
BRANCH   2   3
HETATM    3  C   UNL     1      -6.740   8.996  65.727  1.00  0.00    -0.072 C  
HETATM    4  O   UNL     1      -5.911   8.372  65.078  1.00  0.00    -0.048 OA 
BRANCH   3   5
HETATM    5  C   UNL     1      -6.594   9.349  67.164  1.00  0.00    -0.071 C  
HETATM    6  C   UNL     1      -5.868  10.429  67.555  1.00  0.00    -0.045 C  
HETATM    7  N   UNL     1      -5.717  10.699  68.907  1.00  0.00    -0.041 NA 
HETATM    8  C   UNL     1      -5.156  11.415  66.665  1.00  0.00    -0.118 C  
HETATM    9  C   UNL     1      -6.080   9.841  69.924  1.00  0.00    -0.045 C  
HETATM   10  C   UNL     1      -5.581  10.198  71.304  1.00  0.00    -0.044 C  
HETATM   11  C   UNL     1      -6.818   8.745  69.637  1.00  0.00    -0.046 C  
HETATM   12  C   UNL     1      -7.259   8.432  68.202  1.00  0.00    -0.091 C  
BRANCH  11  13
HETATM   13  C   UNL     1      -7.075   7.750  70.699  1.00  0.00    -0.049 C  
HETATM   14  O   UNL     1      -6.199   7.274  71.406  1.00  0.00    -0.037 OA 
BRANCH  13  15
HETATM   15  O   UNL     1      -8.393   7.425  70.758  1.00  0.00    -0.116 OA 
BRANCH  15  16
HETATM   16  C   UNL     1      -9.253   8.575  70.897  1.00  0.00    -0.175 C  
BRANCH  16  17
HETATM   17  C   UNL     1     -10.413   8.467  69.894  1.00  0.00    -0.222 C  
BRANCH  17  18
HETATM   18  N   UNL     1     -11.208   9.688  69.678  1.00  0.00    -0.189 NA 
HETATM   19  C   UNL     1      -9.340  11.274  68.947  1.00  0.00    -0.072 C  
HETATM   20  C   UNL     1     -10.450  10.925  69.973  1.00  0.00     0.223 C  
HETATM   21  N   UNL     1      -9.821  11.385  67.547  1.00  0.00    -0.177 NA 
HETATM   22  C   UNL     1     -11.652   9.733  68.261  1.00  0.00     0.524 C  
HETATM   23  C   UNL     1     -10.546  10.123  67.243  1.00  0.00    -0.261 C  
BRANCH  21  24
HETATM   24  C   UNL     1     -10.679  12.595  67.347  1.00  0.00    -0.229 C  
BRANCH  24  25
HETATM   25  C   UNL     1     -10.088  13.869  67.975  1.00  0.00    -0.244 A  
HETATM   26  C   UNL     1      -8.843  14.353  67.526  1.00  0.00    -0.197 A  
HETATM   27  C   UNL     1     -10.764  14.611  68.956  1.00  0.00    -0.253 A  
HETATM   28  C   UNL     1      -8.295  15.529  68.048  1.00  0.00    -0.142 A  
HETATM   29  C   UNL     1      -8.972  16.235  69.038  1.00  0.00    -0.254 A  
HETATM   30  C   UNL     1     -10.204  15.775  69.493  1.00  0.00    -0.271 A  
ENDBRANCH  24  25
BRANCH  24  31
HETATM   31  C   UNL     1     -11.075  12.791  65.876  1.00  0.00    -0.318 A  
HETATM   32  C   UNL     1     -12.048  13.014  63.246  1.00  0.00    -0.499 A  
HETATM   33  C   UNL     1     -11.074  12.067  63.551  1.00  0.00    -0.519 A  
HETATM   34  C   UNL     1     -12.044  13.756  65.545  1.00  0.00    -0.434 A  
HETATM   35  C   UNL     1     -10.594  11.952  64.857  1.00  0.00    -0.333 A  
HETATM   36  C   UNL     1     -12.532  13.859  64.241  1.00  0.00    -0.305 A  
ENDBRANCH  24  31
ENDBRANCH  21  24
ENDBRANCH  17  18
ENDBRANCH  16  17
ENDBRANCH  15  16
ENDBRANCH  13  15
ENDBRANCH  11  13
BRANCH  12  37
HETATM   37  C   UNL     1      -7.065   6.940  67.890  1.00  0.00    -0.086 A  
HETATM   38  C   UNL     1      -5.694   4.932  67.907  1.00  0.00    -0.017 A  
HETATM   39  O   UNL     1     -10.259   4.572  66.696  1.00  0.00    -0.233 OA 
HETATM   40  C   UNL     1      -8.169   6.166  67.477  1.00  0.00    -0.109 A  
HETATM   41  O   UNL     1      -9.013   2.767  66.713  1.00  0.00    -0.138 OA 
HETATM   42  C   UNL     1      -8.024   4.786  67.288  1.00  0.00    -0.102 A  
HETATM   43  C   UNL     1      -6.791   4.163  67.512  1.00  0.00    -0.051 A  
HETATM   44  N   UNL     1      -9.183   3.984  66.870  1.00  0.00    -0.153 N  
HETATM   45  C   UNL     1      -5.827   6.310  68.083  1.00  0.00    -0.013 A  
ENDBRANCH  12  37
ENDBRANCH   3   5
ENDBRANCH   2   3
TORSDOF 11
ENDMDL
MODEL      111
REMARK 921   NORMALIZED FREE ENERGY PREDICTED BY IDOCK:   -4.02 KCAL/MOL
REMARK 922        TOTAL FREE ENERGY PREDICTED BY IDOCK:   -8.47 KCAL/MOL
REMARK 923 INTER-LIGAND FREE ENERGY PREDICTED BY IDOCK:   -8.24 KCAL/MOL
REMARK 924 INTRA-LIGAND FREE ENERGY PREDICTED BY IDOCK:   -0.24 KCAL/MOL
REMARK 927      BINDING AFFINITY PREDICTED BY RF-SCORE:    0.00 PKD
ROOT
HETATM    1  C   UNL     1      -8.278  20.105  67.361  1.00  0.00    -0.340 C  
HETATM    2  O   UNL     1      -8.399  18.691  67.545  1.00  0.00    -0.261 OA 
ENDROOT
BRANCH   2   3
HETATM    3  C   UNL     1      -8.061  17.974  66.443  1.00  0.00    -0.260 C  
HETATM    4  O   UNL     1      -7.027  18.121  65.805  1.00  0.00    -0.364 OA 
BRANCH   3   5
HETATM    5  C   UNL     1      -9.140  17.014  66.091  1.00  0.00    -0.239 C  
HETATM    6  C   UNL     1     -10.380  17.443  65.736  1.00  0.00    -0.216 C  
HETATM    7  N   UNL     1     -11.373  16.515  65.460  1.00  0.00     0.238 NA 
HETATM    8  C   UNL     1     -10.844  18.872  65.608  1.00  0.00    -0.117 C  
HETATM    9  C   UNL     1     -11.274  15.163  65.709  1.00  0.00    -0.287 C  
HETATM   10  C   UNL     1     -12.556  14.371  65.599  1.00  0.00    -0.337 C  
HETATM   11  C   UNL     1     -10.078  14.636  66.055  1.00  0.00    -0.330 C  
HETATM   12  C   UNL     1      -8.826  15.513  66.180  1.00  0.00    -0.273 C  
BRANCH  11  13
HETATM   13  C   UNL     1     -10.005  13.220  66.470  1.00  0.00    -0.280 C  
HETATM   14  O   UNL     1     -10.271  12.832  67.599  1.00  0.00    -0.213 OA 
BRANCH  13  15
HETATM   15  O   UNL     1      -9.583  12.430  65.448  1.00  0.00    -0.163 OA 
BRANCH  15  16
HETATM   16  C   UNL     1     -10.333  11.203  65.337  1.00  0.00    -0.271 C  
BRANCH  16  17
HETATM   17  C   UNL     1      -9.554  10.067  66.021  1.00  0.00    -0.222 C  
BRANCH  17  18
HETATM   18  N   UNL     1     -10.357   8.966  66.581  1.00  0.00    -0.257 NA 
HETATM   19  C   UNL     1      -8.474   7.504  67.502  1.00  0.00    -0.119 C  
HETATM   20  C   UNL     1      -9.663   7.660  66.519  1.00  0.00    -0.181 C  
HETATM   21  N   UNL     1      -8.828   7.738  68.925  1.00  0.00    -0.135 NA 
HETATM   22  C   UNL     1     -10.672   9.268  68.001  1.00  0.00    -0.174 C  
HETATM   23  C   UNL     1      -9.487   9.070  68.987  1.00  0.00    -0.155 C  
BRANCH  21  24
HETATM   24  C   UNL     1      -9.696   6.649  69.470  1.00  0.00    -0.149 C  
BRANCH  24  25
HETATM   25  C   UNL     1      -9.140   5.239  69.204  1.00  0.00    -0.136 A  
HETATM   26  C   UNL     1      -8.023   4.782  69.932  1.00  0.00    -0.069 A  
HETATM   27  C   UNL     1      -9.732   4.353  68.290  1.00  0.00    -0.171 A  
HETATM   28  C   UNL     1      -7.516   3.494  69.743  1.00  0.00    -0.045 A  
HETATM   29  C   UNL     1      -8.104   2.641  68.814  1.00  0.00    -0.066 A  
HETATM   30  C   UNL     1      -9.210   3.072  68.086  1.00  0.00    -0.248 A  
ENDBRANCH  24  25
BRANCH  24  31
HETATM   31  C   UNL     1     -10.053   6.873  70.947  1.00  0.00    -0.207 A  
HETATM   32  C   UNL     1     -10.592   7.025  73.704  1.00  0.00    -0.383 A  
HETATM   33  C   UNL     1     -11.619   6.741  72.808  1.00  0.00    -0.105 A  
HETATM   34  C   UNL     1      -9.033   7.181  71.866  1.00  0.00    -0.135 A  
HETATM   35  C   UNL     1     -11.352   6.660  71.440  1.00  0.00    -0.335 A  
HETATM   36  C   UNL     1      -9.300   7.246  73.234  1.00  0.00    -0.226 A  
ENDBRANCH  24  31
ENDBRANCH  21  24
ENDBRANCH  17  18
ENDBRANCH  16  17
ENDBRANCH  15  16
ENDBRANCH  13  15
ENDBRANCH  11  13
BRANCH  12  37
HETATM   37  C   UNL     1      -8.030  15.144  67.442  1.00  0.00    -0.215 A  
HETATM   38  C   UNL     1      -7.450  15.537  69.770  1.00  0.00    -0.081 A  
HETATM   39  O   UNL     1      -5.862  11.611  67.650  1.00  0.00    -0.048 OA 
HETATM   40  C   UNL     1      -7.296  13.941  67.476  1.00  0.00    -0.181 A  
HETATM   41  O   UNL     1      -5.342  11.975  69.749  1.00  0.00    -0.071 OA 
HETATM   42  C   UNL     1      -6.651  13.549  68.656  1.00  0.00    -0.098 A  
HETATM   43  C   UNL     1      -6.734  14.338  69.808  1.00  0.00    -0.095 A  
HETATM   44  N   UNL     1      -5.898  12.286  68.687  1.00  0.00    -0.053 N  
HETATM   45  C   UNL     1      -8.083  15.943  68.594  1.00  0.00    -0.162 A  
ENDBRANCH  12  37
ENDBRANCH   3   5
ENDBRANCH   2   3
TORSDOF 11
ENDMDL
MODEL      112
REMARK 921   NORMALIZED FREE ENERGY PREDICTED BY IDOCK:   -3.91 KCAL/MOL
REMARK 922        TOTAL FREE ENERGY PREDICTED BY IDOCK:   -8.29 KCAL/MOL
REMARK 923 INTER-LIGAND FREE ENERGY PREDICTED BY IDOCK:  -10.46 KCAL/MOL
REMARK 924 INTRA-LIGAND FREE ENERGY PREDICTED BY IDOCK:    2.17 KCAL/MOL
REMARK 927      BINDING AFFINITY PREDICTED BY RF-SCORE:    0.00 PKD
ROOT
HETATM    1  C   UNL     1     -10.720   5.610  66.817  1.00  0.00    -0.284 C  
HETATM    2  O   UNL     1      -9.871   6.760  66.875  1.00  0.00    -0.157 OA 
ENDROOT
BRANCH   2   3
HETATM    3  C   UNL     1      -9.283   6.935  68.086  1.00  0.00    -0.126 C  
HETATM    4  O   UNL     1      -8.380   6.238  68.530  1.00  0.00    -0.114 OA 
BRANCH   3   5
HETATM    5  C   UNL     1      -9.915   8.064  68.817  1.00  0.00    -0.196 C  
HETATM    6  C   UNL     1     -10.906   7.852  69.723  1.00  0.00    -0.202 C  
HETATM    7  N   UNL     1     -11.502   8.936  70.352  1.00  0.00    -0.210 NA 
HETATM    8  C   UNL     1     -11.480   6.524  70.147  1.00  0.00    -0.477 C  
HETATM    9  C   UNL     1     -11.315  10.252  69.990  1.00  0.00    -0.301 C  
HETATM   10  C   UNL     1     -12.262  11.253  70.610  1.00  0.00    -0.489 C  
HETATM   11  C   UNL     1     -10.343  10.567  69.105  1.00  0.00    -0.240 C  
HETATM   12  C   UNL     1      -9.443   9.489  68.491  1.00  0.00    -0.146 C  
BRANCH  11  13
HETATM   13  C   UNL     1     -10.245  11.954  68.603  1.00  0.00    -0.191 C  
HETATM   14  O   UNL     1      -9.221  12.620  68.652  1.00  0.00    -0.106 OA 
BRANCH  13  15
HETATM   15  O   UNL     1     -11.437  12.384  68.115  1.00  0.00    -0.271 OA 
BRANCH  15  16
HETATM   16  C   UNL     1     -11.473  13.809  67.889  1.00  0.00    -0.314 C  
BRANCH  16  17
HETATM   17  C   UNL     1     -10.689  14.141  66.609  1.00  0.00    -0.289 C  
BRANCH  17  18
HETATM   18  N   UNL     1     -10.304  15.550  66.423  1.00  0.00    -0.285 NA 
HETATM   19  C   UNL     1      -9.257  15.999  68.712  1.00  0.00    -0.224 C  
HETATM   20  C   UNL     1     -10.365  16.332  67.679  1.00  0.00    -0.284 C  
HETATM   21  N   UNL     1      -7.875  16.136  68.184  1.00  0.00    -0.143 NA 
HETATM   22  C   UNL     1      -8.916  15.609  65.897  1.00  0.00    -0.154 C  
HETATM   23  C   UNL     1      -7.808  15.316  66.946  1.00  0.00    -0.117 C  
BRANCH  21  24
HETATM   24  C   UNL     1      -7.511  17.566  67.939  1.00  0.00    -0.205 C  
BRANCH  24  25
HETATM   25  C   UNL     1      -8.729  18.463  67.656  1.00  0.00    -0.268 A  
HETATM   26  C   UNL     1      -9.440  19.033  68.731  1.00  0.00    -0.433 A  
HETATM   27  C   UNL     1      -9.143  18.785  66.353  1.00  0.00    -0.305 A  
HETATM   28  C   UNL     1     -10.526  19.883  68.509  1.00  0.00    -0.341 A  
HETATM   29  C   UNL     1     -10.934  20.169  67.209  1.00  0.00     0.044 A  
HETATM   30  C   UNL     1     -10.244  19.618  66.133  1.00  0.00    -0.604 A  
ENDBRANCH  24  25
BRANCH  24  31
HETATM   31  C   UNL     1      -6.604  18.133  69.042  1.00  0.00    -0.253 A  
HETATM   32  C   UNL     1      -5.163  19.126  71.244  1.00  0.00    -0.312 A  
HETATM   33  C   UNL     1      -5.705  20.006  70.312  1.00  0.00    -0.339 A  
HETATM   34  C   UNL     1      -6.031  17.258  69.983  1.00  0.00    -0.186 A  
HETATM   35  C   UNL     1      -6.425  19.515  69.221  1.00  0.00    -0.359 A  
HETATM   36  C   UNL     1      -5.324  17.752  71.080  1.00  0.00    -0.156 A  
ENDBRANCH  24  31
ENDBRANCH  21  24
ENDBRANCH  17  18
ENDBRANCH  16  17
ENDBRANCH  15  16
ENDBRANCH  13  15
ENDBRANCH  11  13
BRANCH  12  37
HETATM   37  C   UNL     1      -9.264   9.726  66.983  1.00  0.00    -0.166 A  
HETATM   38  C   UNL     1     -10.176  10.324  64.810  1.00  0.00    -0.238 A  
HETATM   39  O   UNL     1      -5.485   9.858  65.270  1.00  0.00    -0.049 OA 
HETATM   40  C   UNL     1      -7.967   9.755  66.431  1.00  0.00    -0.109 A  
HETATM   41  O   UNL     1      -6.318  10.395  63.313  1.00  0.00    -0.143 OA 
HETATM   42  C   UNL     1      -7.789  10.071  65.078  1.00  0.00    -0.137 A  
HETATM   43  C   UNL     1      -8.890  10.366  64.267  1.00  0.00    -0.224 A  
HETATM   44  N   UNL     1      -6.432  10.112  64.514  1.00  0.00    -0.130 N  
HETATM   45  C   UNL     1     -10.363   9.996  66.154  1.00  0.00    -0.225 A  
ENDBRANCH  12  37
ENDBRANCH   3   5
ENDBRANCH   2   3
TORSDOF 11
ENDMDL
MODEL      113
REMARK 921   NORMALIZED FREE ENERGY PREDICTED BY IDOCK:   -3.88 KCAL/MOL
REMARK 922        TOTAL FREE ENERGY PREDICTED BY IDOCK:   -8.24 KCAL/MOL
REMARK 923 INTER-LIGAND FREE ENERGY PREDICTED BY IDOCK:   -8.30 KCAL/MOL
REMARK 924 INTRA-LIGAND FREE ENERGY PREDICTED BY IDOCK:    0.07 KCAL/MOL
REMARK 927      BINDING AFFINITY PREDICTED BY RF-SCORE:    0.00 PKD
ROOT
HETATM    1  C   UNL     1      -9.302   4.025  68.057  1.00  0.00    -0.169 C  
HETATM    2  O   UNL     1      -9.558   4.876  69.178  1.00  0.00    -0.135 OA 
ENDROOT
BRANCH   2   3
HETATM    3  C   UNL     1      -8.769   5.981  69.206  1.00  0.00    -0.117 C  
HETATM    4  O   UNL     1      -7.604   5.996  69.580  1.00  0.00    -0.088 OA 
BRANCH   3   5
HETATM    5  C   UNL     1      -9.528   7.179  68.760  1.00  0.00    -0.141 C  
HETATM    6  C   UNL     1      -9.202   7.835  67.616  1.00  0.00    -0.136 C  
HETATM    7  N   UNL     1      -9.905   8.976  67.258  1.00  0.00    -0.181 NA 
HETATM    8  C   UNL     1      -8.111   7.474  66.641  1.00  0.00    -0.123 C  
HETATM    9  C   UNL     1     -10.798   9.637  68.075  1.00  0.00    -0.196 C  
HETATM   10  C   UNL     1     -11.242  11.003  67.607  1.00  0.00    -0.373 C  
HETATM   11  C   UNL     1     -11.196   9.058  69.230  1.00  0.00     0.151 C  
HETATM   12  C   UNL     1     -10.673   7.680  69.654  1.00  0.00    -0.230 C  
BRANCH  11  13
HETATM   13  C   UNL     1     -12.029   9.830  70.175  1.00  0.00    -0.021 C  
HETATM   14  O   UNL     1     -13.025   9.379  70.723  1.00  0.00    -0.125 OA 
BRANCH  13  15
HETATM   15  O   UNL     1     -11.557  11.095  70.325  1.00  0.00    -0.307 OA 
BRANCH  15  16
HETATM   16  C   UNL     1     -12.550  12.012  70.830  1.00  0.00    -0.253 C  
BRANCH  16  17
HETATM   17  C   UNL     1     -12.187  13.443  70.401  1.00  0.00    -0.345 C  
BRANCH  17  18
HETATM   18  N   UNL     1     -11.334  13.572  69.207  1.00  0.00    -0.267 NA 
HETATM   19  C   UNL     1     -11.651  16.065  68.738  1.00  0.00    -0.351 C  
HETATM   20  C   UNL     1     -11.823  14.599  68.261  1.00  0.00    -0.298 C  
HETATM   21  N   UNL     1     -10.254  16.428  69.087  1.00  0.00    -0.263 NA 
HETATM   22  C   UNL     1      -9.958  13.937  69.631  1.00  0.00     0.735 C  
HETATM   23  C   UNL     1      -9.782  15.417  70.070  1.00  0.00    -0.034 C  
BRANCH  21  24
HETATM   24  C   UNL     1      -9.378  16.498  67.877  1.00  0.00    -0.216 C  
BRANCH  24  25
HETATM   25  C   UNL     1      -9.381  17.880  67.202  1.00  0.00    -0.265 A  
HETATM   26  C   UNL     1     -10.606  18.536  66.965  1.00  0.00    -0.421 A  
HETATM   27  C   UNL     1      -8.199  18.552  66.849  1.00  0.00    -0.266 A  
HETATM   28  C   UNL     1     -10.643  19.809  66.389  1.00  0.00    -0.575 A  
HETATM   29  C   UNL     1      -9.460  20.445  66.024  1.00  0.00    -0.182 A  
HETATM   30  C   UNL     1      -8.239  19.816  66.252  1.00  0.00    -0.372 A  
ENDBRANCH  24  25
BRANCH  24  31
HETATM   31  C   UNL     1      -7.958  15.981  68.156  1.00  0.00    -0.142 A  
HETATM   32  C   UNL     1      -5.262  15.280  68.547  1.00  0.00    -0.099 A  
HETATM   33  C   UNL     1      -5.993  14.689  67.521  1.00  0.00     0.066 A  
HETATM   34  C   UNL     1      -7.209  16.551  69.202  1.00  0.00    -0.226 A  
HETATM   35  C   UNL     1      -7.330  15.040  67.322  1.00  0.00    -0.195 A  
HETATM   36  C   UNL     1      -5.869  16.209  69.389  1.00  0.00    -0.141 A  
ENDBRANCH  24  31
ENDBRANCH  21  24
ENDBRANCH  17  18
ENDBRANCH  16  17
ENDBRANCH  15  16
ENDBRANCH  13  15
ENDBRANCH  11  13
BRANCH  12  37
HETATM   37  C   UNL     1     -10.308   7.675  71.147  1.00  0.00    -0.212 A  
HETATM   38  C   UNL     1     -10.720   6.934  73.426  1.00  0.00    -0.352 A  
HETATM   39  O   UNL     1      -6.748   9.336  72.487  1.00  0.00    -0.298 OA 
HETATM   40  C   UNL     1      -9.096   8.257  71.570  1.00  0.00    -0.229 A  
HETATM   41  O   UNL     1      -7.130   8.665  74.540  1.00  0.00    -0.260 OA 
HETATM   42  C   UNL     1      -8.708   8.167  72.913  1.00  0.00    -0.224 A  
HETATM   43  C   UNL     1      -9.512   7.498  73.842  1.00  0.00    -0.286 A  
HETATM   44  N   UNL     1      -7.436   8.765  73.343  1.00  0.00     0.137 N  
HETATM   45  C   UNL     1     -11.121   7.031  72.092  1.00  0.00    -0.279 A  
ENDBRANCH  12  37
ENDBRANCH   3   5
ENDBRANCH   2   3
TORSDOF 11
ENDMDL
MODEL      114
REMARK 921   NORMALIZED FREE ENERGY PREDICTED BY IDOCK:   -3.84 KCAL/MOL
REMARK 922        TOTAL FREE ENERGY PREDICTED BY IDOCK:   -8.17 KCAL/MOL
REMARK 923 INTER-LIGAND FREE ENERGY PREDICTED BY IDOCK:   -7.86 KCAL/MOL
REMARK 924 INTRA-LIGAND FREE ENERGY PREDICTED BY IDOCK:   -0.31 KCAL/MOL
REMARK 927      BINDING AFFINITY PREDICTED BY RF-SCORE:    0.00 PKD
ROOT
HETATM    1  C   UNL     1     -11.573  16.553  64.300  1.00  0.00     0.333 C  
HETATM    2  O   UNL     1     -10.859  15.387  64.722  1.00  0.00    -0.422 OA 
ENDROOT
BRANCH   2   3
HETATM    3  C   UNL     1     -11.667  14.335  65.010  1.00  0.00    -0.383 C  
HETATM    4  O   UNL     1     -12.875  14.412  65.188  1.00  0.00    -0.602 OA 
BRANCH   3   5
HETATM    5  C   UNL     1     -10.876  13.081  65.121  1.00  0.00    -0.320 C  
HETATM    6  C   UNL     1     -11.270  11.941  64.496  1.00  0.00    -0.319 C  
HETATM    7  N   UNL     1     -10.530  10.779  64.661  1.00  0.00    -0.329 NA 
HETATM    8  C   UNL     1     -12.477  11.760  63.612  1.00  0.00    -0.482 C  
HETATM    9  C   UNL     1      -9.516  10.619  65.581  1.00  0.00    -0.212 C  
HETATM   10  C   UNL     1      -9.028   9.205  65.794  1.00  0.00    -0.237 C  
HETATM   11  C   UNL     1      -9.043  11.699  66.244  1.00  0.00    -0.219 C  
HETATM   12  C   UNL     1      -9.614  13.100  65.997  1.00  0.00    -0.169 C  
BRANCH  11  13
HETATM   13  C   UNL     1      -8.067  11.505  67.336  1.00  0.00    -0.146 C  
HETATM   14  O   UNL     1      -6.866  11.370  67.153  1.00  0.00    -0.104 OA 
BRANCH  13  15
HETATM   15  O   UNL     1      -8.685  11.471  68.546  1.00  0.00    -0.154 OA 
BRANCH  15  16
HETATM   16  C   UNL     1      -9.419  10.250  68.771  1.00  0.00    -0.176 C  
BRANCH  16  17
HETATM   17  C   UNL     1      -8.899   9.571  70.049  1.00  0.00    -0.223 C  
BRANCH  17  18
HETATM   18  N   UNL     1      -9.562   8.315  70.439  1.00  0.00    -0.167 NA 
HETATM   19  C   UNL     1      -8.064   6.653  69.201  1.00  0.00    -0.116 C  
HETATM   20  C   UNL     1      -9.474   7.271  69.393  1.00  0.00    -0.154 C  
HETATM   21  N   UNL     1      -7.482   6.076  70.439  1.00  0.00    -0.088 NA 
HETATM   22  C   UNL     1      -8.929   7.796  71.679  1.00  0.00    -0.129 C  
HETATM   23  C   UNL     1      -7.535   7.142  71.474  1.00  0.00    -0.086 C  
BRANCH  21  24
HETATM   24  C   UNL     1      -8.198   4.834  70.865  1.00  0.00    -0.087 C  
BRANCH  24  25
HETATM   25  C   UNL     1      -8.222   3.743  69.780  1.00  0.00    -0.069 A  
HETATM   26  C   UNL     1      -7.052   3.005  69.509  1.00  0.00    -0.041 A  
HETATM   27  C   UNL     1      -9.386   3.410  69.070  1.00  0.00    -0.239 A  
HETATM   28  C   UNL     1      -7.049   1.982  68.557  1.00  0.00    -0.043 A  
HETATM   29  C   UNL     1      -8.209   1.686  67.847  1.00  0.00    -0.069 A  
HETATM   30  C   UNL     1      -9.376   2.401  68.102  1.00  0.00    -0.263 A  
ENDBRANCH  24  25
BRANCH  24  31
HETATM   31  C   UNL     1      -7.697   4.309  72.219  1.00  0.00    -0.081 A  
HETATM   32  C   UNL     1      -6.733   3.093  74.566  1.00  0.00    -0.039 A  
HETATM   33  C   UNL     1      -8.100   3.295  74.397  1.00  0.00    -0.069 A  
HETATM   34  C   UNL     1      -6.317   4.116  72.418  1.00  0.00    -0.021 A  
HETATM   35  C   UNL     1      -8.580   3.894  73.230  1.00  0.00    -0.091 A  
HETATM   36  C   UNL     1      -5.841   3.505  73.578  1.00  0.00    -0.003 A  
ENDBRANCH  24  31
ENDBRANCH  21  24
ENDBRANCH  17  18
ENDBRANCH  16  17
ENDBRANCH  15  16
ENDBRANCH  13  15
ENDBRANCH  11  13
BRANCH  12  37
HETATM   37  C   UNL     1      -9.825  13.841  67.327  1.00  0.00    -0.241 A  
HETATM   38  C   UNL     1      -9.350  15.709  68.810  1.00  0.00    -0.213 A  
HETATM   39  O   UNL     1     -12.829  12.708  69.958  1.00  0.00     0.229 OA 
HETATM   40  C   UNL     1     -10.848  13.424  68.203  1.00  0.00    -0.273 A  
HETATM   41  O   UNL     1     -12.392  14.395  71.289  1.00  0.00    -0.324 OA 
HETATM   42  C   UNL     1     -11.113  14.155  69.368  1.00  0.00    -0.221 A  
HETATM   43  C   UNL     1     -10.373  15.304  69.670  1.00  0.00    -0.271 A  
HETATM   44  N   UNL     1     -12.190  13.721  70.269  1.00  0.00    -0.347 N  
HETATM   45  C   UNL     1      -9.070  14.978  67.654  1.00  0.00    -0.182 A  
ENDBRANCH  12  37
ENDBRANCH   3   5
ENDBRANCH   2   3
TORSDOF 11
ENDMDL
MODEL      115
REMARK 921   NORMALIZED FREE ENERGY PREDICTED BY IDOCK:   -3.81 KCAL/MOL
REMARK 922        TOTAL FREE ENERGY PREDICTED BY IDOCK:   -8.12 KCAL/MOL
REMARK 923 INTER-LIGAND FREE ENERGY PREDICTED BY IDOCK:   -8.86 KCAL/MOL
REMARK 924 INTRA-LIGAND FREE ENERGY PREDICTED BY IDOCK:    0.74 KCAL/MOL
REMARK 927      BINDING AFFINITY PREDICTED BY RF-SCORE:    0.00 PKD
ROOT
HETATM    1  C   UNL     1      -8.320  20.161  67.345  1.00  0.00    -0.338 C  
HETATM    2  O   UNL     1      -8.403  18.747  67.543  1.00  0.00    -0.262 OA 
ENDROOT
BRANCH   2   3
HETATM    3  C   UNL     1      -8.067  18.029  66.441  1.00  0.00    -0.260 C  
HETATM    4  O   UNL     1      -7.060  18.211  65.770  1.00  0.00    -0.420 OA 
BRANCH   3   5
HETATM    5  C   UNL     1      -9.111  17.015  66.138  1.00  0.00    -0.239 C  
HETATM    6  C   UNL     1     -10.366  17.384  65.770  1.00  0.00    -0.216 C  
HETATM    7  N   UNL     1     -11.327  16.410  65.539  1.00  0.00     0.192 NA 
HETATM    8  C   UNL     1     -10.882  18.788  65.582  1.00  0.00    -0.058 C  
HETATM    9  C   UNL     1     -11.178  15.074  65.847  1.00  0.00    -0.313 C  
HETATM   10  C   UNL     1     -12.431  14.233  65.778  1.00  0.00    -0.421 C  
HETATM   11  C   UNL     1      -9.962  14.607  66.210  1.00  0.00    -0.306 C  
HETATM   12  C   UNL     1      -8.743  15.532  66.290  1.00  0.00    -0.283 C  
BRANCH  11  13
HETATM   13  C   UNL     1      -9.837  13.214  66.686  1.00  0.00    -0.261 C  
HETATM   14  O   UNL     1     -10.119  12.859  67.822  1.00  0.00    -0.218 OA 
BRANCH  13  15
HETATM   15  O   UNL     1      -9.350  12.403  65.711  1.00  0.00    -0.151 OA 
BRANCH  15  16
HETATM   16  C   UNL     1      -9.957  11.094  65.708  1.00  0.00    -0.245 C  
BRANCH  16  17
HETATM   17  C   UNL     1      -9.414  10.279  66.894  1.00  0.00    -0.169 C  
BRANCH  17  18
HETATM   18  N   UNL     1     -10.240   9.145  67.341  1.00  0.00    -0.229 NA 
HETATM   19  C   UNL     1      -8.707   8.208  69.161  1.00  0.00    -0.140 C  
HETATM   20  C   UNL     1      -9.431   7.995  67.806  1.00  0.00    -0.145 C  
HETATM   21  N   UNL     1      -9.611   8.581  70.278  1.00  0.00    -0.164 NA 
HETATM   22  C   UNL     1     -11.113   9.590  68.457  1.00  0.00     0.015 C  
HETATM   23  C   UNL     1     -10.390   9.762  69.821  1.00  0.00    -0.246 C  
BRANCH  21  24
HETATM   24  C   UNL     1     -10.491   7.443  70.688  1.00  0.00    -0.215 C  
BRANCH  24  25
HETATM   25  C   UNL     1      -9.805   6.462  71.655  1.00  0.00    -0.184 A  
HETATM   26  C   UNL     1     -10.362   5.184  71.861  1.00  0.00    -0.275 A  
HETATM   27  C   UNL     1      -8.604   6.767  72.316  1.00  0.00    -0.121 A  
HETATM   28  C   UNL     1      -9.745   4.255  72.703  1.00  0.00    -0.193 A  
HETATM   29  C   UNL     1      -8.568   4.588  73.367  1.00  0.00    -0.101 A  
HETATM   30  C   UNL     1      -8.000   5.845  73.175  1.00  0.00    -0.110 A  
ENDBRANCH  24  25
BRANCH  24  31
HETATM   31  C   UNL     1     -11.858   7.920  71.202  1.00  0.00    -0.307 A  
HETATM   32  C   UNL     1     -14.298   8.658  72.391  1.00  0.00    -0.429 A  
HETATM   33  C   UNL     1     -14.263   7.629  71.453  1.00  0.00    -0.514 A  
HETATM   34  C   UNL     1     -11.916   8.971  72.135  1.00  0.00    -0.395 A  
HETATM   35  C   UNL     1     -13.051   7.259  70.866  1.00  0.00    -0.084 A  
HETATM   36  C   UNL     1     -13.126   9.330  72.731  1.00  0.00    -0.141 A  
ENDBRANCH  24  31
ENDBRANCH  21  24
ENDBRANCH  17  18
ENDBRANCH  16  17
ENDBRANCH  15  16
ENDBRANCH  13  15
ENDBRANCH  11  13
BRANCH  12  37
HETATM   37  C   UNL     1      -7.930  15.248  67.564  1.00  0.00    -0.197 A  
HETATM   38  C   UNL     1      -7.345  15.773  69.864  1.00  0.00     0.118 A  
HETATM   39  O   UNL     1      -5.675  11.783  67.935  1.00  0.00    -0.045 OA 
HETATM   40  C   UNL     1      -7.167  14.066  67.654  1.00  0.00    -0.190 A  
HETATM   41  O   UNL     1      -5.151  12.267  70.009  1.00  0.00    -0.074 OA 
HETATM   42  C   UNL     1      -6.505  13.751  68.847  1.00  0.00    -0.100 A  
HETATM   43  C   UNL     1      -6.600  14.596  69.958  1.00  0.00    -0.161 A  
HETATM   44  N   UNL     1      -5.721  12.510  68.936  1.00  0.00    -0.066 N  
HETATM   45  C   UNL     1      -7.995  16.103  68.674  1.00  0.00    -0.201 A  
ENDBRANCH  12  37
ENDBRANCH   3   5
ENDBRANCH   2   3
TORSDOF 11
ENDMDL
MODEL      116
REMARK 921   NORMALIZED FREE ENERGY PREDICTED BY IDOCK:   -3.75 KCAL/MOL
REMARK 922        TOTAL FREE ENERGY PREDICTED BY IDOCK:   -8.03 KCAL/MOL
REMARK 923 INTER-LIGAND FREE ENERGY PREDICTED BY IDOCK:   -8.73 KCAL/MOL
REMARK 924 INTRA-LIGAND FREE ENERGY PREDICTED BY IDOCK:    0.70 KCAL/MOL
REMARK 927      BINDING AFFINITY PREDICTED BY RF-SCORE:    0.00 PKD
ROOT
HETATM    1  C   UNL     1     -10.926  15.741  64.676  1.00  0.00    -0.314 C  
HETATM    2  O   UNL     1     -10.643  14.365  64.944  1.00  0.00    -0.405 OA 
ENDROOT
BRANCH   2   3
HETATM    3  C   UNL     1     -11.757  13.599  65.065  1.00  0.00    -0.339 C  
HETATM    4  O   UNL     1     -12.710  13.628  64.298  1.00  0.00    -0.647 OA 
BRANCH   3   5
HETATM    5  C   UNL     1     -11.680  12.750  66.283  1.00  0.00    -0.460 C  
HETATM    6  C   UNL     1     -11.819  13.283  67.525  1.00  0.00    -0.358 C  
HETATM    7  N   UNL     1     -11.695  12.465  68.639  1.00  0.00    -0.312 NA 
HETATM    8  C   UNL     1     -12.091  14.725  67.870  1.00  0.00    -0.161 C  
HETATM    9  C   UNL     1     -11.237  11.165  68.611  1.00  0.00    -0.255 C  
HETATM   10  C   UNL     1     -10.913  10.545  69.950  1.00  0.00    -0.359 C  
HETATM   11  C   UNL     1     -11.081  10.542  67.421  1.00  0.00    -0.322 C  
HETATM   12  C   UNL     1     -11.399  11.251  66.100  1.00  0.00    -0.035 C  
BRANCH  11  13
HETATM   13  C   UNL     1     -10.447   9.207  67.384  1.00  0.00    -0.271 C  
HETATM   14  O   UNL     1     -10.991   8.212  66.928  1.00  0.00    -0.127 OA 
BRANCH  13  15
HETATM   15  O   UNL     1      -9.208   9.237  67.943  1.00  0.00    -0.130 OA 
BRANCH  15  16
HETATM   16  C   UNL     1      -8.245   8.440  67.222  1.00  0.00    -0.112 C  
BRANCH  16  17
HETATM   17  C   UNL     1      -8.687   6.967  67.241  1.00  0.00    -0.120 C  
BRANCH  17  18
HETATM   18  N   UNL     1      -7.902   6.060  68.096  1.00  0.00    -0.104 NA 
HETATM   19  C   UNL     1      -8.456   7.062  70.382  1.00  0.00    -0.141 C  
HETATM   20  C   UNL     1      -7.384   6.724  69.313  1.00  0.00    -0.093 C  
HETATM   21  N   UNL     1      -9.252   5.893  70.833  1.00  0.00    -0.152 NA 
HETATM   22  C   UNL     1      -8.760   4.920  68.509  1.00  0.00    -0.097 C  
HETATM   23  C   UNL     1      -9.805   5.255  69.609  1.00  0.00    -0.204 C  
BRANCH  21  24
HETATM   24  C   UNL     1      -8.434   4.943  71.650  1.00  0.00    -0.122 C  
BRANCH  24  25
HETATM   25  C   UNL     1      -7.523   5.647  72.670  1.00  0.00    -0.097 A  
HETATM   26  C   UNL     1      -6.149   5.336  72.707  1.00  0.00    -0.027 A  
HETATM   27  C   UNL     1      -7.994   6.637  73.547  1.00  0.00    -0.097 A  
HETATM   28  C   UNL     1      -5.286   5.984  73.595  1.00  0.00    -0.031 A  
HETATM   29  C   UNL     1      -5.780   6.944  74.473  1.00  0.00    -0.063 A  
HETATM   30  C   UNL     1      -7.133   7.268  74.450  1.00  0.00    -0.111 A  
ENDBRANCH  24  25
BRANCH  24  31
HETATM   31  C   UNL     1      -9.290   3.838  72.287  1.00  0.00    -0.175 A  
HETATM   32  C   UNL     1     -10.975   1.776  73.194  1.00  0.00    -0.260 A  
HETATM   33  C   UNL     1     -11.274   3.103  73.493  1.00  0.00    -0.286 A  
HETATM   34  C   UNL     1      -8.993   2.490  72.013  1.00  0.00    -0.125 A  
HETATM   35  C   UNL     1     -10.441   4.127  73.040  1.00  0.00    -0.247 A  
HETATM   36  C   UNL     1      -9.835   1.469  72.456  1.00  0.00    -0.165 A  
ENDBRANCH  24  31
ENDBRANCH  21  24
ENDBRANCH  17  18
ENDBRANCH  16  17
ENDBRANCH  15  16
ENDBRANCH  13  15
ENDBRANCH  11  13
BRANCH  12  37
HETATM   37  C   UNL     1     -10.302  10.974  65.059  1.00  0.00    -0.360 A  
HETATM   38  C   UNL     1      -9.579  10.771  62.746  1.00  0.00    -0.337 A  
HETATM   39  O   UNL     1      -6.317  10.662  66.178  1.00  0.00    -0.107 OA 
HETATM   40  C   UNL     1      -8.959  10.864  65.474  1.00  0.00    -0.213 A  
HETATM   41  O   UNL     1      -5.676  10.478  64.089  1.00  0.00    -0.146 OA 
HETATM   42  C   UNL     1      -7.943  10.713  64.522  1.00  0.00     0.067 A  
HETATM   43  C   UNL     1      -8.248  10.676  63.157  1.00  0.00    -0.077 A  
HETATM   44  N   UNL     1      -6.544  10.612  64.962  1.00  0.00    -0.005 N  
HETATM   45  C   UNL     1     -10.600  10.907  63.690  1.00  0.00    -0.226 A  
ENDBRANCH  12  37
ENDBRANCH   3   5
ENDBRANCH   2   3
TORSDOF 11
ENDMDL
MODEL      117
REMARK 921   NORMALIZED FREE ENERGY PREDICTED BY IDOCK:   -3.69 KCAL/MOL
REMARK 922        TOTAL FREE ENERGY PREDICTED BY IDOCK:   -7.93 KCAL/MOL
REMARK 923 INTER-LIGAND FREE ENERGY PREDICTED BY IDOCK:   -6.18 KCAL/MOL
REMARK 924 INTRA-LIGAND FREE ENERGY PREDICTED BY IDOCK:   -1.76 KCAL/MOL
REMARK 927      BINDING AFFINITY PREDICTED BY RF-SCORE:    0.00 PKD
ROOT
HETATM    1  C   UNL     1     -10.416  18.764  67.566  1.00  0.00    -0.435 C  
HETATM    2  O   UNL     1     -10.835  17.399  67.638  1.00  0.00    -0.338 OA 
ENDROOT
BRANCH   2   3
HETATM    3  C   UNL     1      -9.984  16.611  68.343  1.00  0.00    -0.255 C  
HETATM    4  O   UNL     1      -9.195  17.016  69.186  1.00  0.00    -0.201 OA 
BRANCH   3   5
HETATM    5  C   UNL     1     -10.112  15.191  67.921  1.00  0.00    -0.222 C  
HETATM    6  C   UNL     1      -9.938  14.822  66.624  1.00  0.00    -0.264 C  
HETATM    7  N   UNL     1     -10.111  13.495  66.261  1.00  0.00    -0.291 NA 
HETATM    8  C   UNL     1      -9.577  15.717  65.466  1.00  0.00    -0.237 C  
HETATM    9  C   UNL     1     -10.648  12.522  67.077  1.00  0.00    -0.232 C  
HETATM   10  C   UNL     1     -11.008  11.217  66.407  1.00  0.00    -0.248 C  
HETATM   11  C   UNL     1     -10.845  12.788  68.388  1.00  0.00    -0.272 C  
HETATM   12  C   UNL     1     -10.486  14.152  68.988  1.00  0.00    -0.193 C  
BRANCH  11  13
HETATM   13  C   UNL     1     -11.561  11.803  69.225  1.00  0.00    -0.315 C  
HETATM   14  O   UNL     1     -12.758  11.576  69.129  1.00  0.00    -0.051 OA 
BRANCH  13  15
HETATM   15  O   UNL     1     -10.721  11.216  70.118  1.00  0.00     0.041 OA 
BRANCH  15  16
HETATM   16  C   UNL     1     -10.949   9.798  70.259  1.00  0.00    -0.298 C  
BRANCH  16  17
HETATM   17  C   UNL     1     -10.058   9.037  69.264  1.00  0.00    -0.195 C  
BRANCH  17  18
HETATM   18  N   UNL     1     -10.498   7.680  68.895  1.00  0.00    -0.212 NA 
HETATM   19  C   UNL     1      -9.454   7.524  66.567  1.00  0.00    -0.179 C  
HETATM   20  C   UNL     1     -10.735   7.529  67.442  1.00  0.00    -0.261 C  
HETATM   21  N   UNL     1      -8.460   6.491  66.953  1.00  0.00    -0.113 NA 
HETATM   22  C   UNL     1      -9.457   6.704  69.309  1.00  0.00    -0.141 C  
HETATM   23  C   UNL     1      -8.195   6.675  68.405  1.00  0.00    -0.115 C  
BRANCH  21  24
HETATM   24  C   UNL     1      -8.938   5.110  66.634  1.00  0.00    -0.115 C  
BRANCH  24  25
HETATM   25  C   UNL     1      -9.030   4.833  65.123  1.00  0.00    -0.152 A  
HETATM   26  C   UNL     1     -10.099   4.065  64.620  1.00  0.00    -0.215 A  
HETATM   27  C   UNL     1      -8.111   5.358  64.201  1.00  0.00    -0.123 A  
HETATM   28  C   UNL     1     -10.235   3.827  63.250  1.00  0.00    -0.194 A  
HETATM   29  C   UNL     1      -9.297   4.337  62.356  1.00  0.00    -0.126 A  
HETATM   30  C   UNL     1      -8.235   5.100  62.832  1.00  0.00    -0.104 A  
ENDBRANCH  24  25
BRANCH  24  31
HETATM   31  C   UNL     1      -8.143   4.030  67.384  1.00  0.00    -0.091 A  
HETATM   32  C   UNL     1      -6.718   1.888  68.521  1.00  0.00    -0.029 A  
HETATM   33  C   UNL     1      -8.032   2.135  68.909  1.00  0.00    -0.062 A  
HETATM   34  C   UNL     1      -6.807   3.779  67.021  1.00  0.00    -0.051 A  
HETATM   35  C   UNL     1      -8.742   3.195  68.341  1.00  0.00    -0.141 A  
HETATM   36  C   UNL     1      -6.105   2.710  67.579  1.00  0.00    -0.027 A  
ENDBRANCH  24  31
ENDBRANCH  21  24
ENDBRANCH  17  18
ENDBRANCH  16  17
ENDBRANCH  15  16
ENDBRANCH  13  15
ENDBRANCH  11  13
BRANCH  12  37
HETATM   37  C   UNL     1     -11.599  14.640  69.930  1.00  0.00    -0.333 A  
HETATM   38  C   UNL     1     -13.897  15.334  70.312  1.00  0.00     0.674 A  
HETATM   39  O   UNL     1     -11.060  14.668  74.046  1.00  0.00     1.085 OA 
HETATM   40  C   UNL     1     -11.380  14.646  71.322  1.00  0.00    -0.045 A  
HETATM   41  O   UNL     1     -13.135  15.297  74.379  1.00  0.00    -0.024 OA 
HETATM   42  C   UNL     1     -12.421  14.992  72.192  1.00  0.00    -0.344 A  
HETATM   43  C   UNL     1     -13.684  15.327  71.692  1.00  0.00    -0.600 A  
HETATM   44  N   UNL     1     -12.188  14.984  73.644  1.00  0.00    -0.474 N  
HETATM   45  C   UNL     1     -12.860  15.005  69.437  1.00  0.00     0.344 A  
ENDBRANCH  12  37
ENDBRANCH   3   5
ENDBRANCH   2   3
TORSDOF 11
ENDMDL
MODEL      118
REMARK 921   NORMALIZED FREE ENERGY PREDICTED BY IDOCK:   -3.67 KCAL/MOL
REMARK 922        TOTAL FREE ENERGY PREDICTED BY IDOCK:   -7.90 KCAL/MOL
REMARK 923 INTER-LIGAND FREE ENERGY PREDICTED BY IDOCK:  -10.07 KCAL/MOL
REMARK 924 INTRA-LIGAND FREE ENERGY PREDICTED BY IDOCK:    2.17 KCAL/MOL
REMARK 927      BINDING AFFINITY PREDICTED BY RF-SCORE:    0.00 PKD
ROOT
HETATM    1  C   UNL     1      -8.536   8.754  64.587  1.00  0.00    -0.151 C  
HETATM    2  O   UNL     1      -9.105   9.094  65.854  1.00  0.00    -0.175 OA 
ENDROOT
BRANCH   2   3
HETATM    3  C   UNL     1      -8.178   9.284  66.827  1.00  0.00    -0.115 C  
HETATM    4  O   UNL     1      -7.718   8.398  67.536  1.00  0.00    -0.096 OA 
BRANCH   3   5
HETATM    5  C   UNL     1      -7.827  10.724  66.943  1.00  0.00    -0.130 C  
HETATM    6  C   UNL     1      -6.539  11.147  66.847  1.00  0.00    -0.124 C  
HETATM    7  N   UNL     1      -6.247  12.494  67.007  1.00  0.00    -0.227 NA 
HETATM    8  C   UNL     1      -5.321  10.298  66.589  1.00  0.00    -0.042 C  
HETATM    9  C   UNL     1      -7.140  13.442  67.461  1.00  0.00    -0.144 C  
HETATM   10  C   UNL     1      -6.554  14.785  67.828  1.00  0.00    -0.188 C  
HETATM   11  C   UNL     1      -8.448  13.121  67.576  1.00  0.00    -0.198 C  
HETATM   12  C   UNL     1      -8.963  11.723  67.215  1.00  0.00    -0.172 C  
BRANCH  11  13
HETATM   13  C   UNL     1      -9.375  14.085  68.206  1.00  0.00    -0.208 C  
HETATM   14  O   UNL     1      -9.395  14.319  69.406  1.00  0.00     0.150 OA 
BRANCH  13  15
HETATM   15  O   UNL     1     -10.204  14.643  67.285  1.00  0.00    -0.239 OA 
BRANCH  15  16
HETATM   16  C   UNL     1     -11.041  15.680  67.835  1.00  0.00    -0.324 C  
BRANCH  16  17
HETATM   17  C   UNL     1     -10.526  17.052  67.367  1.00  0.00    -0.322 C  
BRANCH  17  18
HETATM   18  N   UNL     1      -9.065  17.240  67.375  1.00  0.00    -0.225 NA 
HETATM   19  C   UNL     1      -8.939  19.550  66.288  1.00  0.00    -0.364 C  
HETATM   20  C   UNL     1      -8.584  18.042  66.227  1.00  0.00    -0.176 C  
HETATM   21  N   UNL     1      -8.471  20.234  67.520  1.00  0.00    -0.330 NA 
HETATM   22  C   UNL     1      -8.672  17.929  68.631  1.00  0.00    -0.264 C  
HETATM   23  C   UNL     1      -8.993  19.448  68.669  1.00  0.00    -0.372 C  
BRANCH  21  24
HETATM   24  C   UNL     1      -6.982  20.368  67.552  1.00  0.00    -0.302 C  
BRANCH  24  25
HETATM   25  C   UNL     1      -6.337  19.693  68.775  1.00  0.00    -0.307 A  
HETATM   26  C   UNL     1      -6.275  20.386  70.001  1.00  0.00    -0.288 A  
HETATM   27  C   UNL     1      -5.841  18.380  68.740  1.00  0.00    -0.203 A  
HETATM   28  C   UNL     1      -5.731  19.789  71.141  1.00  0.00    -0.309 A  
HETATM   29  C   UNL     1      -5.223  18.494  71.076  1.00  0.00    -0.282 A  
HETATM   30  C   UNL     1      -5.276  17.791  69.876  1.00  0.00    -0.208 A  
ENDBRANCH  24  25
BRANCH  24  31
HETATM   31  C   UNL     1      -6.330  19.938  66.229  1.00  0.00    -0.196 A  
HETATM   32  C   UNL     1      -5.398  19.058  63.725  1.00  0.00    -0.291 A  
HETATM   33  C   UNL     1      -5.138  18.307  64.868  1.00  0.00    -0.135 A  
HETATM   34  C   UNL     1      -6.563  20.695  65.066  1.00  0.00    -0.267 A  
HETATM   35  C   UNL     1      -5.605  18.740  66.111  1.00  0.00    -0.186 A  
HETATM   36  C   UNL     1      -6.108  20.252  63.823  1.00  0.00    -0.250 A  
ENDBRANCH  24  31
ENDBRANCH  21  24
ENDBRANCH  17  18
ENDBRANCH  16  17
ENDBRANCH  15  16
ENDBRANCH  13  15
ENDBRANCH  11  13
BRANCH  12  37
HETATM   37  C   UNL     1      -9.956  11.220  68.276  1.00  0.00    -0.201 A  
HETATM   38  C   UNL     1     -12.235  10.844  69.034  1.00  0.00    -0.112 A  
HETATM   39  O   UNL     1      -8.659   9.031  71.556  1.00  0.00    -0.303 OA 
HETATM   40  C   UNL     1      -9.481  10.488  69.383  1.00  0.00    -0.158 A  
HETATM   41  O   UNL     1     -10.719   8.699  72.232  1.00  0.00    -0.344 OA 
HETATM   42  C   UNL     1     -10.387   9.940  70.299  1.00  0.00    -0.281 A  
HETATM   43  C   UNL     1     -11.765  10.107  70.123  1.00  0.00    -0.330 A  
HETATM   44  N   UNL     1      -9.884   9.167  71.444  1.00  0.00    -0.303 N  
HETATM   45  C   UNL     1     -11.338  11.406  68.124  1.00  0.00    -0.374 A  
ENDBRANCH  12  37
ENDBRANCH   3   5
ENDBRANCH   2   3
TORSDOF 11
ENDMDL
MODEL      119
REMARK 921   NORMALIZED FREE ENERGY PREDICTED BY IDOCK:   -3.66 KCAL/MOL
REMARK 922        TOTAL FREE ENERGY PREDICTED BY IDOCK:   -7.87 KCAL/MOL
REMARK 923 INTER-LIGAND FREE ENERGY PREDICTED BY IDOCK:   -7.89 KCAL/MOL
REMARK 924 INTRA-LIGAND FREE ENERGY PREDICTED BY IDOCK:    0.02 KCAL/MOL
REMARK 927      BINDING AFFINITY PREDICTED BY RF-SCORE:    0.00 PKD
ROOT
HETATM    1  C   UNL     1     -10.753  16.677  70.478  1.00  0.00     0.258 C  
HETATM    2  O   UNL     1     -10.844  17.016  69.091  1.00  0.00    -0.288 OA 
ENDROOT
BRANCH   2   3
HETATM    3  C   UNL     1      -9.682  17.489  68.574  1.00  0.00    -0.319 C  
HETATM    4  O   UNL     1      -9.558  18.567  68.008  1.00  0.00    -0.292 OA 
BRANCH   3   5
HETATM    5  C   UNL     1      -8.587  16.499  68.753  1.00  0.00    -0.262 C  
HETATM    6  C   UNL     1      -7.340  16.885  69.129  1.00  0.00    -0.197 C  
HETATM    7  N   UNL     1      -6.334  15.937  69.240  1.00  0.00    -0.142 NA 
HETATM    8  C   UNL     1      -6.880  18.285  69.445  1.00  0.00    -0.138 C  
HETATM    9  C   UNL     1      -6.433  14.633  68.803  1.00  0.00    -0.088 C  
HETATM   10  C   UNL     1      -5.144  13.846  68.761  1.00  0.00    -0.076 C  
HETATM   11  C   UNL     1      -7.636  14.150  68.421  1.00  0.00    -0.130 C  
HETATM   12  C   UNL     1      -8.896  15.022  68.460  1.00  0.00    -0.181 C  
BRANCH  11  13
HETATM   13  C   UNL     1      -7.714  12.807  67.810  1.00  0.00    -0.152 C  
HETATM   14  O   UNL     1      -7.495  12.588  66.627  1.00  0.00     0.139 OA 
BRANCH  13  15
HETATM   15  O   UNL     1      -8.082  11.872  68.725  1.00  0.00    -0.117 OA 
BRANCH  15  16
HETATM   16  C   UNL     1      -8.913  10.833  68.168  1.00  0.00    -0.140 C  
BRANCH  16  17
HETATM   17  C   UNL     1      -9.885  10.325  69.245  1.00  0.00    -0.228 C  
BRANCH  17  18
HETATM   18  N   UNL     1     -10.586   9.063  68.953  1.00  0.00    -0.210 NA 
HETATM   19  C   UNL     1      -8.608   7.449  69.097  1.00  0.00    -0.136 C  
HETATM   20  C   UNL     1      -9.733   8.085  68.239  1.00  0.00    -0.164 C  
HETATM   21  N   UNL     1      -9.092   6.780  70.331  1.00  0.00    -0.152 NA 
HETATM   22  C   UNL     1     -11.037   8.452  70.230  1.00  0.00    -0.213 C  
HETATM   23  C   UNL     1      -9.913   7.779  71.064  1.00  0.00    -0.177 C  
BRANCH  21  24
HETATM   24  C   UNL     1      -9.856   5.531  70.026  1.00  0.00    -0.198 C  
BRANCH  24  25
HETATM   25  C   UNL     1      -9.202   4.670  68.931  1.00  0.00    -0.181 A  
HETATM   26  C   UNL     1      -7.814   4.427  68.972  1.00  0.00    -0.069 A  
HETATM   27  C   UNL     1      -9.942   4.067  67.901  1.00  0.00     0.023 A  
HETATM   28  C   UNL     1      -7.194   3.619  68.016  1.00  0.00    -0.051 A  
HETATM   29  C   UNL     1      -7.944   3.051  66.990  1.00  0.00    -0.079 A  
HETATM   30  C   UNL     1      -9.316   3.277  66.932  1.00  0.00    -0.184 A  
ENDBRANCH  24  25
BRANCH  24  31
HETATM   31  C   UNL     1     -10.184   4.725  71.292  1.00  0.00    -0.229 A  
HETATM   32  C   UNL     1     -10.570   3.393  73.739  1.00  0.00    -0.279 A  
HETATM   33  C   UNL     1      -9.932   2.743  72.686  1.00  0.00    -0.219 A  
HETATM   34  C   UNL     1     -10.846   5.357  72.361  1.00  0.00    -0.297 A  
HETATM   35  C   UNL     1      -9.736   3.405  71.472  1.00  0.00    -0.233 A  
HETATM   36  C   UNL     1     -11.028   4.698  73.577  1.00  0.00    -0.395 A  
ENDBRANCH  24  31
ENDBRANCH  21  24
ENDBRANCH  17  18
ENDBRANCH  16  17
ENDBRANCH  15  16
ENDBRANCH  13  15
ENDBRANCH  11  13
BRANCH  12  37
HETATM   37  C   UNL     1      -9.728  14.830  67.182  1.00  0.00    -0.234 A  
HETATM   38  C   UNL     1     -10.175  15.342  64.847  1.00  0.00    -0.209 A  
HETATM   39  O   UNL     1     -12.573  11.819  66.913  1.00  0.00     0.698 OA 
HETATM   40  C   UNL     1     -10.693  13.804  67.127  1.00  0.00    -0.283 A  
HETATM   41  O   UNL     1     -12.969  12.290  64.808  1.00  0.00    -0.713 OA 
HETATM   42  C   UNL     1     -11.384  13.556  65.934  1.00  0.00    -0.308 A  
HETATM   43  C   UNL     1     -11.120  14.316  64.789  1.00  0.00    -0.398 A  
HETATM   44  N   UNL     1     -12.379  12.476  65.882  1.00  0.00    -0.254 N  
HETATM   45  C   UNL     1      -9.492  15.605  66.037  1.00  0.00    -0.390 A  
ENDBRANCH  12  37
ENDBRANCH   3   5
ENDBRANCH   2   3
TORSDOF 11
ENDMDL
MODEL      120
REMARK 921   NORMALIZED FREE ENERGY PREDICTED BY IDOCK:   -3.63 KCAL/MOL
REMARK 922        TOTAL FREE ENERGY PREDICTED BY IDOCK:   -7.82 KCAL/MOL
REMARK 923 INTER-LIGAND FREE ENERGY PREDICTED BY IDOCK:   -6.48 KCAL/MOL
REMARK 924 INTRA-LIGAND FREE ENERGY PREDICTED BY IDOCK:   -1.34 KCAL/MOL
REMARK 927      BINDING AFFINITY PREDICTED BY RF-SCORE:    0.00 PKD
ROOT
HETATM    1  C   UNL     1     -12.264   6.343  72.089  1.00  0.00    -0.229 C  
HETATM    2  O   UNL     1     -11.159   6.592  71.217  1.00  0.00    -0.247 OA 
ENDROOT
BRANCH   2   3
HETATM    3  C   UNL     1     -10.103   5.767  71.435  1.00  0.00    -0.198 C  
HETATM    4  O   UNL     1     -10.193   4.593  71.767  1.00  0.00    -0.193 OA 
BRANCH   3   5
HETATM    5  C   UNL     1      -8.821   6.498  71.257  1.00  0.00    -0.137 C  
HETATM    6  C   UNL     1      -8.371   7.373  72.195  1.00  0.00    -0.109 C  
HETATM    7  N   UNL     1      -7.193   8.070  71.971  1.00  0.00    -0.076 NA 
HETATM    8  C   UNL     1      -9.026   7.712  73.509  1.00  0.00    -0.295 C  
HETATM    9  C   UNL     1      -6.519   8.106  70.769  1.00  0.00    -0.037 C  
HETATM   10  C   UNL     1      -5.421   9.137  70.654  1.00  0.00    -0.029 C  
HETATM   11  C   UNL     1      -6.883   7.263  69.778  1.00  0.00    -0.053 C  
HETATM   12  C   UNL     1      -8.033   6.266  69.959  1.00  0.00    -0.111 C  
BRANCH  11  13
HETATM   13  C   UNL     1      -6.264   7.408  68.443  1.00  0.00    -0.036 C  
HETATM   14  O   UNL     1      -5.403   6.655  68.011  1.00  0.00    -0.007 OA 
BRANCH  13  15
HETATM   15  O   UNL     1      -6.759   8.491  67.789  1.00  0.00    -0.064 OA 
BRANCH  15  16
HETATM   16  C   UNL     1      -5.750   9.479  67.490  1.00  0.00    -0.041 C  
BRANCH  16  17
HETATM   17  C   UNL     1      -6.423  10.845  67.277  1.00  0.00    -0.072 C  
BRANCH  17  18
HETATM   18  N   UNL     1      -6.656  11.655  68.485  1.00  0.00    -0.057 NA 
HETATM   19  C   UNL     1      -6.282  13.985  67.500  1.00  0.00     0.017 C  
HETATM   20  C   UNL     1      -5.844  12.893  68.511  1.00  0.00    -0.063 C  
HETATM   21  N   UNL     1      -7.702  14.397  67.630  1.00  0.00    -0.168 NA 
HETATM   22  C   UNL     1      -8.092  12.031  68.548  1.00  0.00    -0.123 C  
HETATM   23  C   UNL     1      -8.515  13.154  67.561  1.00  0.00    -0.198 C  
BRANCH  21  24
HETATM   24  C   UNL     1      -7.946  15.166  68.889  1.00  0.00    -0.178 C  
BRANCH  24  25
HETATM   25  C   UNL     1      -7.183  16.501  68.943  1.00  0.00    -0.208 A  
HETATM   26  C   UNL     1      -7.449  17.495  67.980  1.00  0.00    -0.214 A  
HETATM   27  C   UNL     1      -6.252  16.799  69.952  1.00  0.00    -0.149 A  
HETATM   28  C   UNL     1      -6.802  18.733  68.023  1.00  0.00    -0.244 A  
HETATM   29  C   UNL     1      -5.865  18.997  69.017  1.00  0.00    -0.234 A  
HETATM   30  C   UNL     1      -5.589  18.030  69.980  1.00  0.00    -0.242 A  
ENDBRANCH  24  25
BRANCH  24  31
HETATM   31  C   UNL     1      -9.444  15.331  69.191  1.00  0.00    -0.236 A  
HETATM   32  C   UNL     1     -12.143  15.917  69.722  1.00  0.00    -0.231 A  
HETATM   33  C   UNL     1     -11.295  15.539  70.760  1.00  0.00    -0.384 A  
HETATM   34  C   UNL     1     -10.322  15.692  68.152  1.00  0.00    -0.246 A  
HETATM   35  C   UNL     1      -9.953  15.253  70.498  1.00  0.00     0.358 A  
HETATM   36  C   UNL     1     -11.658  15.992  68.419  1.00  0.00    -0.279 A  
ENDBRANCH  24  31
ENDBRANCH  21  24
ENDBRANCH  17  18
ENDBRANCH  16  17
ENDBRANCH  15  16
ENDBRANCH  13  15
ENDBRANCH  11  13
BRANCH  12  37
HETATM   37  C   UNL     1      -8.932   6.243  68.713  1.00  0.00    -0.125 A  
HETATM   38  C   UNL     1     -10.421   7.367  67.154  1.00  0.00    -0.403 A  
HETATM   39  O   UNL     1      -8.967   2.971  66.158  1.00  0.00    -0.137 OA 
HETATM   40  C   UNL     1      -8.928   5.112  67.871  1.00  0.00    -0.115 A  
HETATM   41  O   UNL     1     -10.312   3.993  64.760  1.00  0.00    -0.229 OA 
HETATM   42  C   UNL     1      -9.666   5.122  66.681  1.00  0.00    -0.168 A  
HETATM   43  C   UNL     1     -10.406   6.252  66.314  1.00  0.00     0.043 A  
HETATM   44  N   UNL     1      -9.645   3.944  65.803  1.00  0.00    -0.181 N  
HETATM   45  C   UNL     1      -9.700   7.359  68.349  1.00  0.00    -0.158 A  
ENDBRANCH  12  37
ENDBRANCH   3   5
ENDBRANCH   2   3
TORSDOF 11
ENDMDL
MODEL      121
REMARK 921   NORMALIZED FREE ENERGY PREDICTED BY IDOCK:   -3.62 KCAL/MOL
REMARK 922        TOTAL FREE ENERGY PREDICTED BY IDOCK:   -7.80 KCAL/MOL
REMARK 923 INTER-LIGAND FREE ENERGY PREDICTED BY IDOCK:   -6.34 KCAL/MOL
REMARK 924 INTRA-LIGAND FREE ENERGY PREDICTED BY IDOCK:   -1.46 KCAL/MOL
REMARK 927      BINDING AFFINITY PREDICTED BY RF-SCORE:    0.00 PKD
ROOT
HETATM    1  C   UNL     1     -12.667  10.875  71.259  1.00  0.00    -0.437 C  
HETATM    2  O   UNL     1     -11.583  10.978  70.332  1.00  0.00    -0.308 OA 
ENDROOT
BRANCH   2   3
HETATM    3  C   UNL     1     -11.827  11.838  69.311  1.00  0.00    -0.326 C  
HETATM    4  O   UNL     1     -12.691  11.681  68.458  1.00  0.00     0.205 OA 
BRANCH   3   5
HETATM    5  C   UNL     1     -10.873  12.978  69.345  1.00  0.00     0.044 C  
HETATM    6  C   UNL     1     -11.130  14.092  70.081  1.00  0.00     0.158 C  
HETATM    7  N   UNL     1     -10.238  15.153  70.052  1.00  0.00    -0.186 NA 
HETATM    8  C   UNL     1     -12.328  14.342  70.962  1.00  0.00    -0.431 C  
HETATM    9  C   UNL     1      -9.185  15.268  69.169  1.00  0.00    -0.234 C  
HETATM   10  C   UNL     1      -8.507  16.617  69.115  1.00  0.00    -0.115 C  
HETATM   11  C   UNL     1      -8.841  14.209  68.403  1.00  0.00    -0.187 C  
HETATM   12  C   UNL     1      -9.601  12.880  68.491  1.00  0.00    -0.113 C  
BRANCH  11  13
HETATM   13  C   UNL     1      -7.817  14.380  67.352  1.00  0.00    -0.190 C  
HETATM   14  O   UNL     1      -8.073  14.725  66.207  1.00  0.00     0.430 OA 
BRANCH  13  15
HETATM   15  O   UNL     1      -6.577  14.080  67.822  1.00  0.00    -0.154 OA 
BRANCH  15  16
HETATM   16  C   UNL     1      -5.986  12.939  67.166  1.00  0.00     0.207 C  
BRANCH  16  17
HETATM   17  C   UNL     1      -5.795  11.807  68.188  1.00  0.00    -0.047 C  
BRANCH  17  18
HETATM   18  N   UNL     1      -6.781  10.713  68.146  1.00  0.00    -0.063 NA 
HETATM   19  C   UNL     1      -5.334   8.815  69.061  1.00  0.00    -0.036 C  
HETATM   20  C   UNL     1      -6.163   9.394  67.885  1.00  0.00    -0.053 C  
HETATM   21  N   UNL     1      -6.089   8.694  70.334  1.00  0.00    -0.031 NA 
HETATM   22  C   UNL     1      -7.494  10.652  69.448  1.00  0.00    -0.135 C  
HETATM   23  C   UNL     1      -6.673  10.033  70.612  1.00  0.00    -0.068 C  
BRANCH  21  24
HETATM   24  C   UNL     1      -7.131   7.623  70.264  1.00  0.00    -0.058 C  
BRANCH  24  25
HETATM   25  C   UNL     1      -6.574   6.262  69.812  1.00  0.00    -0.044 A  
HETATM   26  C   UNL     1      -6.877   5.779  68.523  1.00  0.00    -0.063 A  
HETATM   27  C   UNL     1      -5.725   5.487  70.619  1.00  0.00    -0.016 A  
HETATM   28  C   UNL     1      -6.357   4.565  68.066  1.00  0.00    -0.037 A  
HETATM   29  C   UNL     1      -5.537   3.802  68.893  1.00  0.00    -0.017 A  
HETATM   30  C   UNL     1      -5.223   4.262  70.169  1.00  0.00    -0.004 A  
ENDBRANCH  24  25
BRANCH  24  31
HETATM   31  C   UNL     1      -7.951   7.524  71.559  1.00  0.00    -0.094 A  
HETATM   32  C   UNL     1      -9.339   7.079  73.966  1.00  0.00    -0.273 A  
HETATM   33  C   UNL     1     -10.005   6.974  72.748  1.00  0.00    -0.204 A  
HETATM   34  C   UNL     1      -7.300   7.647  72.801  1.00  0.00    -0.094 A  
HETATM   35  C   UNL     1      -9.316   7.190  71.553  1.00  0.00    -0.156 A  
HETATM   36  C   UNL     1      -7.988   7.417  73.993  1.00  0.00    -0.168 A  
ENDBRANCH  24  31
ENDBRANCH  21  24
ENDBRANCH  17  18
ENDBRANCH  16  17
ENDBRANCH  15  16
ENDBRANCH  13  15
ENDBRANCH  11  13
BRANCH  12  37
HETATM   37  C   UNL     1      -9.869  12.315  67.086  1.00  0.00    -0.207 A  
HETATM   38  C   UNL     1      -9.645  10.542  65.437  1.00  0.00    -0.291 A  
HETATM   39  O   UNL     1     -12.511  14.193  64.493  1.00  0.00    -0.602 OA 
HETATM   40  C   UNL     1     -10.765  12.983  66.227  1.00  0.00    -0.290 A  
HETATM   41  O   UNL     1     -12.300  12.590  63.011  1.00  0.00    -0.358 OA 
HETATM   42  C   UNL     1     -11.093  12.422  64.986  1.00  0.00    -0.304 A  
HETATM   43  C   UNL     1     -10.543  11.197  64.592  1.00  0.00    -0.386 A  
HETATM   44  N   UNL     1     -12.037  13.119  64.101  1.00  0.00    -0.415 N  
HETATM   45  C   UNL     1      -9.302  11.102  66.670  1.00  0.00    -0.194 A  
ENDBRANCH  12  37
ENDBRANCH   3   5
ENDBRANCH   2   3
TORSDOF 11
ENDMDL
MODEL      122
REMARK 921   NORMALIZED FREE ENERGY PREDICTED BY IDOCK:   -3.61 KCAL/MOL
REMARK 922        TOTAL FREE ENERGY PREDICTED BY IDOCK:   -7.79 KCAL/MOL
REMARK 923 INTER-LIGAND FREE ENERGY PREDICTED BY IDOCK:  -10.18 KCAL/MOL
REMARK 924 INTRA-LIGAND FREE ENERGY PREDICTED BY IDOCK:    2.39 KCAL/MOL
REMARK 927      BINDING AFFINITY PREDICTED BY RF-SCORE:    0.00 PKD
ROOT
HETATM    1  C   UNL     1      -6.878  15.989  66.985  1.00  0.00    -0.145 C  
HETATM    2  O   UNL     1      -8.073  16.494  67.587  1.00  0.00    -0.159 OA 
ENDROOT
BRANCH   2   3
HETATM    3  C   UNL     1      -9.200  16.159  66.909  1.00  0.00    -0.225 C  
HETATM    4  O   UNL     1      -9.343  16.264  65.698  1.00  0.00    -0.457 OA 
BRANCH   3   5
HETATM    5  C   UNL     1     -10.255  15.687  67.845  1.00  0.00    -0.239 C  
HETATM    6  C   UNL     1     -10.695  16.469  68.865  1.00  0.00    -0.337 C  
HETATM    7  N   UNL     1     -11.646  15.975  69.745  1.00  0.00    -0.318 NA 
HETATM    8  C   UNL     1     -10.250  17.872  69.191  1.00  0.00    -0.187 C  
HETATM    9  C   UNL     1     -12.055  14.659  69.800  1.00  0.00    -0.324 C  
HETATM   10  C   UNL     1     -12.885  14.271  71.002  1.00  0.00    -0.427 C  
HETATM   11  C   UNL     1     -11.682  13.805  68.821  1.00  0.00    -0.391 C  
HETATM   12  C   UNL     1     -10.808  14.267  67.649  1.00  0.00    -0.273 C  
BRANCH  11  13
HETATM   13  C   UNL     1     -11.991  12.367  68.961  1.00  0.00    -0.241 C  
HETATM   14  O   UNL     1     -12.357  11.660  68.033  1.00  0.00    -0.429 OA 
BRANCH  13  15
HETATM   15  O   UNL     1     -11.839  11.955  70.248  1.00  0.00    -0.331 OA 
BRANCH  15  16
HETATM   16  C   UNL     1     -12.688  10.839  70.587  1.00  0.00    -0.331 C  
BRANCH  16  17
HETATM   17  C   UNL     1     -11.978   9.958  71.627  1.00  0.00    -0.346 C  
BRANCH  17  18
HETATM   18  N   UNL     1     -11.579   8.612  71.182  1.00  0.00    -0.274 NA 
HETATM   19  C   UNL     1      -9.306   9.172  70.153  1.00  0.00    -0.209 C  
HETATM   20  C   UNL     1     -10.748   8.635  69.957  1.00  0.00    -0.228 C  
HETATM   21  N   UNL     1      -8.527   8.449  71.190  1.00  0.00    -0.135 NA 
HETATM   22  C   UNL     1     -10.804   7.952  72.265  1.00  0.00    -0.293 C  
HETATM   23  C   UNL     1      -9.347   8.465  72.430  1.00  0.00    -0.285 C  
BRANCH  21  24
HETATM   24  C   UNL     1      -8.177   7.061  70.758  1.00  0.00    -0.121 C  
BRANCH  24  25
HETATM   25  C   UNL     1      -8.750   5.973  71.683  1.00  0.00    -0.135 A  
HETATM   26  C   UNL     1      -8.127   5.712  72.919  1.00  0.00    -0.111 A  
HETATM   27  C   UNL     1      -9.912   5.250  71.368  1.00  0.00    -0.245 A  
HETATM   28  C   UNL     1      -8.644   4.758  73.800  1.00  0.00    -0.103 A  
HETATM   29  C   UNL     1      -9.783   4.035  73.457  1.00  0.00    -0.148 A  
HETATM   30  C   UNL     1     -10.415   4.280  72.241  1.00  0.00    -0.164 A  
ENDBRANCH  24  25
BRANCH  24  31
HETATM   31  C   UNL     1      -8.506   6.811  69.278  1.00  0.00    -0.129 A  
HETATM   32  C   UNL     1      -9.228   6.618  66.566  1.00  0.00    -0.183 A  
HETATM   33  C   UNL     1      -9.972   5.949  67.534  1.00  0.00    -0.163 A  
HETATM   34  C   UNL     1      -7.754   7.463  68.283  1.00  0.00    -0.120 A  
HETATM   35  C   UNL     1      -9.617   6.048  68.881  1.00  0.00    -0.147 A  
HETATM   36  C   UNL     1      -8.119   7.374  66.939  1.00  0.00    -0.120 A  
ENDBRANCH  24  31
ENDBRANCH  21  24
ENDBRANCH  17  18
ENDBRANCH  16  17
ENDBRANCH  15  16
ENDBRANCH  13  15
ENDBRANCH  11  13
BRANCH  12  37
HETATM   37  C   UNL     1      -9.708  13.235  67.353  1.00  0.00    -0.221 A  
HETATM   38  C   UNL     1      -7.742  11.979  68.037  1.00  0.00    -0.132 A  
HETATM   39  O   UNL     1      -9.865  10.856  63.955  1.00  0.00    -0.264 OA 
HETATM   40  C   UNL     1      -9.787  12.450  66.185  1.00  0.00    -0.263 A  
HETATM   41  O   UNL     1      -8.089   9.731  64.580  1.00  0.00    -0.130 OA 
HETATM   42  C   UNL     1      -8.845  11.438  65.958  1.00  0.00    -0.174 A  
HETATM   43  C   UNL     1      -7.827  11.193  66.886  1.00  0.00    -0.152 A  
HETATM   44  N   UNL     1      -8.941  10.615  64.743  1.00  0.00    -0.196 N  
HETATM   45  C   UNL     1      -8.667  13.000  68.264  1.00  0.00    -0.173 A  
ENDBRANCH  12  37
ENDBRANCH   3   5
ENDBRANCH   2   3
TORSDOF 11
ENDMDL
MODEL      123
REMARK 921   NORMALIZED FREE ENERGY PREDICTED BY IDOCK:   -3.61 KCAL/MOL
REMARK 922        TOTAL FREE ENERGY PREDICTED BY IDOCK:   -7.79 KCAL/MOL
REMARK 923 INTER-LIGAND FREE ENERGY PREDICTED BY IDOCK:  -10.30 KCAL/MOL
REMARK 924 INTRA-LIGAND FREE ENERGY PREDICTED BY IDOCK:    2.51 KCAL/MOL
REMARK 927      BINDING AFFINITY PREDICTED BY RF-SCORE:    0.00 PKD
ROOT
HETATM    1  C   UNL     1     -10.469   4.604  66.212  1.00  0.00    -0.207 C  
HETATM    2  O   UNL     1     -10.254   5.477  67.324  1.00  0.00    -0.170 OA 
ENDROOT
BRANCH   2   3
HETATM    3  C   UNL     1      -9.099   6.184  67.239  1.00  0.00    -0.115 C  
HETATM    4  O   UNL     1      -7.994   5.754  67.542  1.00  0.00    -0.101 OA 
BRANCH   3   5
HETATM    5  C   UNL     1      -9.364   7.568  66.765  1.00  0.00    -0.209 C  
HETATM    6  C   UNL     1      -8.918   7.998  65.556  1.00  0.00     0.003 C  
HETATM    7  N   UNL     1      -9.146   9.311  65.169  1.00  0.00    -0.219 NA 
HETATM    8  C   UNL     1      -8.156   7.197  64.531  1.00  0.00    -0.069 C  
HETATM    9  C   UNL     1      -9.623  10.301  66.001  1.00  0.00    -0.206 C  
HETATM   10  C   UNL     1      -9.536  11.713  65.470  1.00  0.00    -0.241 C  
HETATM   11  C   UNL     1     -10.104   9.971  67.220  1.00  0.00    -0.259 C  
HETATM   12  C   UNL     1     -10.127   8.516  67.702  1.00  0.00    -0.271 C  
BRANCH  11  13
HETATM   13  C   UNL     1     -10.471  11.046  68.166  1.00  0.00    -0.189 C  
HETATM   14  O   UNL     1      -9.739  11.434  69.066  1.00  0.00    -0.138 OA 
BRANCH  13  15
HETATM   15  O   UNL     1     -11.722  11.513  67.917  1.00  0.00    -0.489 OA 
BRANCH  15  16
HETATM   16  C   UNL     1     -12.026  12.724  68.639  1.00  0.00    -0.233 C  
BRANCH  16  17
HETATM   17  C   UNL     1     -11.887  13.929  67.694  1.00  0.00    -0.386 C  
BRANCH  17  18
HETATM   18  N   UNL     1     -11.064  15.050  68.179  1.00  0.00    -0.279 NA 
HETATM   19  C   UNL     1      -8.818  14.393  67.150  1.00  0.00    -0.229 C  
HETATM   20  C   UNL     1      -9.656  14.664  68.427  1.00  0.00    -0.217 C  
HETATM   21  N   UNL     1      -8.794  15.525  66.189  1.00  0.00    -0.307 NA 
HETATM   22  C   UNL     1     -11.085  16.140  67.170  1.00  0.00    -0.053 C  
HETATM   23  C   UNL     1     -10.211  15.881  65.912  1.00  0.00    -0.352 C  
BRANCH  21  24
HETATM   24  C   UNL     1      -8.008  16.685  66.713  1.00  0.00    -0.249 C  
BRANCH  24  25
HETATM   25  C   UNL     1      -8.891  17.852  67.188  1.00  0.00    -0.250 A  
HETATM   26  C   UNL     1      -9.130  18.030  68.565  1.00  0.00    -0.293 A  
HETATM   27  C   UNL     1      -9.440  18.793  66.302  1.00  0.00    -0.288 A  
HETATM   28  C   UNL     1      -9.895  19.101  69.033  1.00  0.00    -0.437 A  
HETATM   29  C   UNL     1     -10.450  20.008  68.134  1.00  0.00    -0.428 A  
HETATM   30  C   UNL     1     -10.224  19.852  66.769  1.00  0.00    -0.603 A  
ENDBRANCH  24  25
BRANCH  24  31
HETATM   31  C   UNL     1      -6.975  16.260  67.768  1.00  0.00    -0.155 A  
HETATM   32  C   UNL     1      -5.254  15.252  69.752  1.00  0.00    -0.097 A  
HETATM   33  C   UNL     1      -6.083  16.335  70.033  1.00  0.00    -0.146 A  
HETATM   34  C   UNL     1      -6.114  15.180  67.496  1.00  0.00    -0.048 A  
HETATM   35  C   UNL     1      -6.941  16.832  69.051  1.00  0.00    -0.218 A  
HETATM   36  C   UNL     1      -5.268  14.676  68.484  1.00  0.00    -0.103 A  
ENDBRANCH  24  31
ENDBRANCH  21  24
ENDBRANCH  17  18
ENDBRANCH  16  17
ENDBRANCH  15  16
ENDBRANCH  13  15
ENDBRANCH  11  13
BRANCH  12  37
HETATM   37  C   UNL     1      -9.652   8.421  69.161  1.00  0.00    -0.164 A  
HETATM   38  C   UNL     1      -8.009   8.894  70.890  1.00  0.00    -0.173 A  
HETATM   39  O   UNL     1     -12.184   7.047  72.150  1.00  0.00    -0.285 OA 
HETATM   40  C   UNL     1     -10.534   7.941  70.151  1.00  0.00    -0.231 A  
HETATM   41  O   UNL     1     -10.693   7.475  73.702  1.00  0.00    -0.343 OA 
HETATM   42  C   UNL     1     -10.145   7.945  71.496  1.00  0.00    -0.180 A  
HETATM   43  C   UNL     1      -8.887   8.431  71.871  1.00  0.00    -0.267 A  
HETATM   44  N   UNL     1     -11.076   7.455  72.523  1.00  0.00    -0.282 N  
HETATM   45  C   UNL     1      -8.383   8.879  69.545  1.00  0.00    -0.119 A  
ENDBRANCH  12  37
ENDBRANCH   3   5
ENDBRANCH   2   3
TORSDOF 11
ENDMDL
MODEL      124
REMARK 921   NORMALIZED FREE ENERGY PREDICTED BY IDOCK:   -3.58 KCAL/MOL
REMARK 922        TOTAL FREE ENERGY PREDICTED BY IDOCK:   -7.74 KCAL/MOL
REMARK 923 INTER-LIGAND FREE ENERGY PREDICTED BY IDOCK:   -7.29 KCAL/MOL
REMARK 924 INTRA-LIGAND FREE ENERGY PREDICTED BY IDOCK:   -0.44 KCAL/MOL
REMARK 927      BINDING AFFINITY PREDICTED BY RF-SCORE:    0.00 PKD
ROOT
HETATM    1  C   UNL     1      -8.110   4.675  70.541  1.00  0.00    -0.068 C  
HETATM    2  O   UNL     1      -6.963   5.219  71.201  1.00  0.00    -0.052 OA 
ENDROOT
BRANCH   2   3
HETATM    3  C   UNL     1      -5.974   5.586  70.348  1.00  0.00    -0.025 C  
HETATM    4  O   UNL     1      -5.246   4.806  69.747  1.00  0.00     0.000 OA 
BRANCH   3   5
HETATM    5  C   UNL     1      -5.867   7.067  70.274  1.00  0.00    -0.024 C  
HETATM    6  C   UNL     1      -5.771   7.825  71.398  1.00  0.00    -0.035 C  
HETATM    7  N   UNL     1      -5.719   9.207  71.290  1.00  0.00    -0.050 NA 
HETATM    8  C   UNL     1      -5.724   7.334  72.823  1.00  0.00    -0.041 C  
HETATM    9  C   UNL     1      -5.960   9.912  70.131  1.00  0.00    -0.058 C  
HETATM   10  C   UNL     1      -6.130  11.406  70.284  1.00  0.00    -0.145 C  
HETATM   11  C   UNL     1      -6.057   9.249  68.957  1.00  0.00    -0.043 C  
HETATM   12  C   UNL     1      -5.907   7.725  68.886  1.00  0.00    -0.031 C  
BRANCH  11  13
HETATM   13  C   UNL     1      -6.467   9.985  67.743  1.00  0.00    -0.066 C  
HETATM   14  O   UNL     1      -5.765  10.092  66.747  1.00  0.00    -0.049 OA 
BRANCH  13  15
HETATM   15  O   UNL     1      -7.698  10.539  67.897  1.00  0.00    -0.091 OA 
BRANCH  15  16
HETATM   16  C   UNL     1      -8.444  10.609  66.664  1.00  0.00    -0.137 C  
BRANCH  16  17
HETATM   17  C   UNL     1      -8.443  12.058  66.150  1.00  0.00     0.177 C  
BRANCH  17  18
HETATM   18  N   UNL     1      -9.710  12.799  66.276  1.00  0.00    -0.263 NA 
HETATM   19  C   UNL     1      -9.274  13.994  68.493  1.00  0.00    -0.170 C  
HETATM   20  C   UNL     1     -10.129  12.984  67.683  1.00  0.00    -0.217 C  
HETATM   21  N   UNL     1      -9.194  15.345  67.884  1.00  0.00    -0.180 NA 
HETATM   22  C   UNL     1      -9.555  14.136  65.648  1.00  0.00    -0.081 C  
HETATM   23  C   UNL     1      -8.732  15.156  66.483  1.00  0.00    -0.245 C  
BRANCH  21  24
HETATM   24  C   UNL     1     -10.500  16.069  67.959  1.00  0.00    -0.275 C  
BRANCH  24  25
HETATM   25  C   UNL     1     -11.304  15.743  69.230  1.00  0.00    -0.350 A  
HETATM   26  C   UNL     1     -10.967  16.368  70.447  1.00  0.00    -0.218 A  
HETATM   27  C   UNL     1     -12.407  14.873  69.224  1.00  0.00    -0.138 A  
HETATM   28  C   UNL     1     -11.700  16.124  71.611  1.00  0.00    -0.558 A  
HETATM   29  C   UNL     1     -12.774  15.239  71.587  1.00  0.00    -0.455 A  
HETATM   30  C   UNL     1     -13.125  14.613  70.395  1.00  0.00    -0.161 A  
ENDBRANCH  24  25
BRANCH  24  31
HETATM   31  C   UNL     1     -10.343  17.581  67.733  1.00  0.00    -0.367 A  
HETATM   32  C   UNL     1      -9.858  20.282  67.115  1.00  0.00    -0.606 A  
HETATM   33  C   UNL     1      -9.319  19.724  68.271  1.00  0.00    -0.415 A  
HETATM   34  C   UNL     1     -10.897  18.168  66.581  1.00  0.00    -0.043 A  
HETATM   35  C   UNL     1      -9.554  18.382  68.576  1.00  0.00    -0.368 A  
HETATM   36  C   UNL     1     -10.648  19.506  66.271  1.00  0.00    -0.580 A  
ENDBRANCH  24  31
ENDBRANCH  21  24
ENDBRANCH  17  18
ENDBRANCH  16  17
ENDBRANCH  15  16
ENDBRANCH  13  15
ENDBRANCH  11  13
BRANCH  12  37
HETATM   37  C   UNL     1      -6.982   7.116  67.970  1.00  0.00    -0.079 A  
HETATM   38  C   UNL     1      -7.659   5.510  66.276  1.00  0.00    -0.091 A  
HETATM   39  O   UNL     1     -10.986   8.120  68.408  1.00  0.00     0.024 OA 
HETATM   40  C   UNL     1      -8.332   7.486  68.139  1.00  0.00    -0.125 A  
HETATM   41  O   UNL     1     -11.586   6.670  66.877  1.00  0.00    -0.002 OA 
HETATM   42  C   UNL     1      -9.328   6.862  67.378  1.00  0.00    -0.131 A  
HETATM   43  C   UNL     1      -8.997   5.866  66.453  1.00  0.00    -0.143 A  
HETATM   44  N   UNL     1     -10.735   7.245  67.570  1.00  0.00    -0.262 N  
HETATM   45  C   UNL     1      -6.658   6.137  67.020  1.00  0.00    -0.059 A  
ENDBRANCH  12  37
ENDBRANCH   3   5
ENDBRANCH   2   3
TORSDOF 11
ENDMDL
MODEL      125
REMARK 921   NORMALIZED FREE ENERGY PREDICTED BY IDOCK:   -3.51 KCAL/MOL
REMARK 922        TOTAL FREE ENERGY PREDICTED BY IDOCK:   -7.63 KCAL/MOL
REMARK 923 INTER-LIGAND FREE ENERGY PREDICTED BY IDOCK:  -10.88 KCAL/MOL
REMARK 924 INTRA-LIGAND FREE ENERGY PREDICTED BY IDOCK:    3.25 KCAL/MOL
REMARK 927      BINDING AFFINITY PREDICTED BY RF-SCORE:    0.00 PKD
ROOT
HETATM    1  C   UNL     1     -10.244   6.616  73.622  1.00  0.00    -0.302 C  
HETATM    2  O   UNL     1     -10.702   7.679  72.780  1.00  0.00    -0.281 OA 
ENDROOT
BRANCH   2   3
HETATM    3  C   UNL     1      -9.719   8.544  72.424  1.00  0.00    -0.287 C  
HETATM    4  O   UNL     1      -8.681   8.718  73.050  1.00  0.00    -0.368 OA 
BRANCH   3   5
HETATM    5  C   UNL     1     -10.093   9.284  71.190  1.00  0.00    -0.374 C  
HETATM    6  C   UNL     1     -11.350   9.770  71.013  1.00  0.00    -0.387 C  
HETATM    7  N   UNL     1     -11.674  10.415  69.828  1.00  0.00    -0.252 NA 
HETATM    8  C   UNL     1     -12.502   9.683  71.981  1.00  0.00    -0.412 C  
HETATM    9  C   UNL     1     -10.876  10.437  68.704  1.00  0.00    -0.232 C  
HETATM   10  C   UNL     1     -11.524  10.948  67.438  1.00  0.00    -0.175 C  
HETATM   11  C   UNL     1      -9.603   9.989  68.783  1.00  0.00    -0.168 C  
HETATM   12  C   UNL     1      -9.026   9.451  70.098  1.00  0.00    -0.256 C  
BRANCH  11  13
HETATM   13  C   UNL     1      -8.801   9.870  67.547  1.00  0.00    -0.128 C  
HETATM   14  O   UNL     1      -8.599   8.811  66.971  1.00  0.00    -0.114 OA 
BRANCH  13  15
HETATM   15  O   UNL     1      -8.307  11.077  67.165  1.00  0.00    -0.126 OA 
BRANCH  15  16
HETATM   16  C   UNL     1      -7.530  11.721  68.197  1.00  0.00    -0.098 C  
BRANCH  16  17
HETATM   17  C   UNL     1      -7.340  13.204  67.839  1.00  0.00    -0.131 C  
BRANCH  17  18
HETATM   18  N   UNL     1      -8.194  14.166  68.557  1.00  0.00    -0.147 NA 
HETATM   19  C   UNL     1      -8.714  15.772  66.637  1.00  0.00    -0.288 C  
HETATM   20  C   UNL     1      -8.073  15.544  68.031  1.00  0.00    -0.136 C  
HETATM   21  N   UNL     1     -10.151  15.406  66.563  1.00  0.00    -0.261 NA 
HETATM   22  C   UNL     1      -9.612  13.737  68.439  1.00  0.00    -0.206 C  
HETATM   23  C   UNL     1     -10.261  14.006  67.053  1.00  0.00    -0.261 C  
BRANCH  21  24
HETATM   24  C   UNL     1     -11.008  16.350  67.345  1.00  0.00    -0.145 C  
BRANCH  24  25
HETATM   25  C   UNL     1     -11.357  15.833  68.751  1.00  0.00    -0.362 A  
HETATM   26  C   UNL     1     -12.340  14.834  68.901  1.00  0.00    -0.049 A  
HETATM   27  C   UNL     1     -10.698  16.282  69.907  1.00  0.00    -0.322 A  
HETATM   28  C   UNL     1     -12.654  14.314  70.160  1.00  0.00    -0.338 A  
HETATM   29  C   UNL     1     -12.005  14.792  71.295  1.00  0.00    -0.404 A  
HETATM   30  C   UNL     1     -11.029  15.778  71.168  1.00  0.00    -0.183 A  
ENDBRANCH  24  25
BRANCH  24  31
HETATM   31  C   UNL     1     -10.435  17.775  67.366  1.00  0.00    -0.367 A  
HETATM   32  C   UNL     1      -9.634  20.467  67.526  1.00  0.00    -0.545 A  
HETATM   33  C   UNL     1     -10.036  19.931  66.306  1.00  0.00    -0.613 A  
HETATM   34  C   UNL     1     -10.004  18.329  68.586  1.00  0.00    -0.410 A  
HETATM   35  C   UNL     1     -10.438  18.597  66.226  1.00  0.00    -0.468 A  
HETATM   36  C   UNL     1      -9.617  19.667  68.665  1.00  0.00    -0.457 A  
ENDBRANCH  24  31
ENDBRANCH  21  24
ENDBRANCH  17  18
ENDBRANCH  16  17
ENDBRANCH  15  16
ENDBRANCH  13  15
ENDBRANCH  11  13
BRANCH  12  37
HETATM   37  C   UNL     1      -8.220   8.166  69.851  1.00  0.00    -0.118 A  
HETATM   38  C   UNL     1      -6.102   6.976  69.771  1.00  0.00    -0.027 A  
HETATM   39  O   UNL     1     -10.123   4.512  69.339  1.00  0.00    -0.193 OA 
HETATM   40  C   UNL     1      -8.898   6.943  69.671  1.00  0.00    -0.141 A  
HETATM   41  O   UNL     1      -8.206   3.449  69.266  1.00  0.00    -0.059 OA 
HETATM   42  C   UNL     1      -8.171   5.752  69.547  1.00  0.00    -0.108 A  
HETATM   43  C   UNL     1      -6.773   5.763  69.606  1.00  0.00    -0.055 A  
HETATM   44  N   UNL     1      -8.886   4.479  69.373  1.00  0.00    -0.086 N  
HETATM   45  C   UNL     1      -6.818   8.169  69.880  1.00  0.00    -0.044 A  
ENDBRANCH  12  37
ENDBRANCH   3   5
ENDBRANCH   2   3
TORSDOF 11
ENDMDL
MODEL      126
REMARK 921   NORMALIZED FREE ENERGY PREDICTED BY IDOCK:   -3.49 KCAL/MOL
REMARK 922        TOTAL FREE ENERGY PREDICTED BY IDOCK:   -7.60 KCAL/MOL
REMARK 923 INTER-LIGAND FREE ENERGY PREDICTED BY IDOCK:   -6.90 KCAL/MOL
REMARK 924 INTRA-LIGAND FREE ENERGY PREDICTED BY IDOCK:   -0.70 KCAL/MOL
REMARK 927      BINDING AFFINITY PREDICTED BY RF-SCORE:    0.00 PKD
ROOT
HETATM    1  C   UNL     1     -11.034  15.459  69.909  1.00  0.00    -0.294 C  
HETATM    2  O   UNL     1     -11.752  15.142  68.713  1.00  0.00    -0.329 OA 
ENDROOT
BRANCH   2   3
HETATM    3  C   UNL     1     -10.946  14.933  67.641  1.00  0.00    -0.300 C  
HETATM    4  O   UNL     1     -10.902  15.652  66.651  1.00  0.00    -0.313 OA 
BRANCH   3   5
HETATM    5  C   UNL     1     -10.154  13.687  67.814  1.00  0.00    -0.242 C  
HETATM    6  C   UNL     1     -10.715  12.560  68.325  1.00  0.00    -0.228 C  
HETATM    7  N   UNL     1      -9.931  11.431  68.515  1.00  0.00    -0.196 NA 
HETATM    8  C   UNL     1     -12.150  12.369  68.746  1.00  0.00    -0.158 C  
HETATM    9  C   UNL     1      -8.557  11.405  68.416  1.00  0.00    -0.156 C  
HETATM   10  C   UNL     1      -7.876  10.157  68.929  1.00  0.00    -0.100 C  
HETATM   11  C   UNL     1      -7.906  12.475  67.905  1.00  0.00    -0.144 C  
HETATM   12  C   UNL     1      -8.666  13.721  67.436  1.00  0.00    -0.210 C  
BRANCH  11  13
HETATM   13  C   UNL     1      -6.430  12.507  67.942  1.00  0.00    -0.105 C  
HETATM   14  O   UNL     1      -5.781  12.639  68.970  1.00  0.00    -0.067 OA 
BRANCH  13  15
HETATM   15  O   UNL     1      -5.905  12.398  66.693  1.00  0.00    -0.199 OA 
BRANCH  15  16
HETATM   16  C   UNL     1      -5.454  11.063  66.385  1.00  0.00    -0.121 C  
BRANCH  16  17
HETATM   17  C   UNL     1      -6.467  10.388  65.446  1.00  0.00    -0.115 C  
BRANCH  17  18
HETATM   18  N   UNL     1      -6.071   9.085  64.884  1.00  0.00    -0.064 NA 
HETATM   19  C   UNL     1      -6.722   7.573  66.840  1.00  0.00    -0.066 C  
HETATM   20  C   UNL     1      -5.608   8.131  65.917  1.00  0.00    -0.036 C  
HETATM   21  N   UNL     1      -7.838   6.916  66.114  1.00  0.00    -0.098 NA 
HETATM   22  C   UNL     1      -7.233   8.488  64.177  1.00  0.00    -0.092 C  
HETATM   23  C   UNL     1      -8.327   7.895  65.107  1.00  0.00    -0.120 C  
BRANCH  21  24
HETATM   24  C   UNL     1      -7.415   5.623  65.493  1.00  0.00    -0.074 C  
BRANCH  24  25
HETATM   25  C   UNL     1      -6.926   4.587  66.519  1.00  0.00    -0.062 A  
HETATM   26  C   UNL     1      -5.742   3.865  66.270  1.00  0.00    -0.018 A  
HETATM   27  C   UNL     1      -7.591   4.356  67.735  1.00  0.00    -0.077 A  
HETATM   28  C   UNL     1      -5.250   2.943  67.198  1.00  0.00    -0.009 A  
HETATM   29  C   UNL     1      -5.938   2.713  68.386  1.00  0.00    -0.024 A  
HETATM   30  C   UNL     1      -7.109   3.417  68.653  1.00  0.00    -0.050 A  
ENDBRANCH  24  25
BRANCH  24  31
HETATM   31  C   UNL     1      -8.481   5.057  64.543  1.00  0.00    -0.142 A  
HETATM   32  C   UNL     1     -10.343   3.756  62.883  1.00  0.00    -0.200 A  
HETATM   33  C   UNL     1      -9.204   4.337  62.332  1.00  0.00    -0.121 A  
HETATM   34  C   UNL     1      -9.649   4.483  65.080  1.00  0.00    -0.150 A  
HETATM   35  C   UNL     1      -8.277   4.979  63.155  1.00  0.00    -0.107 A  
HETATM   36  C   UNL     1     -10.566   3.830  64.256  1.00  0.00    -0.241 A  
ENDBRANCH  24  31
ENDBRANCH  21  24
ENDBRANCH  17  18
ENDBRANCH  16  17
ENDBRANCH  15  16
ENDBRANCH  13  15
ENDBRANCH  11  13
BRANCH  12  37
HETATM   37  C   UNL     1      -7.958  14.999  67.915  1.00  0.00    -0.146 A  
HETATM   38  C   UNL     1      -6.819  16.267  69.648  1.00  0.00    -0.125 A  
HETATM   39  O   UNL     1      -6.913  17.997  65.240  1.00  0.00    -0.430 OA 
HETATM   40  C   UNL     1      -7.626  16.002  66.982  1.00  0.00    -0.265 A  
HETATM   41  O   UNL     1      -5.890  19.134  66.812  1.00  0.00    -0.160 OA 
HETATM   42  C   UNL     1      -6.893  17.123  67.391  1.00  0.00    -0.153 A  
HETATM   43  C   UNL     1      -6.478  17.254  68.721  1.00  0.00    -0.194 A  
HETATM   44  N   UNL     1      -6.539  18.158  66.409  1.00  0.00    -0.199 N  
HETATM   45  C   UNL     1      -7.563  15.154  69.252  1.00  0.00    -0.201 A  
ENDBRANCH  12  37
ENDBRANCH   3   5
ENDBRANCH   2   3
TORSDOF 11
ENDMDL
MODEL      127
REMARK 921   NORMALIZED FREE ENERGY PREDICTED BY IDOCK:   -3.49 KCAL/MOL
REMARK 922        TOTAL FREE ENERGY PREDICTED BY IDOCK:   -7.60 KCAL/MOL
REMARK 923 INTER-LIGAND FREE ENERGY PREDICTED BY IDOCK:   -8.01 KCAL/MOL
REMARK 924 INTRA-LIGAND FREE ENERGY PREDICTED BY IDOCK:    0.41 KCAL/MOL
REMARK 927      BINDING AFFINITY PREDICTED BY RF-SCORE:    0.00 PKD
ROOT
HETATM    1  C   UNL     1     -10.235   4.541  67.806  1.00  0.00     0.088 C  
HETATM    2  O   UNL     1     -11.018   5.724  67.620  1.00  0.00    -0.240 OA 
ENDROOT
BRANCH   2   3
HETATM    3  C   UNL     1     -10.284   6.801  67.240  1.00  0.00    -0.210 C  
HETATM    4  O   UNL     1     -10.641   7.632  66.416  1.00  0.00    -0.020 OA 
BRANCH   3   5
HETATM    5  C   UNL     1      -8.968   6.809  67.931  1.00  0.00    -0.113 C  
HETATM    6  C   UNL     1      -7.930   6.054  67.483  1.00  0.00    -0.102 C  
HETATM    7  N   UNL     1      -6.732   6.053  68.183  1.00  0.00    -0.062 NA 
HETATM    8  C   UNL     1      -7.915   5.161  66.269  1.00  0.00    -0.104 C  
HETATM    9  C   UNL     1      -6.553   6.608  69.432  1.00  0.00    -0.048 C  
HETATM   10  C   UNL     1      -5.262   6.259  70.135  1.00  0.00    -0.013 C  
HETATM   11  C   UNL     1      -7.524   7.388  69.959  1.00  0.00    -0.084 C  
HETATM   12  C   UNL     1      -8.824   7.668  69.197  1.00  0.00    -0.139 C  
BRANCH  11  13
HETATM   13  C   UNL     1      -7.397   7.854  71.355  1.00  0.00    -0.066 C  
HETATM   14  O   UNL     1      -7.529   7.123  72.327  1.00  0.00    -0.083 OA 
BRANCH  13  15
HETATM   15  O   UNL     1      -7.145   9.188  71.407  1.00  0.00    -0.220 OA 
BRANCH  15  16
HETATM   16  C   UNL     1      -6.484   9.683  70.224  1.00  0.00    -0.083 C  
BRANCH  16  17
HETATM   17  C   UNL     1      -6.778  11.184  70.067  1.00  0.00    -0.055 C  
BRANCH  17  18
HETATM   18  N   UNL     1      -6.615  11.747  68.716  1.00  0.00    -0.068 NA 
HETATM   19  C   UNL     1      -7.429   9.754  67.336  1.00  0.00    -0.091 C  
HETATM   20  C   UNL     1      -6.273  10.720  67.705  1.00  0.00    -0.052 C  
HETATM   21  N   UNL     1      -8.660  10.436  66.862  1.00  0.00    -0.127 NA 
HETATM   22  C   UNL     1      -7.881  12.408  68.309  1.00  0.00    -0.150 C  
HETATM   23  C   UNL     1      -9.022  11.436  67.901  1.00  0.00    -0.153 C  
BRANCH  21  24
HETATM   24  C   UNL     1      -8.470  11.058  65.515  1.00  0.00    -0.069 C  
BRANCH  24  25
HETATM   25  C   UNL     1      -7.861  10.095  64.481  1.00  0.00    -0.141 A  
HETATM   26  C   UNL     1      -6.612  10.394  63.901  1.00  0.00    -0.010 A  
HETATM   27  C   UNL     1      -8.480   8.888  64.117  1.00  0.00    -0.156 A  
HETATM   28  C   UNL     1      -6.013   9.523  62.987  1.00  0.00    -0.095 A  
HETATM   29  C   UNL     1      -6.656   8.344  62.623  1.00  0.00    -0.091 A  
HETATM   30  C   UNL     1      -7.890   8.028  63.185  1.00  0.00    -0.148 A  
ENDBRANCH  24  25
BRANCH  24  31
HETATM   31  C   UNL     1      -9.747  11.743  65.004  1.00  0.00    -0.212 A  
HETATM   32  C   UNL     1     -11.944  13.040  63.820  1.00  0.00    -0.585 A  
HETATM   33  C   UNL     1     -11.155  13.713  64.748  1.00  0.00    -0.375 A  
HETATM   34  C   UNL     1     -10.568  11.071  64.080  1.00  0.00    -0.412 A  
HETATM   35  C   UNL     1     -10.061  13.072  65.333  1.00  0.00    -0.265 A  
HETATM   36  C   UNL     1     -11.652  11.719  63.486  1.00  0.00    -0.487 A  
ENDBRANCH  24  31
ENDBRANCH  21  24
ENDBRANCH  17  18
ENDBRANCH  16  17
ENDBRANCH  15  16
ENDBRANCH  13  15
ENDBRANCH  11  13
BRANCH  12  37
HETATM   37  C   UNL     1     -10.037   7.556  70.134  1.00  0.00    -0.195 A  
HETATM   38  C   UNL     1     -11.324   6.333  71.796  1.00  0.00    -0.346 A  
HETATM   39  O   UNL     1     -12.531  10.805  70.808  1.00  0.00    -0.324 OA 
HETATM   40  C   UNL     1     -10.869   8.676  70.333  1.00  0.00    -0.250 A  
HETATM   41  O   UNL     1     -13.687   9.692  72.303  1.00  0.00    -0.417 OA 
HETATM   42  C   UNL     1     -11.916   8.613  71.262  1.00  0.00    -0.293 A  
HETATM   43  C   UNL     1     -12.140   7.447  72.003  1.00  0.00    -0.325 A  
HETATM   44  N   UNL     1     -12.771   9.789  71.473  1.00  0.00    -0.374 N  
HETATM   45  C   UNL     1     -10.288   6.382  70.861  1.00  0.00    -0.246 A  
ENDBRANCH  12  37
ENDBRANCH   3   5
ENDBRANCH   2   3
TORSDOF 11
ENDMDL
MODEL      128
REMARK 921   NORMALIZED FREE ENERGY PREDICTED BY IDOCK:   -3.47 KCAL/MOL
REMARK 922        TOTAL FREE ENERGY PREDICTED BY IDOCK:   -7.56 KCAL/MOL
REMARK 923 INTER-LIGAND FREE ENERGY PREDICTED BY IDOCK:   -8.36 KCAL/MOL
REMARK 924 INTRA-LIGAND FREE ENERGY PREDICTED BY IDOCK:    0.80 KCAL/MOL
REMARK 927      BINDING AFFINITY PREDICTED BY RF-SCORE:    0.00 PKD
ROOT
HETATM    1  C   UNL     1     -11.765  17.266  67.921  1.00  0.00     1.023 C  
HETATM    2  O   UNL     1     -10.743  17.060  68.901  1.00  0.00    -0.335 OA 
ENDROOT
BRANCH   2   3
HETATM    3  C   UNL     1     -11.058  16.107  69.815  1.00  0.00    -0.350 C  
HETATM    4  O   UNL     1     -11.201  16.311  71.013  1.00  0.00    -0.337 OA 
BRANCH   3   5
HETATM    5  C   UNL     1     -11.165  14.773  69.167  1.00  0.00    -0.287 C  
HETATM    6  C   UNL     1     -11.997  13.816  69.656  1.00  0.00    -0.342 C  
HETATM    7  N   UNL     1     -12.034  12.568  69.051  1.00  0.00    -0.271 NA 
HETATM    8  C   UNL     1     -12.923  13.936  70.839  1.00  0.00    -0.316 C  
HETATM    9  C   UNL     1     -11.140  12.132  68.097  1.00  0.00    -0.248 C  
HETATM   10  C   UNL     1     -11.181  10.657  67.772  1.00  0.00    -0.383 C  
HETATM   11  C   UNL     1     -10.280  13.013  67.539  1.00  0.00    -0.221 C  
HETATM   12  C   UNL     1     -10.275  14.491  67.947  1.00  0.00    -0.231 C  
BRANCH  11  13
HETATM   13  C   UNL     1      -9.223  12.517  66.634  1.00  0.00    -0.223 C  
HETATM   14  O   UNL     1      -9.433  12.149  65.487  1.00  0.00    -0.185 OA 
BRANCH  13  15
HETATM   15  O   UNL     1      -8.013  12.501  67.253  1.00  0.00    -0.171 OA 
BRANCH  15  16
HETATM   16  C   UNL     1      -7.478  11.171  67.412  1.00  0.00    -0.109 C  
BRANCH  16  17
HETATM   17  C   UNL     1      -7.164  10.922  68.897  1.00  0.00    -0.095 C  
BRANCH  17  18
HETATM   18  N   UNL     1      -6.901   9.526  69.286  1.00  0.00    -0.048 NA 
HETATM   19  C   UNL     1      -9.161   8.955  70.336  1.00  0.00    -0.190 C  
HETATM   20  C   UNL     1      -7.629   9.125  70.511  1.00  0.00    -0.125 C  
HETATM   21  N   UNL     1      -9.546   7.996  69.269  1.00  0.00    -0.156 NA 
HETATM   22  C   UNL     1      -7.311   8.628  68.176  1.00  0.00    -0.091 C  
HETATM   23  C   UNL     1      -8.845   8.428  68.032  1.00  0.00    -0.142 C  
BRANCH  21  24
HETATM   24  C   UNL     1      -9.220   6.585  69.644  1.00  0.00    -0.143 C  
BRANCH  24  25
HETATM   25  C   UNL     1      -9.820   6.160  70.996  1.00  0.00    -0.213 A  
HETATM   26  C   UNL     1     -11.218   6.181  71.174  1.00  0.00    -0.355 A  
HETATM   27  C   UNL     1      -9.030   5.700  72.062  1.00  0.00    -0.142 A  
HETATM   28  C   UNL     1     -11.798   5.765  72.375  1.00  0.00    -0.227 A  
HETATM   29  C   UNL     1     -10.994   5.336  73.427  1.00  0.00    -0.372 A  
HETATM   30  C   UNL     1      -9.611   5.306  73.271  1.00  0.00    -0.151 A  
ENDBRANCH  24  25
BRANCH  24  31
HETATM   31  C   UNL     1      -9.544   5.593  68.517  1.00  0.00    -0.160 A  
HETATM   32  C   UNL     1      -9.889   3.857  66.330  1.00  0.00    -0.130 A  
HETATM   33  C   UNL     1     -10.609   5.047  66.395  1.00  0.00    -0.317 A  
HETATM   34  C   UNL     1      -8.842   4.376  68.444  1.00  0.00    -0.130 A  
HETATM   35  C   UNL     1     -10.435   5.911  67.478  1.00  0.00    -0.306 A  
HETATM   36  C   UNL     1      -9.007   3.520  67.354  1.00  0.00    -0.168 A  
ENDBRANCH  24  31
ENDBRANCH  21  24
ENDBRANCH  17  18
ENDBRANCH  16  17
ENDBRANCH  15  16
ENDBRANCH  13  15
ENDBRANCH  11  13
BRANCH  12  37
HETATM   37  C   UNL     1      -8.835  14.998  68.130  1.00  0.00    -0.167 A  
HETATM   38  C   UNL     1      -6.662  14.861  69.213  1.00  0.00    -0.141 A  
HETATM   39  O   UNL     1      -7.192  17.767  65.510  1.00  0.00    -0.475 OA 
HETATM   40  C   UNL     1      -8.311  15.946  67.228  1.00  0.00    -0.211 A  
HETATM   41  O   UNL     1      -5.236  17.637  66.495  1.00  0.00    -0.137 OA 
HETATM   42  C   UNL     1      -6.970  16.338  67.327  1.00  0.00    -0.192 A  
HETATM   43  C   UNL     1      -6.139  15.790  68.311  1.00  0.00    -0.116 A  
HETATM   44  N   UNL     1      -6.427  17.317  66.374  1.00  0.00    -0.230 N  
HETATM   45  C   UNL     1      -8.002  14.476  69.131  1.00  0.00    -0.048 A  
ENDBRANCH  12  37
ENDBRANCH   3   5
ENDBRANCH   2   3
TORSDOF 11
ENDMDL
MODEL      129
REMARK 921   NORMALIZED FREE ENERGY PREDICTED BY IDOCK:   -3.46 KCAL/MOL
REMARK 922        TOTAL FREE ENERGY PREDICTED BY IDOCK:   -7.54 KCAL/MOL
REMARK 923 INTER-LIGAND FREE ENERGY PREDICTED BY IDOCK:   -8.59 KCAL/MOL
REMARK 924 INTRA-LIGAND FREE ENERGY PREDICTED BY IDOCK:    1.05 KCAL/MOL
REMARK 927      BINDING AFFINITY PREDICTED BY RF-SCORE:    0.00 PKD
ROOT
HETATM    1  C   UNL     1      -7.675  15.866  68.844  1.00  0.00    -0.194 C  
HETATM    2  O   UNL     1      -7.962  14.508  68.497  1.00  0.00    -0.129 OA 
ENDROOT
BRANCH   2   3
HETATM    3  C   UNL     1      -9.287  14.262  68.338  1.00  0.00    -0.208 C  
HETATM    4  O   UNL     1     -10.148  14.510  69.172  1.00  0.00    -0.214 OA 
BRANCH   3   5
HETATM    5  C   UNL     1      -9.545  13.609  67.028  1.00  0.00    -0.251 C  
HETATM    6  C   UNL     1     -10.225  14.250  66.041  1.00  0.00    -0.315 C  
HETATM    7  N   UNL     1     -10.487  13.591  64.849  1.00  0.00    -0.384 NA 
HETATM    8  C   UNL     1     -10.774  15.654  66.081  1.00  0.00    -0.305 C  
HETATM    9  C   UNL     1     -10.287  12.243  64.638  1.00  0.00    -0.301 C  
HETATM   10  C   UNL     1     -10.890  11.671  63.377  1.00  0.00    -0.453 C  
HETATM   11  C   UNL     1      -9.607  11.520  65.556  1.00  0.00    -0.252 C  
HETATM   12  C   UNL     1      -9.054  12.167  66.831  1.00  0.00    -0.203 C  
BRANCH  11  13
HETATM   13  C   UNL     1      -9.528  10.052  65.405  1.00  0.00    -0.250 C  
HETATM   14  O   UNL     1     -10.401   9.285  65.784  1.00  0.00    -0.078 OA 
BRANCH  13  15
HETATM   15  O   UNL     1      -8.358   9.682  64.820  1.00  0.00    -0.133 OA 
BRANCH  15  16
HETATM   16  C   UNL     1      -7.518   8.894  65.689  1.00  0.00    -0.086 C  
BRANCH  16  17
HETATM   17  C   UNL     1      -7.788   7.401  65.443  1.00  0.00    -0.118 C  
BRANCH  17  18
HETATM   18  N   UNL     1      -7.639   6.508  66.605  1.00  0.00    -0.093 NA 
HETATM   19  C   UNL     1      -9.870   6.964  67.768  1.00  0.00    -0.136 C  
HETATM   20  C   UNL     1      -8.321   7.022  67.815  1.00  0.00    -0.117 C  
HETATM   21  N   UNL     1     -10.418   5.609  67.505  1.00  0.00    -0.227 NA 
HETATM   22  C   UNL     1      -8.209   5.177  66.271  1.00  0.00    -0.109 C  
HETATM   23  C   UNL     1      -9.761   5.116  66.266  1.00  0.00    -0.174 C  
BRANCH  21  24
HETATM   24  C   UNL     1     -10.209   4.688  68.665  1.00  0.00     0.072 C  
BRANCH  24  25
HETATM   25  C   UNL     1      -9.103   3.647  68.423  1.00  0.00    -0.200 A  
HETATM   26  C   UNL     1      -9.396   2.477  67.694  1.00  0.00    -0.199 A  
HETATM   27  C   UNL     1      -7.781   3.833  68.859  1.00  0.00    -0.053 A  
HETATM   28  C   UNL     1      -8.406   1.528  67.423  1.00  0.00    -0.082 A  
HETATM   29  C   UNL     1      -7.108   1.722  67.887  1.00  0.00    -0.039 A  
HETATM   30  C   UNL     1      -6.797   2.872  68.607  1.00  0.00    -0.044 A  
ENDBRANCH  24  25
BRANCH  24  31
HETATM   31  C   UNL     1     -10.024   5.449  69.987  1.00  0.00    -0.303 A  
HETATM   32  C   UNL     1      -9.711   6.588  72.540  1.00  0.00    -0.165 A  
HETATM   33  C   UNL     1     -10.919   6.720  71.861  1.00  0.00    -0.270 A  
HETATM   34  C   UNL     1      -8.803   5.345  70.678  1.00  0.00    -0.145 A  
HETATM   35  C   UNL     1     -11.077   6.151  70.596  1.00  0.00    -0.384 A  
HETATM   36  C   UNL     1      -8.652   5.902  71.949  1.00  0.00    -0.137 A  
ENDBRANCH  24  31
ENDBRANCH  21  24
ENDBRANCH  17  18
ENDBRANCH  16  17
ENDBRANCH  15  16
ENDBRANCH  13  15
ENDBRANCH  11  13
BRANCH  12  37
HETATM   37  C   UNL     1      -9.324  11.274  68.053  1.00  0.00    -0.166 A  
HETATM   38  C   UNL     1      -8.523   9.936  69.918  1.00  0.00    -0.210 A  
HETATM   39  O   UNL     1     -13.159  10.847  69.584  1.00  0.00    -0.043 OA 
HETATM   40  C   UNL     1     -10.640  11.143  68.542  1.00  0.00    -0.219 A  
HETATM   41  O   UNL     1     -12.426   9.640  71.262  1.00  0.00    -0.316 OA 
HETATM   42  C   UNL     1     -10.882  10.414  69.713  1.00  0.00    -0.292 A  
HETATM   43  C   UNL     1      -9.825   9.818  70.410  1.00  0.00    -0.269 A  
HETATM   44  N   UNL     1     -12.255  10.293  70.223  1.00  0.00    -0.250 N  
HETATM   45  C   UNL     1      -8.276  10.648  68.743  1.00  0.00    -0.142 A  
ENDBRANCH  12  37
ENDBRANCH   3   5
ENDBRANCH   2   3
TORSDOF 11
ENDMDL
MODEL      130
REMARK 921   NORMALIZED FREE ENERGY PREDICTED BY IDOCK:   -3.38 KCAL/MOL
REMARK 922        TOTAL FREE ENERGY PREDICTED BY IDOCK:   -7.41 KCAL/MOL
REMARK 923 INTER-LIGAND FREE ENERGY PREDICTED BY IDOCK:   -7.37 KCAL/MOL
REMARK 924 INTRA-LIGAND FREE ENERGY PREDICTED BY IDOCK:   -0.04 KCAL/MOL
REMARK 927      BINDING AFFINITY PREDICTED BY RF-SCORE:    0.00 PKD
ROOT
HETATM    1  C   UNL     1     -10.403  17.151  66.166  1.00  0.00    -0.322 C  
HETATM    2  O   UNL     1     -10.501  15.799  66.623  1.00  0.00    -0.293 OA 
ENDROOT
BRANCH   2   3
HETATM    3  C   UNL     1     -10.082  14.889  65.707  1.00  0.00    -0.341 C  
HETATM    4  O   UNL     1      -9.597  15.168  64.618  1.00  0.00     0.213 OA 
BRANCH   3   5
HETATM    5  C   UNL     1     -10.334  13.506  66.188  1.00  0.00    -0.296 C  
HETATM    6  C   UNL     1     -11.597  13.049  66.394  1.00  0.00    -0.363 C  
HETATM    7  N   UNL     1     -11.790  11.767  66.888  1.00  0.00    -0.585 NA 
HETATM    8  C   UNL     1     -12.884  13.797  66.155  1.00  0.00    -0.188 C  
HETATM    9  C   UNL     1     -10.790  10.961  67.389  1.00  0.00    -0.279 C  
HETATM   10  C   UNL     1     -11.241   9.724  68.129  1.00  0.00    -0.073 C  
HETATM   11  C   UNL     1      -9.498  11.323  67.221  1.00  0.00    -0.184 C  
HETATM   12  C   UNL     1      -9.119  12.614  66.487  1.00  0.00    -0.163 C  
BRANCH  11  13
HETATM   13  C   UNL     1      -8.437  10.541  67.890  1.00  0.00    -0.119 C  
HETATM   14  O   UNL     1      -7.690   9.773  67.301  1.00  0.00    -0.095 OA 
BRANCH  13  15
HETATM   15  O   UNL     1      -8.428  10.772  69.229  1.00  0.00    -0.135 OA 
BRANCH  15  16
HETATM   16  C   UNL     1      -7.190  10.382  69.860  1.00  0.00    -0.153 C  
BRANCH  16  17
HETATM   17  C   UNL     1      -7.486   9.368  70.977  1.00  0.00    -0.010 C  
BRANCH  17  18
HETATM   18  N   UNL     1      -8.654   8.494  70.776  1.00  0.00    -0.141 NA 
HETATM   19  C   UNL     1      -7.449   6.327  70.151  1.00  0.00    -0.094 C  
HETATM   20  C   UNL     1      -8.426   7.460  69.741  1.00  0.00    -0.136 C  
HETATM   21  N   UNL     1      -7.835   5.615  71.396  1.00  0.00    -0.109 NA 
HETATM   22  C   UNL     1      -8.980   7.816  72.057  1.00  0.00    -0.134 C  
HETATM   23  C   UNL     1      -8.022   6.655  72.442  1.00  0.00    -0.099 C  
BRANCH  21  24
HETATM   24  C   UNL     1      -9.059   4.777  71.202  1.00  0.00    -0.137 C  
BRANCH  24  25
HETATM   25  C   UNL     1      -9.029   3.948  69.907  1.00  0.00    -0.162 A  
HETATM   26  C   UNL     1      -8.436   2.669  69.912  1.00  0.00    -0.091 A  
HETATM   27  C   UNL     1      -9.617   4.392  68.712  1.00  0.00    -0.224 A  
HETATM   28  C   UNL     1      -8.426   1.874  68.763  1.00  0.00    -0.085 A  
HETATM   29  C   UNL     1      -8.993   2.345  67.583  1.00  0.00    -0.186 A  
HETATM   30  C   UNL     1      -9.586   3.604  67.557  1.00  0.00    -0.194 A  
ENDBRANCH  24  25
BRANCH  24  31
HETATM   31  C   UNL     1      -9.384   3.927  72.440  1.00  0.00    -0.166 A  
HETATM   32  C   UNL     1      -9.933   2.139  74.540  1.00  0.00    -0.149 A  
HETATM   33  C   UNL     1     -10.977   2.787  73.887  1.00  0.00    -0.282 A  
HETATM   34  C   UNL     1      -8.341   3.279  73.126  1.00  0.00    -0.078 A  
HETATM   35  C   UNL     1     -10.707   3.672  72.841  1.00  0.00    -0.192 A  
HETATM   36  C   UNL     1      -8.616   2.385  74.162  1.00  0.00    -0.070 A  
ENDBRANCH  24  31
ENDBRANCH  21  24
ENDBRANCH  17  18
ENDBRANCH  16  17
ENDBRANCH  15  16
ENDBRANCH  13  15
ENDBRANCH  11  13
BRANCH  12  37
HETATM   37  C   UNL     1      -8.005  13.359  67.240  1.00  0.00    -0.130 A  
HETATM   38  C   UNL     1      -5.658  13.651  67.802  1.00  0.00    -0.075 A  
HETATM   39  O   UNL     1      -8.769  16.936  69.202  1.00  0.00    -0.193 OA 
HETATM   40  C   UNL     1      -8.300  14.566  67.904  1.00  0.00    -0.159 A  
HETATM   41  O   UNL     1      -6.649  17.189  69.706  1.00  0.00    -0.191 OA 
HETATM   42  C   UNL     1      -7.272  15.303  68.506  1.00  0.00    -0.114 A  
HETATM   43  C   UNL     1      -5.948  14.854  68.449  1.00  0.00    -0.104 A  
HETATM   44  N   UNL     1      -7.587  16.568  69.186  1.00  0.00    -0.232 N  
HETATM   45  C   UNL     1      -6.679  12.903  67.212  1.00  0.00    -0.056 A  
ENDBRANCH  12  37
ENDBRANCH   3   5
ENDBRANCH   2   3
TORSDOF 11
ENDMDL
MODEL      131
REMARK 921   NORMALIZED FREE ENERGY PREDICTED BY IDOCK:   -3.36 KCAL/MOL
REMARK 922        TOTAL FREE ENERGY PREDICTED BY IDOCK:   -7.38 KCAL/MOL
REMARK 923 INTER-LIGAND FREE ENERGY PREDICTED BY IDOCK:   -8.07 KCAL/MOL
REMARK 924 INTRA-LIGAND FREE ENERGY PREDICTED BY IDOCK:    0.69 KCAL/MOL
REMARK 927      BINDING AFFINITY PREDICTED BY RF-SCORE:    0.00 PKD
ROOT
HETATM    1  C   UNL     1     -13.924   8.903  72.789  1.00  0.00    -0.172 C  
HETATM    2  O   UNL     1     -13.388   9.116  71.480  1.00  0.00    -0.351 OA 
ENDROOT
BRANCH   2   3
HETATM    3  C   UNL     1     -12.494   8.167  71.103  1.00  0.00    -0.182 C  
HETATM    4  O   UNL     1     -12.773   6.997  70.878  1.00  0.00    -0.334 OA 
BRANCH   3   5
HETATM    5  C   UNL     1     -11.121   8.734  71.043  1.00  0.00    -0.328 C  
HETATM    6  C   UNL     1     -10.765   9.620  70.077  1.00  0.00    -0.259 C  
HETATM    7  N   UNL     1      -9.461  10.091  70.026  1.00  0.00    -0.198 NA 
HETATM    8  C   UNL     1     -11.645  10.177  68.987  1.00  0.00    -0.076 C  
HETATM    9  C   UNL     1      -8.414   9.582  70.764  1.00  0.00    -0.028 C  
HETATM   10  C   UNL     1      -7.032  10.042  70.362  1.00  0.00    -0.137 C  
HETATM   11  C   UNL     1      -8.668   8.703  71.760  1.00  0.00    -0.266 C  
HETATM   12  C   UNL     1     -10.098   8.257  72.086  1.00  0.00    -0.344 C  
BRANCH  11  13
HETATM   13  C   UNL     1      -7.538   8.043  72.446  1.00  0.00    -0.112 C  
HETATM   14  O   UNL     1      -7.581   7.660  73.606  1.00  0.00    -0.107 OA 
BRANCH  13  15
HETATM   15  O   UNL     1      -6.456   7.949  71.629  1.00  0.00    -0.038 OA 
BRANCH  15  16
HETATM   16  C   UNL     1      -6.474   6.767  70.802  1.00  0.00    -0.051 C  
BRANCH  16  17
HETATM   17  C   UNL     1      -5.347   6.856  69.761  1.00  0.00    -0.015 C  
BRANCH  17  18
HETATM   18  N   UNL     1      -5.684   6.429  68.392  1.00  0.00    -0.015 NA 
HETATM   19  C   UNL     1      -8.059   7.363  68.239  1.00  0.00    -0.125 C  
HETATM   20  C   UNL     1      -7.123   6.126  68.224  1.00  0.00    -0.082 C  
HETATM   21  N   UNL     1      -7.714   8.397  67.231  1.00  0.00    -0.097 NA 
HETATM   22  C   UNL     1      -5.314   7.510  67.441  1.00  0.00    -0.026 C  
HETATM   23  C   UNL     1      -6.279   8.727  67.432  1.00  0.00    -0.056 C  
BRANCH  21  24
HETATM   24  C   UNL     1      -8.001   7.934  65.838  1.00  0.00    -0.106 C  
BRANCH  24  25
HETATM   25  C   UNL     1      -8.717   6.573  65.784  1.00  0.00    -0.129 A  
HETATM   26  C   UNL     1      -9.965   6.417  66.420  1.00  0.00    -0.096 A  
HETATM   27  C   UNL     1      -8.199   5.475  65.079  1.00  0.00    -0.139 A  
HETATM   28  C   UNL     1     -10.659   5.206  66.358  1.00  0.00    -0.336 A  
HETATM   29  C   UNL     1     -10.115   4.123  65.674  1.00  0.00    -0.189 A  
HETATM   30  C   UNL     1      -8.884   4.257  65.038  1.00  0.00    -0.136 A  
ENDBRANCH  24  25
BRANCH  24  31
HETATM   31  C   UNL     1      -8.714   9.009  65.003  1.00  0.00    -0.217 A  
HETATM   32  C   UNL     1      -9.761  11.105  63.447  1.00  0.00    -0.382 A  
HETATM   33  C   UNL     1      -9.968  11.089  64.824  1.00  0.00    -0.350 A  
HETATM   34  C   UNL     1      -8.534   9.031  63.607  1.00  0.00    -0.173 A  
HETATM   35  C   UNL     1      -9.444  10.052  65.597  1.00  0.00    -0.278 A  
HETATM   36  C   UNL     1      -9.046  10.077  62.838  1.00  0.00    -0.301 A  
ENDBRANCH  24  31
ENDBRANCH  21  24
ENDBRANCH  17  18
ENDBRANCH  16  17
ENDBRANCH  15  16
ENDBRANCH  13  15
ENDBRANCH  11  13
BRANCH  12  37
HETATM   37  C   UNL     1     -10.152   6.739  72.322  1.00  0.00    -0.191 A  
HETATM   38  C   UNL     1     -10.769   4.830  73.695  1.00  0.00    -0.350 A  
HETATM   39  O   UNL     1      -9.183   4.066  69.298  1.00  0.00    -0.122 OA 
HETATM   40  C   UNL     1      -9.807   5.859  71.276  1.00  0.00    -0.215 A  
HETATM   41  O   UNL     1      -9.740   2.350  70.545  1.00  0.00    -0.101 OA 
HETATM   42  C   UNL     1      -9.950   4.477  71.450  1.00  0.00    -0.189 A  
HETATM   43  C   UNL     1     -10.440   3.959  72.654  1.00  0.00    -0.204 A  
HETATM   44  N   UNL     1      -9.600   3.566  70.350  1.00  0.00    -0.186 N  
HETATM   45  C   UNL     1     -10.615   6.208  73.535  1.00  0.00    -0.283 A  
ENDBRANCH  12  37
ENDBRANCH   3   5
ENDBRANCH   2   3
TORSDOF 11
ENDMDL
MODEL      132
REMARK 921   NORMALIZED FREE ENERGY PREDICTED BY IDOCK:   -3.36 KCAL/MOL
REMARK 922        TOTAL FREE ENERGY PREDICTED BY IDOCK:   -7.38 KCAL/MOL
REMARK 923 INTER-LIGAND FREE ENERGY PREDICTED BY IDOCK:   -6.51 KCAL/MOL
REMARK 924 INTRA-LIGAND FREE ENERGY PREDICTED BY IDOCK:   -0.88 KCAL/MOL
REMARK 927      BINDING AFFINITY PREDICTED BY RF-SCORE:    0.00 PKD
ROOT
HETATM    1  C   UNL     1      -6.341  14.048  70.281  1.00  0.00    -0.092 C  
HETATM    2  O   UNL     1      -5.845  13.131  69.301  1.00  0.00    -0.079 OA 
ENDROOT
BRANCH   2   3
HETATM    3  C   UNL     1      -6.309  13.379  68.049  1.00  0.00    -0.132 C  
HETATM    4  O   UNL     1      -6.098  14.407  67.418  1.00  0.00    -0.341 OA 
BRANCH   3   5
HETATM    5  C   UNL     1      -7.144  12.249  67.566  1.00  0.00    -0.142 C  
HETATM    6  C   UNL     1      -6.660  11.344  66.675  1.00  0.00    -0.114 C  
HETATM    7  N   UNL     1      -7.485  10.329  66.212  1.00  0.00    -0.112 NA 
HETATM    8  C   UNL     1      -5.274  11.304  66.083  1.00  0.00    -0.115 C  
HETATM    9  C   UNL     1      -8.845  10.266  66.426  1.00  0.00    -0.145 C  
HETATM   10  C   UNL     1      -9.600   9.242  65.611  1.00  0.00    -0.324 C  
HETATM   11  C   UNL     1      -9.420  11.116  67.307  1.00  0.00    -0.178 C  
HETATM   12  C   UNL     1      -8.591  12.153  68.073  1.00  0.00    -0.175 C  
BRANCH  11  13
HETATM   13  C   UNL     1     -10.893  11.151  67.420  1.00  0.00    -0.266 C  
HETATM   14  O   UNL     1     -11.642  11.281  66.463  1.00  0.00    -0.344 OA 
BRANCH  13  15
HETATM   15  O   UNL     1     -11.288  11.046  68.716  1.00  0.00    -0.235 OA 
BRANCH  15  16
HETATM   16  C   UNL     1     -11.492   9.681  69.136  1.00  0.00     0.172 C  
BRANCH  16  17
HETATM   17  C   UNL     1     -10.281   9.216  69.960  1.00  0.00    -0.204 C  
BRANCH  17  18
HETATM   18  N   UNL     1     -10.183   7.769  70.221  1.00  0.00    -0.197 NA 
HETATM   19  C   UNL     1     -10.433   6.899  67.830  1.00  0.00    -0.223 C  
HETATM   20  C   UNL     1     -10.987   6.960  69.277  1.00  0.00    -0.221 C  
HETATM   21  N   UNL     1      -9.035   6.408  67.737  1.00  0.00    -0.115 NA 
HETATM   22  C   UNL     1      -8.762   7.351  70.109  1.00  0.00    -0.143 C  
HETATM   23  C   UNL     1      -8.224   7.251  68.655  1.00  0.00    -0.125 C  
BRANCH  21  24
HETATM   24  C   UNL     1      -8.932   4.952  68.063  1.00  0.00    -0.110 C  
BRANCH  24  25
HETATM   25  C   UNL     1      -9.125   4.040  66.839  1.00  0.00    -0.157 A  
HETATM   26  C   UNL     1      -9.541   4.598  65.613  1.00  0.00    -0.189 A  
HETATM   27  C   UNL     1      -8.856   2.662  66.873  1.00  0.00    -0.148 A  
HETATM   28  C   UNL     1      -9.690   3.804  64.473  1.00  0.00    -0.182 A  
HETATM   29  C   UNL     1      -9.441   2.437  64.536  1.00  0.00    -0.128 A  
HETATM   30  C   UNL     1      -9.026   1.866  65.737  1.00  0.00    -0.103 A  
ENDBRANCH  24  25
BRANCH  24  31
HETATM   31  C   UNL     1      -7.655   4.620  68.850  1.00  0.00    -0.064 A  
HETATM   32  C   UNL     1      -5.371   4.249  70.450  1.00  0.00    -0.004 A  
HETATM   33  C   UNL     1      -5.243   4.750  69.158  1.00  0.00    -0.004 A  
HETATM   34  C   UNL     1      -7.763   4.094  70.151  1.00  0.00    -0.049 A  
HETATM   35  C   UNL     1      -6.376   4.939  68.364  1.00  0.00    -0.036 A  
HETATM   36  C   UNL     1      -6.630   3.920  70.947  1.00  0.00    -0.031 A  
ENDBRANCH  24  31
ENDBRANCH  21  24
ENDBRANCH  17  18
ENDBRANCH  16  17
ENDBRANCH  15  16
ENDBRANCH  13  15
ENDBRANCH  11  13
BRANCH  12  37
HETATM   37  C   UNL     1      -9.307  13.513  68.090  1.00  0.00    -0.213 A  
HETATM   38  C   UNL     1     -10.223  15.441  66.925  1.00  0.00    -0.273 A  
HETATM   39  O   UNL     1     -11.057  14.966  71.563  1.00  0.00    -0.205 OA 
HETATM   40  C   UNL     1      -9.882  13.982  69.289  1.00  0.00     0.227 A  
HETATM   41  O   UNL     1     -11.877  16.702  70.503  1.00  0.00     0.186 OA 
HETATM   42  C   UNL     1     -10.623  15.171  69.291  1.00  0.00    -0.253 A  
HETATM   43  C   UNL     1     -10.804  15.898  68.109  1.00  0.00    -0.317 A  
HETATM   44  N   UNL     1     -11.230  15.646  70.543  1.00  0.00    -0.332 N  
HETATM   45  C   UNL     1      -9.471  14.264  66.917  1.00  0.00    -0.272 A  
ENDBRANCH  12  37
ENDBRANCH   3   5
ENDBRANCH   2   3
TORSDOF 11
ENDMDL
MODEL      133
REMARK 921   NORMALIZED FREE ENERGY PREDICTED BY IDOCK:   -3.34 KCAL/MOL
REMARK 922        TOTAL FREE ENERGY PREDICTED BY IDOCK:   -7.35 KCAL/MOL
REMARK 923 INTER-LIGAND FREE ENERGY PREDICTED BY IDOCK:   -8.23 KCAL/MOL
REMARK 924 INTRA-LIGAND FREE ENERGY PREDICTED BY IDOCK:    0.87 KCAL/MOL
REMARK 927      BINDING AFFINITY PREDICTED BY RF-SCORE:    0.00 PKD
ROOT
HETATM    1  C   UNL     1     -11.540   8.060  72.804  1.00  0.00    -0.327 C  
HETATM    2  O   UNL     1     -10.833   7.855  71.578  1.00  0.00    -0.225 OA 
ENDROOT
BRANCH   2   3
HETATM    3  C   UNL     1      -9.768   8.682  71.425  1.00  0.00    -0.244 C  
HETATM    4  O   UNL     1      -8.929   8.905  72.287  1.00  0.00    -0.388 OA 
BRANCH   3   5
HETATM    5  C   UNL     1      -9.784   9.315  70.080  1.00  0.00    -0.234 C  
HETATM    6  C   UNL     1     -10.927   9.835  69.557  1.00  0.00    -0.227 C  
HETATM    7  N   UNL     1     -10.911  10.375  68.280  1.00  0.00    -0.253 NA 
HETATM    8  C   UNL     1     -12.282   9.891  70.215  1.00  0.00    -0.118 C  
HETATM    9  C   UNL     1      -9.866  10.255  67.390  1.00  0.00    -0.179 C  
HETATM   10  C   UNL     1     -10.154  10.669  65.966  1.00  0.00    -0.308 C  
HETATM   11  C   UNL     1      -8.682   9.762  67.818  1.00  0.00    -0.129 C  
HETATM   12  C   UNL     1      -8.476   9.330  69.274  1.00  0.00    -0.137 C  
BRANCH  11  13
HETATM   13  C   UNL     1      -7.614   9.491  66.833  1.00  0.00    -0.095 C  
HETATM   14  O   UNL     1      -7.401   8.386  66.353  1.00  0.00    -0.081 OA 
BRANCH  13  15
HETATM   15  O   UNL     1      -6.899  10.614  66.561  1.00  0.00    -0.107 OA 
BRANCH  15  16
HETATM   16  C   UNL     1      -5.869  10.876  67.536  1.00  0.00    -0.045 C  
BRANCH  16  17
HETATM   17  C   UNL     1      -5.966  12.339  67.998  1.00  0.00    -0.067 C  
BRANCH  17  18
HETATM   18  N   UNL     1      -7.287  12.793  68.465  1.00  0.00    -0.112 NA 
HETATM   19  C   UNL     1      -6.940  15.320  68.305  1.00  0.00    -0.117 C  
HETATM   20  C   UNL     1      -7.228  14.081  69.192  1.00  0.00    -0.059 C  
HETATM   21  N   UNL     1      -7.897  15.499  67.183  1.00  0.00    -0.204 NA 
HETATM   22  C   UNL     1      -8.188  12.951  67.294  1.00  0.00    -0.176 C  
HETATM   23  C   UNL     1      -7.920  14.216  66.433  1.00  0.00     1.191 C  
BRANCH  21  24
HETATM   24  C   UNL     1      -9.254  15.900  67.667  1.00  0.00    -0.208 C  
BRANCH  24  25
HETATM   25  C   UNL     1      -9.445  17.424  67.750  1.00  0.00    -0.261 A  
HETATM   26  C   UNL     1      -8.539  18.200  68.500  1.00  0.00    -0.307 A  
HETATM   27  C   UNL     1     -10.469  18.095  67.062  1.00  0.00    -0.385 A  
HETATM   28  C   UNL     1      -8.661  19.591  68.565  1.00  0.00    -0.388 A  
HETATM   29  C   UNL     1      -9.699  20.232  67.895  1.00  0.00    -0.472 A  
HETATM   30  C   UNL     1     -10.603  19.485  67.146  1.00  0.00    -0.605 A  
ENDBRANCH  24  25
BRANCH  24  31
HETATM   31  C   UNL     1     -10.379  15.205  66.885  1.00  0.00    -0.272 A  
HETATM   32  C   UNL     1     -12.584  14.184  65.467  1.00  0.00    -0.501 A  
HETATM   33  C   UNL     1     -12.400  13.848  66.806  1.00  0.00    -0.370 A  
HETATM   34  C   UNL     1     -10.570  15.516  65.526  1.00  0.00    -0.413 A  
HETATM   35  C   UNL     1     -11.309  14.358  67.512  1.00  0.00    -0.345 A  
HETATM   36  C   UNL     1     -11.669  15.017  64.827  1.00  0.00    -0.370 A  
ENDBRANCH  24  31
ENDBRANCH  21  24
ENDBRANCH  17  18
ENDBRANCH  16  17
ENDBRANCH  15  16
ENDBRANCH  13  15
ENDBRANCH  11  13
BRANCH  12  37
HETATM   37  C   UNL     1      -7.720   7.994  69.342  1.00  0.00    -0.104 A  
HETATM   38  C   UNL     1      -5.755   6.700  69.955  1.00  0.00    -0.018 A  
HETATM   39  O   UNL     1      -9.624   4.411  68.465  1.00  0.00    -0.149 OA 
HETATM   40  C   UNL     1      -8.394   6.796  69.028  1.00  0.00    -0.124 A  
HETATM   41  O   UNL     1      -7.845   3.253  69.019  1.00  0.00    -0.051 OA 
HETATM   42  C   UNL     1      -7.743   5.566  69.185  1.00  0.00    -0.087 A  
HETATM   43  C   UNL     1      -6.427   5.513  69.657  1.00  0.00    -0.045 A  
HETATM   44  N   UNL     1      -8.457   4.320  68.868  1.00  0.00    -0.082 N  
HETATM   45  C   UNL     1      -6.391   7.931  69.788  1.00  0.00    -0.030 A  
ENDBRANCH  12  37
ENDBRANCH   3   5
ENDBRANCH   2   3
TORSDOF 11
ENDMDL
MODEL      134
REMARK 921   NORMALIZED FREE ENERGY PREDICTED BY IDOCK:   -3.34 KCAL/MOL
REMARK 922        TOTAL FREE ENERGY PREDICTED BY IDOCK:   -7.35 KCAL/MOL
REMARK 923 INTER-LIGAND FREE ENERGY PREDICTED BY IDOCK:   -7.66 KCAL/MOL
REMARK 924 INTRA-LIGAND FREE ENERGY PREDICTED BY IDOCK:    0.31 KCAL/MOL
REMARK 927      BINDING AFFINITY PREDICTED BY RF-SCORE:    0.00 PKD
ROOT
HETATM    1  C   UNL     1      -6.396  14.705  70.096  1.00  0.00    -0.173 C  
HETATM    2  O   UNL     1      -5.861  13.722  69.206  1.00  0.00    -0.080 OA 
ENDROOT
BRANCH   2   3
HETATM    3  C   UNL     1      -6.254  13.892  67.918  1.00  0.00    -0.158 C  
HETATM    4  O   UNL     1      -5.983  14.865  67.227  1.00  0.00    -0.312 OA 
BRANCH   3   5
HETATM    5  C   UNL     1      -7.098  12.751  67.473  1.00  0.00    -0.148 C  
HETATM    6  C   UNL     1      -6.579  11.735  66.735  1.00  0.00    -0.060 C  
HETATM    7  N   UNL     1      -7.409  10.711  66.300  1.00  0.00    -0.132 NA 
HETATM    8  C   UNL     1      -5.147  11.573  66.293  1.00  0.00    -0.031 C  
HETATM    9  C   UNL     1      -8.785  10.729  66.382  1.00  0.00    -0.158 C  
HETATM   10  C   UNL     1      -9.510   9.655  65.606  1.00  0.00    -0.318 C  
HETATM   11  C   UNL     1      -9.395  11.693  67.107  1.00  0.00    -0.178 C  
HETATM   12  C   UNL     1      -8.590  12.772  67.840  1.00  0.00    -0.181 C  
BRANCH  11  13
HETATM   13  C   UNL     1     -10.868  11.802  67.068  1.00  0.00    -0.263 C  
HETATM   14  O   UNL     1     -11.516  11.847  66.031  1.00  0.00    -0.341 OA 
BRANCH  13  15
HETATM   15  O   UNL     1     -11.389  11.870  68.321  1.00  0.00    -0.232 OA 
BRANCH  15  16
HETATM   16  C   UNL     1     -11.645  10.573  68.897  1.00  0.00    -0.196 C  
BRANCH  16  17
HETATM   17  C   UNL     1     -10.528  10.231  69.898  1.00  0.00    -0.256 C  
BRANCH  17  18
HETATM   18  N   UNL     1     -10.469   8.835  70.362  1.00  0.00    -0.202 NA 
HETATM   19  C   UNL     1     -10.476   7.644  68.099  1.00  0.00    -0.181 C  
HETATM   20  C   UNL     1     -11.177   7.900  69.459  1.00  0.00     0.136 C  
HETATM   21  N   UNL     1      -9.080   7.155  68.220  1.00  0.00    -0.134 NA 
HETATM   22  C   UNL     1      -9.047   8.414  70.457  1.00  0.00    -0.150 C  
HETATM   23  C   UNL     1      -8.362   8.121  69.094  1.00  0.00    -0.131 C  
BRANCH  21  24
HETATM   24  C   UNL     1      -9.023   5.757  68.750  1.00  0.00    -0.116 C  
BRANCH  24  25
HETATM   25  C   UNL     1      -9.102   4.685  67.650  1.00  0.00    -0.133 A  
HETATM   26  C   UNL     1      -9.153   3.323  68.007  1.00  0.00    -0.214 A  
HETATM   27  C   UNL     1      -9.174   5.008  66.285  1.00  0.00    -0.144 A  
HETATM   28  C   UNL     1      -9.263   2.326  67.034  1.00  0.00    -0.087 A  
HETATM   29  C   UNL     1      -9.309   2.667  65.686  1.00  0.00    -0.024 A  
HETATM   30  C   UNL     1      -9.262   4.008  65.312  1.00  0.00    -0.151 A  
ENDBRANCH  24  25
BRANCH  24  31
HETATM   31  C   UNL     1      -7.834   5.543  69.699  1.00  0.00    -0.090 A  
HETATM   32  C   UNL     1      -5.743   5.388  71.574  1.00  0.00    -0.020 A  
HETATM   33  C   UNL     1      -5.488   5.842  70.283  1.00  0.00    -0.012 A  
HETATM   34  C   UNL     1      -8.067   5.066  71.002  1.00  0.00    -0.101 A  
HETATM   35  C   UNL     1      -6.526   5.924  69.353  1.00  0.00    -0.042 A  
HETATM   36  C   UNL     1      -7.030   4.999  71.934  1.00  0.00    -0.065 A  
ENDBRANCH  24  31
ENDBRANCH  21  24
ENDBRANCH  17  18
ENDBRANCH  16  17
ENDBRANCH  15  16
ENDBRANCH  13  15
ENDBRANCH  11  13
BRANCH  12  37
HETATM   37  C   UNL     1      -9.232  14.155  67.643  1.00  0.00    -0.193 A  
HETATM   38  C   UNL     1      -9.592  16.446  68.372  1.00  0.00    -0.219 A  
HETATM   39  O   UNL     1     -11.172  15.131  64.106  1.00  0.00    -0.087 OA 
HETATM   40  C   UNL     1      -9.892  14.450  66.433  1.00  0.00    -0.309 A  
HETATM   41  O   UNL     1     -11.494  17.195  64.774  1.00  0.00    -0.557 OA 
HETATM   42  C   UNL     1     -10.391  15.739  66.206  1.00  0.00    -0.310 A  
HETATM   43  C   UNL     1     -10.234  16.742  67.168  1.00  0.00    -0.295 A  
HETATM   44  N   UNL     1     -11.066  16.043  64.936  1.00  0.00    -0.421 N  
HETATM   45  C   UNL     1      -9.105  15.160  68.613  1.00  0.00    -0.195 A  
ENDBRANCH  12  37
ENDBRANCH   3   5
ENDBRANCH   2   3
TORSDOF 11
ENDMDL
MODEL      135
REMARK 921   NORMALIZED FREE ENERGY PREDICTED BY IDOCK:   -3.32 KCAL/MOL
REMARK 922        TOTAL FREE ENERGY PREDICTED BY IDOCK:   -7.32 KCAL/MOL
REMARK 923 INTER-LIGAND FREE ENERGY PREDICTED BY IDOCK:   -6.10 KCAL/MOL
REMARK 924 INTRA-LIGAND FREE ENERGY PREDICTED BY IDOCK:   -1.22 KCAL/MOL
REMARK 927      BINDING AFFINITY PREDICTED BY RF-SCORE:    0.00 PKD
ROOT
HETATM    1  C   UNL     1     -11.902  15.335  65.597  1.00  0.00     0.155 C  
HETATM    2  O   UNL     1     -10.879  16.264  65.967  1.00  0.00    -0.244 OA 
ENDROOT
BRANCH   2   3
HETATM    3  C   UNL     1     -10.575  16.232  67.290  1.00  0.00    -0.298 C  
HETATM    4  O   UNL     1     -11.332  16.578  68.187  1.00  0.00    -0.308 OA 
BRANCH   3   5
HETATM    5  C   UNL     1      -9.181  15.760  67.497  1.00  0.00    -0.207 C  
HETATM    6  C   UNL     1      -8.128  16.388  66.910  1.00  0.00    -0.226 C  
HETATM    7  N   UNL     1      -6.846  15.889  67.091  1.00  0.00    -0.209 NA 
HETATM    8  C   UNL     1      -8.176  17.612  66.032  1.00  0.00    -0.126 C  
HETATM    9  C   UNL     1      -6.553  14.670  67.663  1.00  0.00    -0.155 C  
HETATM   10  C   UNL     1      -5.127  14.192  67.514  1.00  0.00     0.230 C  
HETATM   11  C   UNL     1      -7.531  13.974  68.285  1.00  0.00    -0.123 C  
HETATM   12  C   UNL     1      -8.965  14.511  68.366  1.00  0.00    -0.186 C  
BRANCH  11  13
HETATM   13  C   UNL     1      -7.251  12.604  68.762  1.00  0.00    -0.083 C  
HETATM   14  O   UNL     1      -7.015  12.329  69.929  1.00  0.00     0.186 OA 
BRANCH  13  15
HETATM   15  O   UNL     1      -7.267  11.714  67.735  1.00  0.00    -0.090 OA 
BRANCH  15  16
HETATM   16  C   UNL     1      -7.547  10.365  68.161  1.00  0.00    -0.091 C  
BRANCH  16  17
HETATM   17  C   UNL     1      -8.188   9.587  67.000  1.00  0.00    -0.113 C  
BRANCH  17  18
HETATM   18  N   UNL     1      -9.164   8.547  67.368  1.00  0.00    -0.139 NA 
HETATM   19  C   UNL     1      -8.493   6.736  65.692  1.00  0.00    -0.138 C  
HETATM   20  C   UNL     1      -9.577   7.714  66.215  1.00  0.00    -0.085 C  
HETATM   21  N   UNL     1      -7.961   5.812  66.725  1.00  0.00    -0.101 NA 
HETATM   22  C   UNL     1      -8.565   7.662  68.400  1.00  0.00    -0.124 C  
HETATM   23  C   UNL     1      -7.509   6.657  67.863  1.00  0.00    -0.098 C  
BRANCH  21  24
HETATM   24  C   UNL     1      -8.977   4.796  67.140  1.00  0.00    -0.112 C  
BRANCH  24  25
HETATM   25  C   UNL     1      -9.377   3.837  66.005  1.00  0.00    -0.173 A  
HETATM   26  C   UNL     1     -10.394   4.212  65.104  1.00  0.00    -0.198 A  
HETATM   27  C   UNL     1      -8.734   2.607  65.793  1.00  0.00    -0.127 A  
HETATM   28  C   UNL     1     -10.756   3.382  64.039  1.00  0.00    -0.180 A  
HETATM   29  C   UNL     1     -10.121   2.156  63.863  1.00  0.00    -0.094 A  
HETATM   30  C   UNL     1      -9.112   1.768  64.741  1.00  0.00    -0.126 A  
ENDBRANCH  24  25
BRANCH  24  31
HETATM   31  C   UNL     1      -8.569   4.054  68.423  1.00  0.00    -0.113 A  
HETATM   32  C   UNL     1      -7.778   2.957  70.889  1.00  0.00    -0.039 A  
HETATM   33  C   UNL     1      -6.899   2.949  69.809  1.00  0.00    -0.034 A  
HETATM   34  C   UNL     1      -9.451   4.033  69.519  1.00  0.00    -0.257 A  
HETATM   35  C   UNL     1      -7.289   3.498  68.586  1.00  0.00    -0.050 A  
HETATM   36  C   UNL     1      -9.054   3.497  70.744  1.00  0.00    -0.181 A  
ENDBRANCH  24  31
ENDBRANCH  21  24
ENDBRANCH  17  18
ENDBRANCH  16  17
ENDBRANCH  15  16
ENDBRANCH  13  15
ENDBRANCH  11  13
BRANCH  12  37
HETATM   37  C   UNL     1      -9.979  13.395  68.067  1.00  0.00    -0.239 A  
HETATM   38  C   UNL     1     -10.928  11.743  66.556  1.00  0.00    -0.342 A  
HETATM   39  O   UNL     1     -12.305  11.754  71.088  1.00  0.00    -0.324 OA 
HETATM   40  C   UNL     1     -10.760  12.866  69.115  1.00  0.00    -0.060 A  
HETATM   41  O   UNL     1     -13.157  10.269  69.716  1.00  0.00     0.060 OA 
HETATM   42  C   UNL     1     -11.613  11.782  68.872  1.00  0.00    -0.309 A  
HETATM   43  C   UNL     1     -11.692  11.211  67.597  1.00  0.00    -0.168 A  
HETATM   44  N   UNL     1     -12.415  11.228  69.973  1.00  0.00    -0.223 N  
HETATM   45  C   UNL     1     -10.087  12.834  66.786  1.00  0.00    -0.239 A  
ENDBRANCH  12  37
ENDBRANCH   3   5
ENDBRANCH   2   3
TORSDOF 11
ENDMDL
MODEL      136
REMARK 921   NORMALIZED FREE ENERGY PREDICTED BY IDOCK:   -3.32 KCAL/MOL
REMARK 922        TOTAL FREE ENERGY PREDICTED BY IDOCK:   -7.32 KCAL/MOL
REMARK 923 INTER-LIGAND FREE ENERGY PREDICTED BY IDOCK:   -7.29 KCAL/MOL
REMARK 924 INTRA-LIGAND FREE ENERGY PREDICTED BY IDOCK:   -0.02 KCAL/MOL
REMARK 927      BINDING AFFINITY PREDICTED BY RF-SCORE:    0.00 PKD
ROOT
HETATM    1  C   UNL     1      -7.763  20.570  65.939  1.00  0.00     0.072 C  
HETATM    2  O   UNL     1      -8.277  19.374  66.531  1.00  0.00    -0.283 OA 
ENDROOT
BRANCH   2   3
HETATM    3  C   UNL     1      -7.886  18.244  65.889  1.00  0.00    -0.047 C  
HETATM    4  O   UNL     1      -6.873  18.143  65.209  1.00  0.00    -0.465 OA 
BRANCH   3   5
HETATM    5  C   UNL     1      -8.878  17.156  66.090  1.00  0.00    -0.220 C  
HETATM    6  C   UNL     1     -10.209  17.373  65.919  1.00  0.00    -0.256 C  
HETATM    7  N   UNL     1     -11.108  16.345  66.161  1.00  0.00     0.070 NA 
HETATM    8  C   UNL     1     -10.871  18.658  65.491  1.00  0.00     0.113 C  
HETATM    9  C   UNL     1     -10.786  15.147  66.763  1.00  0.00    -0.311 C  
HETATM   10  C   UNL     1     -11.949  14.282  67.186  1.00  0.00    -0.449 C  
HETATM   11  C   UNL     1      -9.486  14.832  66.963  1.00  0.00    -0.241 C  
HETATM   12  C   UNL     1      -8.360  15.780  66.536  1.00  0.00    -0.313 C  
BRANCH  11  13
HETATM   13  C   UNL     1      -9.148  13.624  67.744  1.00  0.00    -0.199 C  
HETATM   14  O   UNL     1      -9.315  13.531  68.952  1.00  0.00     0.005 OA 
BRANCH  13  15
HETATM   15  O   UNL     1      -8.611  12.660  66.951  1.00  0.00    -0.200 OA 
BRANCH  15  16
HETATM   16  C   UNL     1      -9.470  11.511  66.800  1.00  0.00    -0.189 C  
BRANCH  16  17
HETATM   17  C   UNL     1      -9.179  10.507  67.928  1.00  0.00    -0.140 C  
BRANCH  17  18
HETATM   18  N   UNL     1     -10.063   9.331  68.002  1.00  0.00    -0.183 NA 
HETATM   19  C   UNL     1      -8.642   7.661  66.688  1.00  0.00    -0.133 C  
HETATM   20  C   UNL     1      -9.964   8.463  66.807  1.00  0.00    -0.284 C  
HETATM   21  N   UNL     1      -8.341   6.810  67.867  1.00  0.00    -0.120 NA 
HETATM   22  C   UNL     1      -9.705   8.529  69.200  1.00  0.00    -0.170 C  
HETATM   23  C   UNL     1      -8.401   7.696  69.060  1.00  0.00    -0.128 C  
BRANCH  21  24
HETATM   24  C   UNL     1      -9.281   5.651  67.973  1.00  0.00    -0.107 C  
BRANCH  24  25
HETATM   25  C   UNL     1      -9.435   4.871  66.655  1.00  0.00    -0.153 A  
HETATM   26  C   UNL     1     -10.658   4.919  65.956  1.00  0.00    -0.312 A  
HETATM   27  C   UNL     1      -8.381   4.141  66.082  1.00  0.00    -0.109 A  
HETATM   28  C   UNL     1     -10.819   4.254  64.738  1.00  0.00    -0.108 A  
HETATM   29  C   UNL     1      -9.768   3.516  64.201  1.00  0.00    -0.168 A  
HETATM   30  C   UNL     1      -8.551   3.458  64.874  1.00  0.00    -0.102 A  
ENDBRANCH  24  25
BRANCH  24  31
HETATM   31  C   UNL     1      -8.949   4.738  69.163  1.00  0.00    -0.133 A  
HETATM   32  C   UNL     1      -8.339   2.848  71.154  1.00  0.00    -0.086 A  
HETATM   33  C   UNL     1      -9.633   3.349  71.043  1.00  0.00    -0.239 A  
HETATM   34  C   UNL     1      -7.642   4.237  69.305  1.00  0.00    -0.054 A  
HETATM   35  C   UNL     1      -9.938   4.284  70.052  1.00  0.00    -0.196 A  
HETATM   36  C   UNL     1      -7.343   3.292  70.288  1.00  0.00    -0.041 A  
ENDBRANCH  24  31
ENDBRANCH  21  24
ENDBRANCH  17  18
ENDBRANCH  16  17
ENDBRANCH  15  16
ENDBRANCH  13  15
ENDBRANCH  11  13
BRANCH  12  37
HETATM   37  C   UNL     1      -7.287  15.876  67.633  1.00  0.00    -0.180 A  
HETATM   38  C   UNL     1      -5.299  15.011  68.734  1.00  0.00    -0.088 A  
HETATM   39  O   UNL     1      -6.935  19.274  69.991  1.00  0.00    -0.029 OA 
HETATM   40  C   UNL     1      -7.201  17.041  68.423  1.00  0.00    -0.202 A  
HETATM   41  O   UNL     1      -5.144  18.484  70.980  1.00  0.00    -0.256 OA 
HETATM   42  C   UNL     1      -6.165  17.178  69.356  1.00  0.00    -0.234 A  
HETATM   43  C   UNL     1      -5.206  16.170  69.507  1.00  0.00    -0.115 A  
HETATM   44  N   UNL     1      -6.075  18.401  70.166  1.00  0.00    -0.136 N  
HETATM   45  C   UNL     1      -6.338  14.859  67.813  1.00  0.00    -0.174 A  
ENDBRANCH  12  37
ENDBRANCH   3   5
ENDBRANCH   2   3
TORSDOF 11
ENDMDL
MODEL      137
REMARK 921   NORMALIZED FREE ENERGY PREDICTED BY IDOCK:   -3.22 KCAL/MOL
REMARK 922        TOTAL FREE ENERGY PREDICTED BY IDOCK:   -7.15 KCAL/MOL
REMARK 923 INTER-LIGAND FREE ENERGY PREDICTED BY IDOCK:   -8.97 KCAL/MOL
REMARK 924 INTRA-LIGAND FREE ENERGY PREDICTED BY IDOCK:    1.82 KCAL/MOL
REMARK 927      BINDING AFFINITY PREDICTED BY RF-SCORE:    0.00 PKD
ROOT
HETATM    1  C   UNL     1     -10.682   5.810  69.064  1.00  0.00    -0.284 C  
HETATM    2  O   UNL     1      -9.565   5.619  69.937  1.00  0.00    -0.150 OA 
ENDROOT
BRANCH   2   3
HETATM    3  C   UNL     1      -8.666   6.635  69.892  1.00  0.00    -0.141 C  
HETATM    4  O   UNL     1      -7.551   6.603  70.395  1.00  0.00    -0.091 OA 
BRANCH   3   5
HETATM    5  C   UNL     1      -9.238   7.809  69.181  1.00  0.00    -0.144 C  
HETATM    6  C   UNL     1     -10.364   8.425  69.628  1.00  0.00    -0.218 C  
HETATM    7  N   UNL     1     -10.892   9.489  68.912  1.00  0.00    -0.190 NA 
HETATM    8  C   UNL     1     -11.163   8.075  70.857  1.00  0.00    -0.282 C  
HETATM    9  C   UNL     1     -10.483   9.866  67.651  1.00  0.00    -0.244 C  
HETATM   10  C   UNL     1     -11.365  10.862  66.936  1.00  0.00    -0.044 C  
HETATM   11  C   UNL     1      -9.364   9.320  67.124  1.00  0.00    -0.166 C  
HETATM   12  C   UNL     1      -8.539   8.287  67.899  1.00  0.00    -0.132 C  
BRANCH  11  13
HETATM   13  C   UNL     1      -9.013   9.608  65.718  1.00  0.00    -0.169 C  
HETATM   14  O   UNL     1      -9.245   8.843  64.793  1.00  0.00    -0.062 OA 
BRANCH  13  15
HETATM   15  O   UNL     1      -8.385  10.808  65.604  1.00  0.00    -0.164 OA 
BRANCH  15  16
HETATM   16  C   UNL     1      -7.355  11.001  66.595  1.00  0.00    -0.143 C  
BRANCH  16  17
HETATM   17  C   UNL     1      -7.605  12.325  67.337  1.00  0.00    -0.159 C  
BRANCH  17  18
HETATM   18  N   UNL     1      -8.951  12.907  67.202  1.00  0.00    -0.212 NA 
HETATM   19  C   UNL     1      -8.995  14.345  69.316  1.00  0.00     0.201 C  
HETATM   20  C   UNL     1      -9.598  13.165  68.509  1.00  0.00    -0.117 C  
HETATM   21  N   UNL     1      -8.974  15.635  68.580  1.00  0.00    -0.190 NA 
HETATM   22  C   UNL     1      -8.853  14.191  66.461  1.00  0.00    -0.041 C  
HETATM   23  C   UNL     1      -8.287  15.378  67.287  1.00  0.00    -0.199 C  
BRANCH  21  24
HETATM   24  C   UNL     1     -10.350  16.191  68.392  1.00  0.00    -0.257 C  
BRANCH  24  25
HETATM   25  C   UNL     1     -11.281  15.929  69.589  1.00  0.00    -0.331 A  
HETATM   26  C   UNL     1     -11.033  16.573  70.818  1.00  0.00     0.087 A  
HETATM   27  C   UNL     1     -12.412  15.102  69.499  1.00  0.00    -0.120 A  
HETATM   28  C   UNL     1     -11.880  16.387  71.913  1.00  0.00    -0.433 A  
HETATM   29  C   UNL     1     -12.983  15.543  71.808  1.00  0.00    -0.528 A  
HETATM   30  C   UNL     1     -13.247  14.899  70.602  1.00  0.00    -0.319 A  
ENDBRANCH  24  25
BRANCH  24  31
HETATM   31  C   UNL     1     -10.328  17.669  67.974  1.00  0.00    -0.375 A  
HETATM   32  C   UNL     1     -10.036  20.320  67.078  1.00  0.00    -0.567 A  
HETATM   33  C   UNL     1      -9.777  20.002  68.408  1.00  0.00    -0.393 A  
HETATM   34  C   UNL     1     -10.606  18.014  66.639  1.00  0.00    -0.268 A  
HETATM   35  C   UNL     1      -9.917  18.686  68.853  1.00  0.00    -0.399 A  
HETATM   36  C   UNL     1     -10.452  19.327  66.194  1.00  0.00    -0.577 A  
ENDBRANCH  24  31
ENDBRANCH  21  24
ENDBRANCH  17  18
ENDBRANCH  16  17
ENDBRANCH  15  16
ENDBRANCH  13  15
ENDBRANCH  11  13
BRANCH  12  37
HETATM   37  C   UNL     1      -8.122   7.126  66.981  1.00  0.00    -0.117 A  
HETATM   38  C   UNL     1      -6.402   5.732  65.976  1.00  0.00    -0.039 A  
HETATM   39  O   UNL     1     -10.945   4.517  65.415  1.00  0.00    -0.256 OA 
HETATM   40  C   UNL     1      -9.107   6.264  66.458  1.00  0.00    -0.162 A  
HETATM   41  O   UNL     1      -9.386   3.268  64.510  1.00  0.00    -0.131 OA 
HETATM   42  C   UNL     1      -8.729   5.146  65.704  1.00  0.00    -0.143 A  
HETATM   43  C   UNL     1      -7.378   4.871  65.469  1.00  0.00    -0.073 A  
HETATM   44  N   UNL     1      -9.762   4.245  65.173  1.00  0.00    -0.185 N  
HETATM   45  C   UNL     1      -6.771   6.857  66.716  1.00  0.00    -0.045 A  
ENDBRANCH  12  37
ENDBRANCH   3   5
ENDBRANCH   2   3
TORSDOF 11
ENDMDL
MODEL      138
REMARK 921   NORMALIZED FREE ENERGY PREDICTED BY IDOCK:   -3.09 KCAL/MOL
REMARK 922        TOTAL FREE ENERGY PREDICTED BY IDOCK:   -6.93 KCAL/MOL
REMARK 923 INTER-LIGAND FREE ENERGY PREDICTED BY IDOCK:   -7.67 KCAL/MOL
REMARK 924 INTRA-LIGAND FREE ENERGY PREDICTED BY IDOCK:    0.74 KCAL/MOL
REMARK 927      BINDING AFFINITY PREDICTED BY RF-SCORE:    0.00 PKD
ROOT
HETATM    1  C   UNL     1     -10.285   4.415  70.851  1.00  0.00    -0.042 C  
HETATM    2  O   UNL     1      -9.903   4.744  72.190  1.00  0.00    -0.159 OA 
ENDROOT
BRANCH   2   3
HETATM    3  C   UNL     1      -9.040   5.789  72.262  1.00  0.00    -0.142 C  
HETATM    4  O   UNL     1      -8.133   5.890  73.077  1.00  0.00    -0.116 OA 
BRANCH   3   5
HETATM    5  C   UNL     1      -9.375   6.817  71.241  1.00  0.00    -0.165 C  
HETATM    6  C   UNL     1     -10.637   7.307  71.119  1.00  0.00    -0.222 C  
HETATM    7  N   UNL     1     -10.920   8.230  70.124  1.00  0.00    -0.244 NA 
HETATM    8  C   UNL     1     -11.835   6.948  71.961  1.00  0.00    -0.345 C  
HETATM    9  C   UNL     1     -10.065   8.560  69.094  1.00  0.00    -0.203 C  
HETATM   10  C   UNL     1     -10.663   9.369  67.967  1.00  0.00    -0.246 C  
HETATM   11  C   UNL     1      -8.783   8.132  69.131  1.00  0.00    -0.140 C  
HETATM   12  C   UNL     1      -8.258   7.283  70.295  1.00  0.00    -0.133 C  
BRANCH  11  13
HETATM   13  C   UNL     1      -7.914   8.355  67.957  1.00  0.00    -0.119 C  
HETATM   14  O   UNL     1      -8.048   7.765  66.894  1.00  0.00    -0.112 OA 
BRANCH  13  15
HETATM   15  O   UNL     1      -6.946   9.269  68.229  1.00  0.00    -0.070 OA 
BRANCH  15  16
HETATM   16  C   UNL     1      -7.208  10.027  69.429  1.00  0.00    -0.087 C  
BRANCH  16  17
HETATM   17  C   UNL     1      -6.616  11.438  69.279  1.00  0.00    -0.106 C  
BRANCH  17  18
HETATM   18  N   UNL     1      -6.848  12.112  67.989  1.00  0.00    -0.074 NA 
HETATM   19  C   UNL     1      -9.101  13.210  68.493  1.00  0.00    -0.053 C  
HETATM   20  C   UNL     1      -8.284  12.205  67.640  1.00  0.00    -0.163 C  
HETATM   21  N   UNL     1      -8.562  14.593  68.481  1.00  0.00    -0.166 NA 
HETATM   22  C   UNL     1      -6.286  13.486  68.051  1.00  0.00    -0.136 C  
HETATM   23  C   UNL     1      -7.131  14.498  68.873  1.00  0.00    -0.118 C  
BRANCH  21  24
HETATM   24  C   UNL     1      -8.745  15.251  67.150  1.00  0.00    -0.211 C  
BRANCH  24  25
HETATM   25  C   UNL     1     -10.028  14.811  66.425  1.00  0.00    -0.291 A  
HETATM   26  C   UNL     1     -11.273  14.936  67.075  1.00  0.00    -0.344 A  
HETATM   27  C   UNL     1     -10.023  14.326  65.108  1.00  0.00    -0.266 A  
HETATM   28  C   UNL     1     -12.461  14.581  66.431  1.00  0.00    -0.090 A  
HETATM   29  C   UNL     1     -12.430  14.080  65.133  1.00  0.00    -0.472 A  
HETATM   30  C   UNL     1     -11.211  13.950  64.473  1.00  0.00    -0.372 A  
ENDBRANCH  24  25
BRANCH  24  31
HETATM   31  C   UNL     1      -8.608  16.779  67.232  1.00  0.00    -0.208 A  
HETATM   32  C   UNL     1      -8.135  19.533  67.561  1.00  0.00    -0.325 A  
HETATM   33  C   UNL     1      -9.199  18.925  68.223  1.00  0.00    -0.373 A  
HETATM   34  C   UNL     1      -7.552  17.416  66.555  1.00  0.00    -0.317 A  
HETATM   35  C   UNL     1      -9.432  17.557  68.064  1.00  0.00    -0.280 A  
HETATM   36  C   UNL     1      -7.313  18.780  66.727  1.00  0.00    -0.231 A  
ENDBRANCH  24  31
ENDBRANCH  21  24
ENDBRANCH  17  18
ENDBRANCH  16  17
ENDBRANCH  15  16
ENDBRANCH  13  15
ENDBRANCH  11  13
BRANCH  12  37
HETATM   37  C   UNL     1      -7.396   6.123  69.773  1.00  0.00    -0.079 A  
HETATM   38  C   UNL     1      -5.350   4.811  69.831  1.00  0.00    -0.007 A  
HETATM   39  O   UNL     1      -8.969   3.282  67.186  1.00  0.00    -0.131 OA 
HETATM   40  C   UNL     1      -7.959   5.181  68.888  1.00  0.00    -0.085 A  
HETATM   41  O   UNL     1      -7.118   2.108  67.244  1.00  0.00    -0.046 OA 
HETATM   42  C   UNL     1      -7.212   4.065  68.487  1.00  0.00    -0.055 A  
HETATM   43  C   UNL     1      -5.912   3.871  68.965  1.00  0.00    -0.023 A  
HETATM   44  N   UNL     1      -7.811   3.080  67.574  1.00  0.00    -0.075 N  
HETATM   45  C   UNL     1      -6.081   5.934  70.223  1.00  0.00    -0.026 A  
ENDBRANCH  12  37
ENDBRANCH   3   5
ENDBRANCH   2   3
TORSDOF 11
ENDMDL
MODEL      139
REMARK 921   NORMALIZED FREE ENERGY PREDICTED BY IDOCK:   -3.06 KCAL/MOL
REMARK 922        TOTAL FREE ENERGY PREDICTED BY IDOCK:   -6.90 KCAL/MOL
REMARK 923 INTER-LIGAND FREE ENERGY PREDICTED BY IDOCK:   -4.50 KCAL/MOL
REMARK 924 INTRA-LIGAND FREE ENERGY PREDICTED BY IDOCK:   -2.39 KCAL/MOL
REMARK 927      BINDING AFFINITY PREDICTED BY RF-SCORE:    0.00 PKD
ROOT
HETATM    1  C   UNL     1     -11.994  12.550  71.227  1.00  0.00     0.684 C  
HETATM    2  O   UNL     1     -11.479  12.791  69.914  1.00  0.00    -0.195 OA 
ENDROOT
BRANCH   2   3
HETATM    3  C   UNL     1     -11.887  13.971  69.384  1.00  0.00    -0.333 C  
HETATM    4  O   UNL     1     -13.034  14.220  69.037  1.00  0.00     0.587 OA 
BRANCH   3   5
HETATM    5  C   UNL     1     -10.741  14.907  69.243  1.00  0.00    -0.253 C  
HETATM    6  C   UNL     1     -10.637  16.018  70.019  1.00  0.00    -0.296 C  
HETATM    7  N   UNL     1      -9.577  16.892  69.826  1.00  0.00     0.339 NA 
HETATM    8  C   UNL     1     -11.580  16.454  71.111  1.00  0.00    -0.250 C  
HETATM    9  C   UNL     1      -8.703  16.841  68.761  1.00  0.00    -0.258 C  
HETATM   10  C   UNL     1      -7.799  18.038  68.585  1.00  0.00    -0.298 C  
HETATM   11  C   UNL     1      -8.719  15.768  67.938  1.00  0.00    -0.170 C  
HETATM   12  C   UNL     1      -9.692  14.605  68.162  1.00  0.00    -0.220 C  
BRANCH  11  13
HETATM   13  C   UNL     1      -7.892  15.785  66.714  1.00  0.00    -0.213 C  
HETATM   14  O   UNL     1      -8.276  16.237  65.644  1.00  0.00     0.077 OA 
BRANCH  13  15
HETATM   15  O   UNL     1      -6.679  15.213  66.932  1.00  0.00    -0.136 OA 
BRANCH  15  16
HETATM   16  C   UNL     1      -6.710  13.774  66.845  1.00  0.00     1.215 C  
BRANCH  16  17
HETATM   17  C   UNL     1      -6.100  13.173  68.122  1.00  0.00    -0.103 C  
BRANCH  17  18
HETATM   18  N   UNL     1      -5.730  11.749  68.065  1.00  0.00    -0.044 NA 
HETATM   19  C   UNL     1      -6.652  10.988  70.324  1.00  0.00    -0.009 C  
HETATM   20  C   UNL     1      -5.424  11.181  69.397  1.00  0.00    -0.041 C  
HETATM   21  N   UNL     1      -7.731  10.154  69.736  1.00  0.00    -0.162 NA 
HETATM   22  C   UNL     1      -6.852  10.979  67.469  1.00  0.00    -0.084 C  
HETATM   23  C   UNL     1      -8.063  10.754  68.416  1.00  0.00    -0.127 C  
BRANCH  21  24
HETATM   24  C   UNL     1      -7.326   8.719  69.622  1.00  0.00    -0.059 C  
BRANCH  24  25
HETATM   25  C   UNL     1      -7.168   8.022  70.984  1.00  0.00    -0.055 A  
HETATM   26  C   UNL     1      -6.107   7.116  71.184  1.00  0.00    -0.036 A  
HETATM   27  C   UNL     1      -8.018   8.285  72.071  1.00  0.00    -0.176 A  
HETATM   28  C   UNL     1      -5.912   6.495  72.421  1.00  0.00    -0.038 A  
HETATM   29  C   UNL     1      -6.781   6.753  73.477  1.00  0.00    -0.071 A  
HETATM   30  C   UNL     1      -7.835   7.646  73.301  1.00  0.00    -0.149 A  
ENDBRANCH  24  25
BRANCH  24  31
HETATM   31  C   UNL     1      -8.230   7.934  68.659  1.00  0.00    -0.127 A  
HETATM   32  C   UNL     1      -9.879   6.282  67.089  1.00  0.00    -0.173 A  
HETATM   33  C   UNL     1      -8.538   6.446  66.755  1.00  0.00    -0.113 A  
HETATM   34  C   UNL     1      -9.593   7.772  68.968  1.00  0.00    -0.155 A  
HETATM   35  C   UNL     1      -7.717   7.262  67.536  1.00  0.00    -0.111 A  
HETATM   36  C   UNL     1     -10.408   6.945  68.194  1.00  0.00    -0.223 A  
ENDBRANCH  24  31
ENDBRANCH  21  24
ENDBRANCH  17  18
ENDBRANCH  16  17
ENDBRANCH  15  16
ENDBRANCH  13  15
ENDBRANCH  11  13
BRANCH  12  37
HETATM   37  C   UNL     1     -10.319  14.159  66.831  1.00  0.00    -0.269 A  
HETATM   38  C   UNL     1     -11.615  14.645  64.832  1.00  0.00    -0.405 A  
HETATM   39  O   UNL     1      -9.408  10.467  65.166  1.00  0.00    -0.185 OA 
HETATM   40  C   UNL     1      -9.996  12.895  66.298  1.00  0.00    -0.271 A  
HETATM   41  O   UNL     1     -10.581  10.914  63.368  1.00  0.00    -0.282 OA 
HETATM   42  C   UNL     1     -10.482  12.522  65.039  1.00  0.00    -0.297 A  
HETATM   43  C   UNL     1     -11.283  13.398  64.298  1.00  0.00    -0.406 A  
HETATM   44  N   UNL     1     -10.130  11.206  64.485  1.00  0.00    -0.282 N  
HETATM   45  C   UNL     1     -11.146  15.018  66.093  1.00  0.00    -0.329 A  
ENDBRANCH  12  37
ENDBRANCH   3   5
ENDBRANCH   2   3
TORSDOF 11
ENDMDL
MODEL      140
REMARK 921   NORMALIZED FREE ENERGY PREDICTED BY IDOCK:   -3.04 KCAL/MOL
REMARK 922        TOTAL FREE ENERGY PREDICTED BY IDOCK:   -6.86 KCAL/MOL
REMARK 923 INTER-LIGAND FREE ENERGY PREDICTED BY IDOCK:   -7.11 KCAL/MOL
REMARK 924 INTRA-LIGAND FREE ENERGY PREDICTED BY IDOCK:    0.26 KCAL/MOL
REMARK 927      BINDING AFFINITY PREDICTED BY RF-SCORE:    0.00 PKD
ROOT
HETATM    1  C   UNL     1      -7.160   3.844  66.966  1.00  0.00    -0.063 C  
HETATM    2  O   UNL     1      -6.759   3.697  68.331  1.00  0.00    -0.044 OA 
ENDROOT
BRANCH   2   3
HETATM    3  C   UNL     1      -7.541   4.388  69.199  1.00  0.00    -0.055 C  
HETATM    4  O   UNL     1      -8.623   4.003  69.622  1.00  0.00    -0.066 OA 
BRANCH   3   5
HETATM    5  C   UNL     1      -6.921   5.697  69.534  1.00  0.00    -0.063 C  
HETATM    6  C   UNL     1      -5.852   5.779  70.369  1.00  0.00    -0.024 C  
HETATM    7  N   UNL     1      -5.331   7.024  70.694  1.00  0.00    -0.023 NA 
HETATM    8  C   UNL     1      -5.129   4.636  71.033  1.00  0.00    -0.003 C  
HETATM    9  C   UNL     1      -5.934   8.227  70.397  1.00  0.00    -0.028 C  
HETATM   10  C   UNL     1      -5.353   9.446  71.076  1.00  0.00    -0.043 C  
HETATM   11  C   UNL     1      -6.997   8.251  69.563  1.00  0.00    -0.046 C  
HETATM   12  C   UNL     1      -7.551   6.965  68.938  1.00  0.00    -0.105 C  
BRANCH  11  13
HETATM   13  C   UNL     1      -7.734   9.517  69.368  1.00  0.00    -0.094 C  
HETATM   14  O   UNL     1      -8.188  10.183  70.287  1.00  0.00    -0.107 OA 
BRANCH  13  15
HETATM   15  O   UNL     1      -7.856   9.816  68.048  1.00  0.00    -0.086 OA 
BRANCH  15  16
HETATM   16  C   UNL     1      -6.845  10.734  67.582  1.00  0.00    -0.073 C  
BRANCH  16  17
HETATM   17  C   UNL     1      -7.196  12.157  68.046  1.00  0.00    -0.099 C  
BRANCH  17  18
HETATM   18  N   UNL     1      -8.590  12.588  67.840  1.00  0.00    -0.169 NA 
HETATM   19  C   UNL     1      -8.654  14.569  69.455  1.00  0.00     0.312 C  
HETATM   20  C   UNL     1      -9.196  13.171  69.058  1.00  0.00     0.468 C  
HETATM   21  N   UNL     1      -8.769  15.590  68.384  1.00  0.00    -0.169 NA 
HETATM   22  C   UNL     1      -8.627  13.607  66.760  1.00  0.00    -0.029 C  
HETATM   23  C   UNL     1      -8.122  15.016  67.175  1.00  0.00    -0.214 C  
BRANCH  21  24
HETATM   24  C   UNL     1     -10.192  15.980  68.136  1.00  0.00    -0.243 C  
BRANCH  24  25
HETATM   25  C   UNL     1     -11.128  15.642  69.309  1.00  0.00    -0.293 A  
HETATM   26  C   UNL     1     -11.002  16.344  70.525  1.00  0.00    -0.164 A  
HETATM   27  C   UNL     1     -12.151  14.685  69.208  1.00  0.00    -0.307 A  
HETATM   28  C   UNL     1     -11.860  16.089  71.598  1.00  0.00    -0.582 A  
HETATM   29  C   UNL     1     -12.852  15.118  71.484  1.00  0.00    -0.442 A  
HETATM   30  C   UNL     1     -12.995  14.416  70.290  1.00  0.00    -0.120 A  
ENDBRANCH  24  25
BRANCH  24  31
HETATM   31  C   UNL     1     -10.325  17.440  67.677  1.00  0.00    -0.355 A  
HETATM   32  C   UNL     1     -10.283  20.106  66.781  1.00  0.00    -0.562 A  
HETATM   33  C   UNL     1     -10.350  19.830  68.144  1.00  0.00    -0.561 A  
HETATM   34  C   UNL     1     -10.280  17.739  66.302  1.00  0.00    -0.364 A  
HETATM   35  C   UNL     1     -10.365  18.507  68.590  1.00  0.00    -0.271 A  
HETATM   36  C   UNL     1     -10.250  19.062  65.860  1.00  0.00    -0.369 A  
ENDBRANCH  24  31
ENDBRANCH  21  24
ENDBRANCH  17  18
ENDBRANCH  16  17
ENDBRANCH  15  16
ENDBRANCH  13  15
ENDBRANCH  11  13
BRANCH  12  37
HETATM   37  C   UNL     1      -9.087   6.952  68.998  1.00  0.00    -0.138 A  
HETATM   38  C   UNL     1     -11.240   6.366  68.032  1.00  0.00    -0.260 A  
HETATM   39  O   UNL     1     -11.104   8.056  72.454  1.00  0.00    -0.296 OA 
HETATM   40  C   UNL     1      -9.741   7.342  70.185  1.00  0.00    -0.175 A  
HETATM   41  O   UNL     1     -13.041   7.526  71.573  1.00  0.00    -0.349 OA 
HETATM   42  C   UNL     1     -11.134   7.237  70.282  1.00  0.00    -0.266 A  
HETATM   43  C   UNL     1     -11.886   6.740  69.212  1.00  0.00     0.244 A  
HETATM   44  N   UNL     1     -11.807   7.634  71.527  1.00  0.00    -0.284 N  
HETATM   45  C   UNL     1      -9.853   6.482  67.921  1.00  0.00    -0.134 A  
ENDBRANCH  12  37
ENDBRANCH   3   5
ENDBRANCH   2   3
TORSDOF 11
ENDMDL
MODEL      141
REMARK 921   NORMALIZED FREE ENERGY PREDICTED BY IDOCK:   -3.00 KCAL/MOL
REMARK 922        TOTAL FREE ENERGY PREDICTED BY IDOCK:   -6.79 KCAL/MOL
REMARK 923 INTER-LIGAND FREE ENERGY PREDICTED BY IDOCK:  -10.23 KCAL/MOL
REMARK 924 INTRA-LIGAND FREE ENERGY PREDICTED BY IDOCK:    3.44 KCAL/MOL
REMARK 927      BINDING AFFINITY PREDICTED BY RF-SCORE:    0.00 PKD
ROOT
HETATM    1  C   UNL     1      -6.838  15.972  66.969  1.00  0.00    -0.145 C  
HETATM    2  O   UNL     1      -8.066  16.473  67.506  1.00  0.00    -0.149 OA 
ENDROOT
BRANCH   2   3
HETATM    3  C   UNL     1      -9.160  16.083  66.803  1.00  0.00    -0.244 C  
HETATM    4  O   UNL     1      -9.253  16.118  65.583  1.00  0.00    -0.407 OA 
BRANCH   3   5
HETATM    5  C   UNL     1     -10.245  15.648  67.720  1.00  0.00    -0.252 C  
HETATM    6  C   UNL     1     -10.720  16.470  68.693  1.00  0.00    -0.334 C  
HETATM    7  N   UNL     1     -11.701  16.010  69.559  1.00  0.00    -0.308 NA 
HETATM    8  C   UNL     1     -10.287  17.885  68.977  1.00  0.00    -0.203 C  
HETATM    9  C   UNL     1     -12.112  14.698  69.653  1.00  0.00    -0.311 C  
HETATM   10  C   UNL     1     -12.982  14.357  70.840  1.00  0.00    -0.413 C  
HETATM   11  C   UNL     1     -11.705  13.805  68.723  1.00  0.00    -0.391 C  
HETATM   12  C   UNL     1     -10.792  14.220  67.564  1.00  0.00    -0.284 C  
BRANCH  11  13
HETATM   13  C   UNL     1     -12.019  12.373  68.910  1.00  0.00    -0.241 C  
HETATM   14  O   UNL     1     -12.362  11.631  68.001  1.00  0.00    -0.429 OA 
BRANCH  13  15
HETATM   15  O   UNL     1     -11.901  12.012  70.215  1.00  0.00    -0.333 OA 
BRANCH  15  16
HETATM   16  C   UNL     1     -12.890  11.045  70.624  1.00  0.00    -0.220 C  
BRANCH  16  17
HETATM   17  C   UNL     1     -12.270  10.088  71.655  1.00  0.00    -0.367 C  
BRANCH  17  18
HETATM   18  N   UNL     1     -12.013   8.711  71.199  1.00  0.00    -0.290 NA 
HETATM   19  C   UNL     1      -9.495   8.872  70.792  1.00  0.00    -0.228 C  
HETATM   20  C   UNL     1     -10.913   8.629  70.213  1.00  0.00    -0.236 C  
HETATM   21  N   UNL     1      -9.136   7.969  71.915  1.00  0.00    -0.142 NA 
HETATM   22  C   UNL     1     -11.661   7.869  72.371  1.00  0.00    -0.380 C  
HETATM   23  C   UNL     1     -10.224   8.087  72.922  1.00  0.00    -0.314 C  
BRANCH  21  24
HETATM   24  C   UNL     1      -8.937   6.559  71.456  1.00  0.00    -0.140 C  
BRANCH  24  25
HETATM   25  C   UNL     1      -9.603   5.521  72.375  1.00  0.00    -0.170 A  
HETATM   26  C   UNL     1     -10.010   4.280  71.844  1.00  0.00    -0.255 A  
HETATM   27  C   UNL     1      -9.785   5.735  73.751  1.00  0.00    -0.163 A  
HETATM   28  C   UNL     1     -10.583   3.300  72.658  1.00  0.00    -0.119 A  
HETATM   29  C   UNL     1     -10.776   3.544  74.014  1.00  0.00    -0.280 A  
HETATM   30  C   UNL     1     -10.379   4.762  74.560  1.00  0.00    -0.324 A  
ENDBRANCH  24  25
BRANCH  24  31
HETATM   31  C   UNL     1      -9.315   6.369  69.979  1.00  0.00    -0.162 A  
HETATM   32  C   UNL     1      -9.971   5.737  67.318  1.00  0.00    -0.178 A  
HETATM   33  C   UNL     1      -8.719   6.265  67.620  1.00  0.00    -0.113 A  
HETATM   34  C   UNL     1     -10.583   5.856  69.651  1.00  0.00    -0.383 A  
HETATM   35  C   UNL     1      -8.390   6.574  68.941  1.00  0.00    -0.122 A  
HETATM   36  C   UNL     1     -10.904   5.534  68.332  1.00  0.00    -0.059 A  
ENDBRANCH  24  31
ENDBRANCH  21  24
ENDBRANCH  17  18
ENDBRANCH  16  17
ENDBRANCH  15  16
ENDBRANCH  13  15
ENDBRANCH  11  13
BRANCH  12  37
HETATM   37  C   UNL     1      -9.683  13.178  67.348  1.00  0.00    -0.220 A  
HETATM   38  C   UNL     1      -8.620  11.467  65.986  1.00  0.00    -0.046 A  
HETATM   39  O   UNL     1      -6.418  12.966  69.902  1.00  0.00    -0.073 OA 
HETATM   40  C   UNL     1      -8.592  13.127  68.240  1.00  0.00    -0.166 A  
HETATM   41  O   UNL     1      -5.468  11.421  68.668  1.00  0.00    -0.043 OA 
HETATM   42  C   UNL     1      -7.528  12.250  67.993  1.00  0.00    -0.115 A  
HETATM   43  C   UNL     1      -7.533  11.426  66.862  1.00  0.00    -0.147 A  
HETATM   44  N   UNL     1      -6.389  12.211  68.922  1.00  0.00    -0.076 N  
HETATM   45  C   UNL     1      -9.691  12.328  66.232  1.00  0.00    -0.254 A  
ENDBRANCH  12  37
ENDBRANCH   3   5
ENDBRANCH   2   3
TORSDOF 11
ENDMDL
MODEL      142
REMARK 921   NORMALIZED FREE ENERGY PREDICTED BY IDOCK:   -2.97 KCAL/MOL
REMARK 922        TOTAL FREE ENERGY PREDICTED BY IDOCK:   -6.75 KCAL/MOL
REMARK 923 INTER-LIGAND FREE ENERGY PREDICTED BY IDOCK:   -7.14 KCAL/MOL
REMARK 924 INTRA-LIGAND FREE ENERGY PREDICTED BY IDOCK:    0.40 KCAL/MOL
REMARK 927      BINDING AFFINITY PREDICTED BY RF-SCORE:    0.00 PKD
ROOT
HETATM    1  C   UNL     1     -11.191  15.916  71.145  1.00  0.00    -0.306 C  
HETATM    2  O   UNL     1     -11.135  14.596  70.599  1.00  0.00    -0.135 OA 
ENDROOT
BRANCH   2   3
HETATM    3  C   UNL     1     -11.917  14.434  69.501  1.00  0.00    -0.330 C  
HETATM    4  O   UNL     1     -12.680  15.282  69.057  1.00  0.00     0.181 OA 
BRANCH   3   5
HETATM    5  C   UNL     1     -11.751  13.070  68.935  1.00  0.00    -0.371 C  
HETATM    6  C   UNL     1     -12.012  11.961  69.676  1.00  0.00    -0.298 C  
HETATM    7  N   UNL     1     -11.801  10.705  69.127  1.00  0.00    -0.255 NA 
HETATM    8  C   UNL     1     -12.516  11.917  71.096  1.00  0.00    -0.365 C  
HETATM    9  C   UNL     1     -11.147  10.469  67.937  1.00  0.00    -0.304 C  
HETATM   10  C   UNL     1     -10.777   9.032  67.655  1.00  0.00    -0.232 C  
HETATM   11  C   UNL     1     -10.856  11.507  67.121  1.00  0.00    -0.314 C  
HETATM   12  C   UNL     1     -11.235  12.945  67.493  1.00  0.00    -0.329 C  
BRANCH  11  13
HETATM   13  C   UNL     1     -10.023  11.273  65.923  1.00  0.00    -0.234 C  
HETATM   14  O   UNL     1     -10.463  11.268  64.783  1.00  0.00    -0.292 OA 
BRANCH  13  15
HETATM   15  O   UNL     1      -8.728  11.041  66.265  1.00  0.00    -0.165 OA 
BRANCH  15  16
HETATM   16  C   UNL     1      -8.095  10.046  65.433  1.00  0.00    -0.143 C  
BRANCH  16  17
HETATM   17  C   UNL     1      -8.834   8.708  65.590  1.00  0.00    -0.187 C  
BRANCH  17  18
HETATM   18  N   UNL     1      -8.049   7.490  65.323  1.00  0.00    -0.126 NA 
HETATM   19  C   UNL     1      -7.069   7.109  67.653  1.00  0.00    -0.089 C  
HETATM   20  C   UNL     1      -6.824   7.405  66.150  1.00  0.00    -0.057 C  
HETATM   21  N   UNL     1      -7.851   5.873  67.908  1.00  0.00    -0.103 NA 
HETATM   22  C   UNL     1      -8.891   6.299  65.600  1.00  0.00    -0.074 C  
HETATM   23  C   UNL     1      -9.099   5.984  67.107  1.00  0.00    -0.113 C  
BRANCH  21  24
HETATM   24  C   UNL     1      -7.070   4.641  67.576  1.00  0.00    -0.065 C  
BRANCH  24  25
HETATM   25  C   UNL     1      -6.643   3.839  68.818  1.00  0.00    -0.041 A  
HETATM   26  C   UNL     1      -5.586   2.912  68.719  1.00  0.00    -0.021 A  
HETATM   27  C   UNL     1      -7.235   4.025  70.078  1.00  0.00    -0.042 A  
HETATM   28  C   UNL     1      -5.148   2.195  69.835  1.00  0.00    -0.004 A  
HETATM   29  C   UNL     1      -5.766   2.378  71.069  1.00  0.00    -0.013 A  
HETATM   30  C   UNL     1      -6.810   3.291  71.190  1.00  0.00    -0.032 A  
ENDBRANCH  24  25
BRANCH  24  31
HETATM   31  C   UNL     1      -7.775   3.770  66.526  1.00  0.00    -0.088 A  
HETATM   32  C   UNL     1      -8.923   1.950  64.714  1.00  0.00    -0.120 A  
HETATM   33  C   UNL     1      -7.901   2.797  64.296  1.00  0.00    -0.077 A  
HETATM   34  C   UNL     1      -8.824   2.920  66.923  1.00  0.00    -0.157 A  
HETATM   35  C   UNL     1      -7.327   3.698  65.196  1.00  0.00    -0.072 A  
HETATM   36  C   UNL     1      -9.386   2.012  66.026  1.00  0.00     0.115 A  
ENDBRANCH  24  31
ENDBRANCH  21  24
ENDBRANCH  17  18
ENDBRANCH  16  17
ENDBRANCH  15  16
ENDBRANCH  13  15
ENDBRANCH  11  13
BRANCH  12  37
HETATM   37  C   UNL     1     -10.074  13.907  67.191  1.00  0.00    -0.252 A  
HETATM   38  C   UNL     1      -9.204  15.904  66.111  1.00  0.00    -0.384 A  
HETATM   39  O   UNL     1      -6.464  13.608  69.217  1.00  0.00    -0.102 OA 
HETATM   40  C   UNL     1      -8.858  13.772  67.890  1.00  0.00    -0.186 A  
HETATM   41  O   UNL     1      -5.688  15.409  68.236  1.00  0.00    -0.102 OA 
HETATM   42  C   UNL     1      -7.832  14.705  67.695  1.00  0.00    -0.181 A  
HETATM   43  C   UNL     1      -8.004  15.778  66.814  1.00  0.00    -0.273 A  
HETATM   44  N   UNL     1      -6.571  14.563  68.438  1.00  0.00    -0.094 N  
HETATM   45  C   UNL     1     -10.227  14.971  66.289  1.00  0.00    -0.306 A  
ENDBRANCH  12  37
ENDBRANCH   3   5
ENDBRANCH   2   3
TORSDOF 11
ENDMDL
MODEL      143
REMARK 921   NORMALIZED FREE ENERGY PREDICTED BY IDOCK:   -2.96 KCAL/MOL
REMARK 922        TOTAL FREE ENERGY PREDICTED BY IDOCK:   -6.72 KCAL/MOL
REMARK 923 INTER-LIGAND FREE ENERGY PREDICTED BY IDOCK:   -9.99 KCAL/MOL
REMARK 924 INTRA-LIGAND FREE ENERGY PREDICTED BY IDOCK:    3.27 KCAL/MOL
REMARK 927      BINDING AFFINITY PREDICTED BY RF-SCORE:    0.00 PKD
ROOT
HETATM    1  C   UNL     1      -7.167  16.657  66.659  1.00  0.00    -0.241 C  
HETATM    2  O   UNL     1      -8.466  16.867  67.219  1.00  0.00    -0.189 OA 
ENDROOT
BRANCH   2   3
HETATM    3  C   UNL     1      -9.432  16.109  66.641  1.00  0.00    -0.247 C  
HETATM    4  O   UNL     1      -9.500  15.859  65.445  1.00  0.00    -0.355 OA 
BRANCH   3   5
HETATM    5  C   UNL     1     -10.421  15.657  67.654  1.00  0.00    -0.283 C  
HETATM    6  C   UNL     1     -10.830  16.478  68.657  1.00  0.00    -0.345 C  
HETATM    7  N   UNL     1     -11.720  16.005  69.610  1.00  0.00    -0.311 NA 
HETATM    8  C   UNL     1     -10.410  17.908  68.888  1.00  0.00    -0.272 C  
HETATM    9  C   UNL     1     -12.086  14.684  69.753  1.00  0.00    -0.324 C  
HETATM   10  C   UNL     1     -12.840  14.336  71.015  1.00  0.00    -0.427 C  
HETATM   11  C   UNL     1     -11.740  13.791  68.799  1.00  0.00    -0.391 C  
HETATM   12  C   UNL     1     -10.943  14.215  67.560  1.00  0.00    -0.292 C  
BRANCH  11  13
HETATM   13  C   UNL     1     -11.999  12.354  69.027  1.00  0.00    -0.241 C  
HETATM   14  O   UNL     1     -12.230  11.557  68.128  1.00  0.00    -0.576 OA 
BRANCH  13  15
HETATM   15  O   UNL     1     -11.970  12.054  70.352  1.00  0.00    -0.348 OA 
BRANCH  15  16
HETATM   16  C   UNL     1     -12.978  11.097  70.736  1.00  0.00    -0.137 C  
BRANCH  16  17
HETATM   17  C   UNL     1     -12.327   9.975  71.561  1.00  0.00    -0.419 C  
BRANCH  17  18
HETATM   18  N   UNL     1     -11.870   8.792  70.813  1.00  0.00    -0.230 NA 
HETATM   19  C   UNL     1      -9.537   8.536  71.826  1.00  0.00    -0.267 C  
HETATM   20  C   UNL     1     -10.410   8.795  70.570  1.00  0.00    -0.203 C  
HETATM   21  N   UNL     1      -9.854   7.270  72.534  1.00  0.00    -0.155 NA 
HETATM   22  C   UNL     1     -12.219   7.568  71.579  1.00  0.00    -0.331 C  
HETATM   23  C   UNL     1     -11.315   7.291  72.812  1.00  0.00    -0.274 C  
BRANCH  21  24
HETATM   24  C   UNL     1      -9.444   6.070  71.742  1.00  0.00    -0.151 C  
BRANCH  24  25
HETATM   25  C   UNL     1      -8.405   6.387  70.652  1.00  0.00    -0.133 A  
HETATM   26  C   UNL     1      -7.802   5.333  69.937  1.00  0.00    -0.080 A  
HETATM   27  C   UNL     1      -8.060   7.701  70.297  1.00  0.00    -0.114 A  
HETATM   28  C   UNL     1      -6.884   5.587  68.915  1.00  0.00    -0.055 A  
HETATM   29  C   UNL     1      -6.538   6.897  68.596  1.00  0.00    -0.054 A  
HETATM   30  C   UNL     1      -7.124   7.953  69.289  1.00  0.00    -0.071 A  
ENDBRANCH  24  25
BRANCH  24  31
HETATM   31  C   UNL     1      -9.018   4.898  72.639  1.00  0.00    -0.135 A  
HETATM   32  C   UNL     1      -8.338   2.906  74.505  1.00  0.00    -0.068 A  
HETATM   33  C   UNL     1      -7.348   3.724  73.968  1.00  0.00    -0.058 A  
HETATM   34  C   UNL     1     -10.001   4.046  73.176  1.00  0.00    -0.196 A  
HETATM   35  C   UNL     1      -7.685   4.717  73.046  1.00  0.00    -0.088 A  
HETATM   36  C   UNL     1      -9.664   3.065  74.109  1.00  0.00    -0.139 A  
ENDBRANCH  24  31
ENDBRANCH  21  24
ENDBRANCH  17  18
ENDBRANCH  16  17
ENDBRANCH  15  16
ENDBRANCH  13  15
ENDBRANCH  11  13
BRANCH  12  37
HETATM   37  C   UNL     1      -9.830  13.198  67.257  1.00  0.00    -0.232 A  
HETATM   38  C   UNL     1      -7.831  11.984  67.922  1.00  0.00    -0.144 A  
HETATM   39  O   UNL     1     -10.000  10.781  63.887  1.00  0.00    -0.296 OA 
HETATM   40  C   UNL     1      -9.913  12.400  66.099  1.00  0.00    -0.267 A  
HETATM   41  O   UNL     1      -8.195   9.693  64.495  1.00  0.00    -0.132 OA 
HETATM   42  C   UNL     1      -8.958  11.402  65.867  1.00  0.00    -0.177 A  
HETATM   43  C   UNL     1      -7.922  11.184  66.781  1.00  0.00    -0.156 A  
HETATM   44  N   UNL     1      -9.060  10.564  64.663  1.00  0.00    -0.204 N  
HETATM   45  C   UNL     1      -8.771  12.991  68.153  1.00  0.00    -0.190 A  
ENDBRANCH  12  37
ENDBRANCH   3   5
ENDBRANCH   2   3
TORSDOF 11
ENDMDL
MODEL      144
REMARK 921   NORMALIZED FREE ENERGY PREDICTED BY IDOCK:   -2.91 KCAL/MOL
REMARK 922        TOTAL FREE ENERGY PREDICTED BY IDOCK:   -6.65 KCAL/MOL
REMARK 923 INTER-LIGAND FREE ENERGY PREDICTED BY IDOCK:   -7.80 KCAL/MOL
REMARK 924 INTRA-LIGAND FREE ENERGY PREDICTED BY IDOCK:    1.15 KCAL/MOL
REMARK 927      BINDING AFFINITY PREDICTED BY RF-SCORE:    0.00 PKD
ROOT
HETATM    1  C   UNL     1     -11.076   6.318  72.124  1.00  0.00    -0.269 C  
HETATM    2  O   UNL     1     -10.095   7.010  71.346  1.00  0.00    -0.189 OA 
ENDROOT
BRANCH   2   3
HETATM    3  C   UNL     1      -9.708   8.190  71.894  1.00  0.00    -0.205 C  
HETATM    4  O   UNL     1      -9.889   8.510  73.061  1.00  0.00    -0.177 OA 
BRANCH   3   5
HETATM    5  C   UNL     1      -9.071   9.060  70.869  1.00  0.00    -0.309 C  
HETATM    6  C   UNL     1      -7.731   9.286  70.869  1.00  0.00    -0.103 C  
HETATM    7  N   UNL     1      -7.181  10.140  69.925  1.00  0.00    -0.139 NA 
HETATM    8  C   UNL     1      -6.713   8.709  71.820  1.00  0.00    -0.085 C  
HETATM    9  C   UNL     1      -7.910  10.957  69.088  1.00  0.00    -0.119 C  
HETATM   10  C   UNL     1      -7.126  12.007  68.335  1.00  0.00    -0.084 C  
HETATM   11  C   UNL     1      -9.250  10.800  69.006  1.00  0.00    -0.157 C  
HETATM   12  C   UNL     1      -9.980   9.732  69.829  1.00  0.00    -0.265 C  
BRANCH  11  13
HETATM   13  C   UNL     1     -10.045  11.772  68.228  1.00  0.00    -0.197 C  
HETATM   14  O   UNL     1     -10.259  12.919  68.595  1.00  0.00    -0.229 OA 
BRANCH  13  15
HETATM   15  O   UNL     1     -10.520  11.215  67.083  1.00  0.00    -0.209 OA 
BRANCH  15  16
HETATM   16  C   UNL     1      -9.884  11.735  65.897  1.00  0.00    -0.238 C  
BRANCH  16  17
HETATM   17  C   UNL     1      -8.932  10.673  65.323  1.00  0.00    -0.190 C  
BRANCH  17  18
HETATM   18  N   UNL     1      -9.531   9.369  64.987  1.00  0.00    -0.208 NA 
HETATM   19  C   UNL     1      -7.418   7.930  64.983  1.00  0.00    -0.088 C  
HETATM   20  C   UNL     1      -8.624   8.507  64.197  1.00  0.00     0.042 C  
HETATM   21  N   UNL     1      -7.797   7.162  66.196  1.00  0.00    -0.101 NA 
HETATM   22  C   UNL     1      -9.882   8.659  66.244  1.00  0.00    -0.249 C  
HETATM   23  C   UNL     1      -8.674   8.048  67.006  1.00  0.00    -0.128 C  
BRANCH  21  24
HETATM   24  C   UNL     1      -8.461   5.867  65.850  1.00  0.00    -0.141 C  
BRANCH  24  25
HETATM   25  C   UNL     1      -7.859   5.187  64.608  1.00  0.00    -0.095 A  
HETATM   26  C   UNL     1      -6.478   4.911  64.567  1.00  0.00    -0.038 A  
HETATM   27  C   UNL     1      -8.642   4.779  63.516  1.00  0.00    -0.132 A  
HETATM   28  C   UNL     1      -5.905   4.260  63.471  1.00  0.00    -0.017 A  
HETATM   29  C   UNL     1      -6.696   3.887  62.388  1.00  0.00    -0.026 A  
HETATM   30  C   UNL     1      -8.063   4.148  62.410  1.00  0.00    -0.067 A  
ENDBRANCH  24  25
BRANCH  24  31
HETATM   31  C   UNL     1      -8.552   4.919  67.056  1.00  0.00    -0.104 A  
HETATM   32  C   UNL     1      -8.868   3.004  69.092  1.00  0.00    -0.155 A  
HETATM   33  C   UNL     1      -9.644   4.160  69.097  1.00  0.00    -0.243 A  
HETATM   34  C   UNL     1      -7.762   3.755  67.081  1.00  0.00    -0.080 A  
HETATM   35  C   UNL     1      -9.491   5.109  68.084  1.00  0.00    -0.160 A  
HETATM   36  C   UNL     1      -7.926   2.802  68.086  1.00  0.00    -0.063 A  
ENDBRANCH  24  31
ENDBRANCH  21  24
ENDBRANCH  17  18
ENDBRANCH  16  17
ENDBRANCH  15  16
ENDBRANCH  13  15
ENDBRANCH  11  13
BRANCH  12  37
HETATM   37  C   UNL     1     -11.266  10.307  70.444  1.00  0.00    -0.407 A  
HETATM   38  C   UNL     1     -13.334  10.014  71.688  1.00  0.00    -0.468 A  
HETATM   39  O   UNL     1     -11.885  14.405  70.666  1.00  0.00    -0.293 OA 
HETATM   40  C   UNL     1     -11.449  11.704  70.495  1.00  0.00     0.168 A  
HETATM   41  O   UNL     1     -13.751  14.130  71.786  1.00  0.00    -0.367 OA 
HETATM   42  C   UNL     1     -12.569  12.239  71.144  1.00  0.00    -0.253 A  
HETATM   43  C   UNL     1     -13.509  11.398  71.750  1.00  0.00    -0.218 A  
HETATM   44  N   UNL     1     -12.746  13.697  71.203  1.00  0.00    -0.355 N  
HETATM   45  C   UNL     1     -12.228   9.472  71.031  1.00  0.00    -0.385 A  
ENDBRANCH  12  37
ENDBRANCH   3   5
ENDBRANCH   2   3
TORSDOF 11
ENDMDL
MODEL      145
REMARK 921   NORMALIZED FREE ENERGY PREDICTED BY IDOCK:   -2.91 KCAL/MOL
REMARK 922        TOTAL FREE ENERGY PREDICTED BY IDOCK:   -6.64 KCAL/MOL
REMARK 923 INTER-LIGAND FREE ENERGY PREDICTED BY IDOCK:   -9.79 KCAL/MOL
REMARK 924 INTRA-LIGAND FREE ENERGY PREDICTED BY IDOCK:    3.15 KCAL/MOL
REMARK 927      BINDING AFFINITY PREDICTED BY RF-SCORE:    0.00 PKD
ROOT
HETATM    1  C   UNL     1     -11.437  15.725  64.640  1.00  0.00    -0.282 C  
HETATM    2  O   UNL     1     -10.057  15.382  64.796  1.00  0.00    -0.268 OA 
ENDROOT
BRANCH   2   3
HETATM    3  C   UNL     1      -9.524  15.813  65.967  1.00  0.00    -0.357 C  
HETATM    4  O   UNL     1      -8.400  16.281  66.092  1.00  0.00    -0.320 OA 
BRANCH   3   5
HETATM    5  C   UNL     1     -10.478  15.599  67.087  1.00  0.00    -0.303 C  
HETATM    6  C   UNL     1     -10.947  16.640  67.824  1.00  0.00    -0.234 C  
HETATM    7  N   UNL     1     -11.800  16.395  68.890  1.00  0.00    -0.098 NA 
HETATM    8  C   UNL     1     -10.635  18.102  67.630  1.00  0.00    -0.424 C  
HETATM    9  C   UNL     1     -12.067  15.147  69.410  1.00  0.00    -0.260 C  
HETATM   10  C   UNL     1     -12.794  15.120  70.734  1.00  0.00    -0.473 C  
HETATM   11  C   UNL     1     -11.654  14.046  68.742  1.00  0.00    -0.366 C  
HETATM   12  C   UNL     1     -10.890  14.156  67.417  1.00  0.00    -0.291 C  
BRANCH  11  13
HETATM   13  C   UNL     1     -11.805  12.719  69.374  1.00  0.00    -0.300 C  
HETATM   14  O   UNL     1     -11.667  12.521  70.572  1.00  0.00    -0.170 OA 
BRANCH  13  15
HETATM   15  O   UNL     1     -12.088  11.765  68.449  1.00  0.00    -0.490 OA 
BRANCH  15  16
HETATM   16  C   UNL     1     -12.022  10.426  68.982  1.00  0.00     0.076 C  
BRANCH  16  17
HETATM   17  C   UNL     1     -11.152   9.554  68.061  1.00  0.00     0.005 C  
BRANCH  17  18
HETATM   18  N   UNL     1     -10.107   8.749  68.717  1.00  0.00    -0.193 NA 
HETATM   19  C   UNL     1     -11.559   7.458  70.379  1.00  0.00    -0.183 C  
HETATM   20  C   UNL     1     -10.407   8.469  70.139  1.00  0.00    -0.207 C  
HETATM   21  N   UNL     1     -11.362   6.146  69.711  1.00  0.00    -0.426 NA 
HETATM   22  C   UNL     1      -9.968   7.456  67.999  1.00  0.00    -0.164 C  
HETATM   23  C   UNL     1     -11.103   6.432  68.275  1.00  0.00    -0.267 C  
BRANCH  21  24
HETATM   24  C   UNL     1     -10.258   5.359  70.342  1.00  0.00    -0.262 C  
BRANCH  24  25
HETATM   25  C   UNL     1      -9.173   4.923  69.342  1.00  0.00    -0.160 A  
HETATM   26  C   UNL     1      -9.355   3.747  68.587  1.00  0.00    -0.226 A  
HETATM   27  C   UNL     1      -8.014   5.680  69.107  1.00  0.00    -0.096 A  
HETATM   28  C   UNL     1      -8.407   3.342  67.643  1.00  0.00    -0.094 A  
HETATM   29  C   UNL     1      -7.254   4.095  67.444  1.00  0.00    -0.068 A  
HETATM   30  C   UNL     1      -7.056   5.262  68.178  1.00  0.00    -0.066 A  
ENDBRANCH  24  25
BRANCH  24  31
HETATM   31  C   UNL     1      -9.674   6.062  71.577  1.00  0.00    -0.186 A  
HETATM   32  C   UNL     1      -8.766   7.578  73.766  1.00  0.00    -0.270 A  
HETATM   33  C   UNL     1      -7.950   7.407  72.651  1.00  0.00    -0.116 A  
HETATM   34  C   UNL     1     -10.475   6.228  72.721  1.00  0.00    -0.236 A  
HETATM   35  C   UNL     1      -8.401   6.659  71.562  1.00  0.00    -0.120 A  
HETATM   36  C   UNL     1     -10.027   6.989  73.802  1.00  0.00    -0.367 A  
ENDBRANCH  24  31
ENDBRANCH  21  24
ENDBRANCH  17  18
ENDBRANCH  16  17
ENDBRANCH  15  16
ENDBRANCH  13  15
ENDBRANCH  11  13
BRANCH  12  37
HETATM   37  C   UNL     1      -9.705  13.178  67.393  1.00  0.00    -0.220 A  
HETATM   38  C   UNL     1      -7.712  12.238  68.420  1.00  0.00    -0.141 A  
HETATM   39  O   UNL     1      -9.457  10.188  64.524  1.00  0.00    -0.261 OA 
HETATM   40  C   UNL     1      -9.646  12.180  66.399  1.00  0.00    -0.243 A  
HETATM   41  O   UNL     1      -7.658   9.349  65.458  1.00  0.00    -0.096 OA 
HETATM   42  C   UNL     1      -8.624  11.222  66.429  1.00  0.00    -0.174 A  
HETATM   43  C   UNL     1      -7.661  11.242  67.444  1.00  0.00    -0.128 A  
HETATM   44  N   UNL     1      -8.578  10.177  65.396  1.00  0.00    -0.147 N  
HETATM   45  C   UNL     1      -8.718  13.205  68.389  1.00  0.00    -0.120 A  
ENDBRANCH  12  37
ENDBRANCH   3   5
ENDBRANCH   2   3
TORSDOF 11
ENDMDL
MODEL      146
REMARK 921   NORMALIZED FREE ENERGY PREDICTED BY IDOCK:   -2.89 KCAL/MOL
REMARK 922        TOTAL FREE ENERGY PREDICTED BY IDOCK:   -6.61 KCAL/MOL
REMARK 923 INTER-LIGAND FREE ENERGY PREDICTED BY IDOCK:   -6.32 KCAL/MOL
REMARK 924 INTRA-LIGAND FREE ENERGY PREDICTED BY IDOCK:   -0.28 KCAL/MOL
REMARK 927      BINDING AFFINITY PREDICTED BY RF-SCORE:    0.00 PKD
ROOT
HETATM    1  C   UNL     1     -12.413  11.069  71.676  1.00  0.00    -0.205 C  
HETATM    2  O   UNL     1     -13.050   9.963  71.029  1.00  0.00    -0.367 OA 
ENDROOT
BRANCH   2   3
HETATM    3  C   UNL     1     -12.253   8.869  70.925  1.00  0.00    -0.137 C  
HETATM    4  O   UNL     1     -12.613   7.721  71.151  1.00  0.00    -0.284 OA 
BRANCH   3   5
HETATM    5  C   UNL     1     -10.872   9.260  70.539  1.00  0.00    -0.318 C  
HETATM    6  C   UNL     1     -10.607   9.806  69.323  1.00  0.00    -0.221 C  
HETATM    7  N   UNL     1      -9.298  10.115  68.982  1.00  0.00    -0.177 NA 
HETATM    8  C   UNL     1     -11.600  10.124  68.234  1.00  0.00     0.085 C  
HETATM    9  C   UNL     1      -8.188   9.729  69.702  1.00  0.00    -0.157 C  
HETATM   10  C   UNL     1      -6.853   9.923  69.022  1.00  0.00    -0.054 C  
HETATM   11  C   UNL     1      -8.348   9.189  70.932  1.00  0.00    -0.231 C  
HETATM   12  C   UNL     1      -9.740   8.993  71.542  1.00  0.00    -0.365 C  
BRANCH  11  13
HETATM   13  C   UNL     1      -7.172   8.637  71.636  1.00  0.00    -0.091 C  
HETATM   14  O   UNL     1      -6.954   8.810  72.826  1.00  0.00    -0.305 OA 
BRANCH  13  15
HETATM   15  O   UNL     1      -6.369   7.946  70.784  1.00  0.00    -0.037 OA 
BRANCH  15  16
HETATM   16  C   UNL     1      -6.323   6.534  71.073  1.00  0.00    -0.048 C  
BRANCH  16  17
HETATM   17  C   UNL     1      -6.289   5.745  69.753  1.00  0.00    -0.034 C  
BRANCH  17  18
HETATM   18  N   UNL     1      -7.227   6.183  68.705  1.00  0.00    -0.082 NA 
HETATM   19  C   UNL     1      -5.700   5.963  66.666  1.00  0.00    -0.017 C  
HETATM   20  C   UNL     1      -6.552   6.877  67.585  1.00  0.00    -0.055 C  
HETATM   21  N   UNL     1      -6.452   4.825  66.079  1.00  0.00    -0.039 NA 
HETATM   22  C   UNL     1      -7.939   4.996  68.164  1.00  0.00    -0.087 C  
HETATM   23  C   UNL     1      -7.093   4.107  67.212  1.00  0.00    -0.067 C  
BRANCH  21  24
HETATM   24  C   UNL     1      -7.446   5.281  65.058  1.00  0.00    -0.073 C  
BRANCH  24  25
HETATM   25  C   UNL     1      -6.886   6.340  64.093  1.00  0.00    -0.038 A  
HETATM   26  C   UNL     1      -7.465   7.624  64.056  1.00  0.00    -0.107 A  
HETATM   27  C   UNL     1      -5.775   6.098  63.269  1.00  0.00    -0.022 A  
HETATM   28  C   UNL     1      -6.957   8.621  63.219  1.00  0.00    -0.089 A  
HETATM   29  C   UNL     1      -5.870   8.351  62.392  1.00  0.00    -0.083 A  
HETATM   30  C   UNL     1      -5.282   7.090  62.415  1.00  0.00    -0.033 A  
ENDBRANCH  24  25
BRANCH  24  31
HETATM   31  C   UNL     1      -8.108   4.105  64.324  1.00  0.00    -0.091 A  
HETATM   32  C   UNL     1      -9.371   1.837  63.240  1.00  0.00    -0.093 A  
HETATM   33  C   UNL     1      -7.983   1.941  63.212  1.00  0.00    -0.061 A  
HETATM   34  C   UNL     1      -9.510   3.991  64.324  1.00  0.00    -0.162 A  
HETATM   35  C   UNL     1      -7.355   3.064  63.754  1.00  0.00    -0.058 A  
HETATM   36  C   UNL     1     -10.135   2.861  63.794  1.00  0.00    -0.169 A  
ENDBRANCH  24  31
ENDBRANCH  21  24
ENDBRANCH  17  18
ENDBRANCH  16  17
ENDBRANCH  15  16
ENDBRANCH  13  15
ENDBRANCH  11  13
BRANCH  12  37
HETATM   37  C   UNL     1      -9.849   7.612  72.209  1.00  0.00    -0.229 A  
HETATM   38  C   UNL     1     -10.230   6.233  74.175  1.00  0.00    -0.338 A  
HETATM   39  O   UNL     1      -9.933   4.139  69.938  1.00  0.00    -0.209 OA 
HETATM   40  C   UNL     1      -9.865   6.452  71.409  1.00  0.00    -0.195 A  
HETATM   41  O   UNL     1     -10.274   2.904  71.718  1.00  0.00    -0.106 OA 
HETATM   42  C   UNL     1     -10.066   5.198  72.000  1.00  0.00    -0.197 A  
HETATM   43  C   UNL     1     -10.259   5.085  73.381  1.00  0.00    -0.218 A  
HETATM   44  N   UNL     1     -10.094   3.994  71.156  1.00  0.00    -0.115 N  
HETATM   45  C   UNL     1     -10.015   7.485  73.596  1.00  0.00    -0.347 A  
ENDBRANCH  12  37
ENDBRANCH   3   5
ENDBRANCH   2   3
TORSDOF 11
ENDMDL
MODEL      147
REMARK 921   NORMALIZED FREE ENERGY PREDICTED BY IDOCK:   -2.85 KCAL/MOL
REMARK 922        TOTAL FREE ENERGY PREDICTED BY IDOCK:   -6.54 KCAL/MOL
REMARK 923 INTER-LIGAND FREE ENERGY PREDICTED BY IDOCK:   -8.09 KCAL/MOL
REMARK 924 INTRA-LIGAND FREE ENERGY PREDICTED BY IDOCK:    1.55 KCAL/MOL
REMARK 927      BINDING AFFINITY PREDICTED BY RF-SCORE:    0.00 PKD
ROOT
HETATM    1  C   UNL     1     -11.139  17.138  64.942  1.00  0.00     0.272 C  
HETATM    2  O   UNL     1     -10.499  15.859  64.954  1.00  0.00    -0.542 OA 
ENDROOT
BRANCH   2   3
HETATM    3  C   UNL     1     -11.360  14.827  65.144  1.00  0.00    -0.379 C  
HETATM    4  O   UNL     1     -12.564  14.949  65.325  1.00  0.00    -0.091 OA 
BRANCH   3   5
HETATM    5  C   UNL     1     -10.633  13.531  65.144  1.00  0.00    -0.364 C  
HETATM    6  C   UNL     1     -10.971  12.532  64.287  1.00  0.00    -0.360 C  
HETATM    7  N   UNL     1     -10.299  11.320  64.349  1.00  0.00    -0.304 NA 
HETATM    8  C   UNL     1     -12.046  12.566  63.231  1.00  0.00    -0.525 C  
HETATM    9  C   UNL     1      -9.431  10.955  65.356  1.00  0.00    -0.214 C  
HETATM   10  C   UNL     1      -9.023   9.501  65.388  1.00  0.00    -0.244 C  
HETATM   11  C   UNL     1      -9.023  11.883  66.250  1.00  0.00    -0.157 C  
HETATM   12  C   UNL     1      -9.508  13.335  66.172  1.00  0.00    -0.153 C  
BRANCH  11  13
HETATM   13  C   UNL     1      -8.218  11.458  67.414  1.00  0.00    -0.145 C  
HETATM   14  O   UNL     1      -7.000  11.348  67.391  1.00  0.00    -0.090 OA 
BRANCH  13  15
HETATM   15  O   UNL     1      -9.009  11.186  68.486  1.00  0.00    -0.158 OA 
BRANCH  15  16
HETATM   16  C   UNL     1      -9.813  10.002  68.307  1.00  0.00    -0.146 C  
BRANCH  16  17
HETATM   17  C   UNL     1      -9.413   8.952  69.357  1.00  0.00    -0.161 C  
BRANCH  17  18
HETATM   18  N   UNL     1     -10.182   7.696  69.353  1.00  0.00    -0.201 NA 
HETATM   19  C   UNL     1      -9.268   6.656  67.204  1.00  0.00    -0.126 C  
HETATM   20  C   UNL     1     -10.485   7.213  67.987  1.00  0.00    -0.201 C  
HETATM   21  N   UNL     1      -8.549   5.559  67.901  1.00  0.00    -0.105 NA 
HETATM   22  C   UNL     1      -9.404   6.648  70.063  1.00  0.00    -0.158 C  
HETATM   23  C   UNL     1      -8.210   6.065  69.257  1.00  0.00    -0.115 C  
BRANCH  21  24
HETATM   24  C   UNL     1      -9.360   4.303  67.949  1.00  0.00    -0.156 C  
BRANCH  24  25
HETATM   25  C   UNL     1      -9.516   3.628  66.575  1.00  0.00    -0.188 A  
HETATM   26  C   UNL     1      -8.794   2.451  66.292  1.00  0.00    -0.131 A  
HETATM   27  C   UNL     1     -10.395   4.110  65.592  1.00  0.00    -0.120 A  
HETATM   28  C   UNL     1      -8.941   1.790  65.070  1.00  0.00    -0.124 A  
HETATM   29  C   UNL     1      -9.799   2.300  64.100  1.00  0.00    -0.098 A  
HETATM   30  C   UNL     1     -10.524   3.460  64.360  1.00  0.00    -0.073 A  
ENDBRANCH  24  25
BRANCH  24  31
HETATM   31  C   UNL     1      -8.866   3.332  69.032  1.00  0.00    -0.159 A  
HETATM   32  C   UNL     1      -7.829   1.780  71.136  1.00  0.00    -0.035 A  
HETATM   33  C   UNL     1      -7.253   1.712  69.870  1.00  0.00    -0.033 A  
HETATM   34  C   UNL     1      -9.449   3.371  70.312  1.00  0.00    -0.247 A  
HETATM   35  C   UNL     1      -7.764   2.485  68.826  1.00  0.00    -0.051 A  
HETATM   36  C   UNL     1      -8.927   2.607  71.357  1.00  0.00    -0.149 A  
ENDBRANCH  24  31
ENDBRANCH  21  24
ENDBRANCH  17  18
ENDBRANCH  16  17
ENDBRANCH  15  16
ENDBRANCH  13  15
ENDBRANCH  11  13
BRANCH  12  37
HETATM   37  C   UNL     1      -9.881  13.858  67.569  1.00  0.00    -0.236 A  
HETATM   38  C   UNL     1      -9.756  15.565  69.295  1.00  0.00    -0.272 A  
HETATM   39  O   UNL     1     -12.778  11.963  69.861  1.00  0.00     0.077 OA 
HETATM   40  C   UNL     1     -10.862  13.185  68.325  1.00  0.00    -0.274 A  
HETATM   41  O   UNL     1     -12.655  13.507  71.413  1.00  0.00    -0.348 OA 
HETATM   42  C   UNL     1     -11.281  13.711  69.554  1.00  0.00    -0.146 A  
HETATM   43  C   UNL     1     -10.737  14.906  70.038  1.00  0.00    -0.165 A  
HETATM   44  N   UNL     1     -12.314  13.009  70.331  1.00  0.00    -0.315 N  
HETATM   45  C   UNL     1      -9.322  15.040  68.076  1.00  0.00    -0.185 A  
ENDBRANCH  12  37
ENDBRANCH   3   5
ENDBRANCH   2   3
TORSDOF 11
ENDMDL
MODEL      148
REMARK 921   NORMALIZED FREE ENERGY PREDICTED BY IDOCK:   -2.83 KCAL/MOL
REMARK 922        TOTAL FREE ENERGY PREDICTED BY IDOCK:   -6.51 KCAL/MOL
REMARK 923 INTER-LIGAND FREE ENERGY PREDICTED BY IDOCK:   -6.92 KCAL/MOL
REMARK 924 INTRA-LIGAND FREE ENERGY PREDICTED BY IDOCK:    0.42 KCAL/MOL
REMARK 927      BINDING AFFINITY PREDICTED BY RF-SCORE:    0.00 PKD
ROOT
HETATM    1  C   UNL     1     -12.613  14.866  69.175  1.00  0.00     0.186 C  
HETATM    2  O   UNL     1     -11.414  15.053  68.419  1.00  0.00    -0.295 OA 
ENDROOT
BRANCH   2   3
HETATM    3  C   UNL     1     -10.948  16.328  68.455  1.00  0.00    -0.345 C  
HETATM    4  O   UNL     1     -11.642  17.328  68.333  1.00  0.00     0.275 OA 
BRANCH   3   5
HETATM    5  C   UNL     1      -9.470  16.341  68.621  1.00  0.00    -0.228 C  
HETATM    6  C   UNL     1      -8.769  17.505  68.610  1.00  0.00    -0.258 C  
HETATM    7  N   UNL     1      -7.387  17.473  68.722  1.00  0.00    -0.255 NA 
HETATM    8  C   UNL     1      -9.326  18.899  68.471  1.00  0.00    -0.412 C  
HETATM    9  C   UNL     1      -6.620  16.330  68.645  1.00  0.00    -0.135 C  
HETATM   10  C   UNL     1      -5.130  16.537  68.510  1.00  0.00    -0.105 C  
HETATM   11  C   UNL     1      -7.225  15.121  68.664  1.00  0.00    -0.118 C  
HETATM   12  C   UNL     1      -8.749  14.992  68.768  1.00  0.00    -0.186 C  
BRANCH  11  13
HETATM   13  C   UNL     1      -6.419  13.906  68.426  1.00  0.00    -0.103 C  
HETATM   14  O   UNL     1      -5.683  13.761  67.461  1.00  0.00    -0.334 OA 
BRANCH  13  15
HETATM   15  O   UNL     1      -6.627  12.980  69.399  1.00  0.00    -0.109 OA 
BRANCH  15  16
HETATM   16  C   UNL     1      -5.446  12.212  69.710  1.00  0.00    -0.090 C  
BRANCH  16  17
HETATM   17  C   UNL     1      -5.536  10.839  69.023  1.00  0.00    -0.040 C  
BRANCH  17  18
HETATM   18  N   UNL     1      -6.887  10.271  68.870  1.00  0.00    -0.057 NA 
HETATM   19  C   UNL     1      -6.295   7.784  68.882  1.00  0.00    -0.036 C  
HETATM   20  C   UNL     1      -6.891   8.996  68.119  1.00  0.00    -0.069 C  
HETATM   21  N   UNL     1      -6.940   7.517  70.193  1.00  0.00    -0.058 NA 
HETATM   22  C   UNL     1      -7.467  10.029  70.216  1.00  0.00    -0.129 C  
HETATM   23  C   UNL     1      -6.895   8.791  70.959  1.00  0.00    -0.074 C  
BRANCH  21  24
HETATM   24  C   UNL     1      -8.334   6.998  70.032  1.00  0.00    -0.138 C  
BRANCH  24  25
HETATM   25  C   UNL     1      -8.388   5.547  69.524  1.00  0.00    -0.102 A  
HETATM   26  C   UNL     1      -7.209   4.775  69.494  1.00  0.00    -0.055 A  
HETATM   27  C   UNL     1      -9.585   4.930  69.126  1.00  0.00    -0.231 A  
HETATM   28  C   UNL     1      -7.230   3.443  69.074  1.00  0.00    -0.049 A  
HETATM   29  C   UNL     1      -8.424   2.859  68.662  1.00  0.00    -0.095 A  
HETATM   30  C   UNL     1      -9.600   3.603  68.686  1.00  0.00    -0.159 A  
ENDBRANCH  24  25
BRANCH  24  31
HETATM   31  C   UNL     1      -9.184   7.214  71.294  1.00  0.00    -0.151 A  
HETATM   32  C   UNL     1     -10.839   7.339  73.564  1.00  0.00    -0.290 A  
HETATM   33  C   UNL     1     -11.216   7.988  72.391  1.00  0.00    -0.432 A  
HETATM   34  C   UNL     1      -8.810   6.583  72.495  1.00  0.00    -0.132 A  
HETATM   35  C   UNL     1     -10.397   7.922  71.262  1.00  0.00    -0.222 A  
HETATM   36  C   UNL     1      -9.637   6.638  73.617  1.00  0.00    -0.207 A  
ENDBRANCH  24  31
ENDBRANCH  21  24
ENDBRANCH  17  18
ENDBRANCH  16  17
ENDBRANCH  15  16
ENDBRANCH  13  15
ENDBRANCH  11  13
BRANCH  12  37
HETATM   37  C   UNL     1      -9.272  13.929  67.789  1.00  0.00    -0.197 A  
HETATM   38  C   UNL     1      -9.606  13.119  65.521  1.00  0.00     0.034 A  
HETATM   39  O   UNL     1     -10.584  10.232  69.145  1.00  0.00    -0.201 OA 
HETATM   40  C   UNL     1      -9.719  12.687  68.283  1.00  0.00    -0.216 A  
HETATM   41  O   UNL     1     -10.884   9.512  67.095  1.00  0.00    -0.224 OA 
HETATM   42  C   UNL     1     -10.101  11.676  67.392  1.00  0.00    -0.198 A  
HETATM   43  C   UNL     1     -10.036  11.884  66.010  1.00  0.00    -0.261 A  
HETATM   44  N   UNL     1     -10.555  10.379  67.917  1.00  0.00    -0.213 N  
HETATM   45  C   UNL     1      -9.237  14.137  66.402  1.00  0.00    -0.209 A  
ENDBRANCH  12  37
ENDBRANCH   3   5
ENDBRANCH   2   3
TORSDOF 11
ENDMDL
MODEL      149
REMARK 921   NORMALIZED FREE ENERGY PREDICTED BY IDOCK:   -2.82 KCAL/MOL
REMARK 922        TOTAL FREE ENERGY PREDICTED BY IDOCK:   -6.49 KCAL/MOL
REMARK 923 INTER-LIGAND FREE ENERGY PREDICTED BY IDOCK:   -9.35 KCAL/MOL
REMARK 924 INTRA-LIGAND FREE ENERGY PREDICTED BY IDOCK:    2.86 KCAL/MOL
REMARK 927      BINDING AFFINITY PREDICTED BY RF-SCORE:    0.00 PKD
ROOT
HETATM    1  C   UNL     1     -11.095  16.591  64.896  1.00  0.00    -0.190 C  
HETATM    2  O   UNL     1      -9.741  16.723  65.338  1.00  0.00    -0.510 OA 
ENDROOT
BRANCH   2   3
HETATM    3  C   UNL     1      -9.613  16.724  66.689  1.00  0.00    -0.258 C  
HETATM    4  O   UNL     1     -10.286  17.402  67.453  1.00  0.00    -0.323 OA 
BRANCH   3   5
HETATM    5  C   UNL     1      -8.513  15.817  67.112  1.00  0.00    -0.235 C  
HETATM    6  C   UNL     1      -7.211  16.139  66.896  1.00  0.00    -0.205 C  
HETATM    7  N   UNL     1      -6.215  15.245  67.264  1.00  0.00    -0.305 NA 
HETATM    8  C   UNL     1      -6.680  17.400  66.265  1.00  0.00    -0.295 C  
HETATM    9  C   UNL     1      -6.436  13.943  67.658  1.00  0.00    -0.147 C  
HETATM   10  C   UNL     1      -5.215  13.058  67.745  1.00  0.00    -0.100 C  
HETATM   11  C   UNL     1      -7.698  13.531  67.912  1.00  0.00    -0.153 C  
HETATM   12  C   UNL     1      -8.893  14.480  67.768  1.00  0.00    -0.183 C  
BRANCH  11  13
HETATM   13  C   UNL     1      -7.949  12.100  68.184  1.00  0.00    -0.151 C  
HETATM   14  O   UNL     1      -7.860  11.597  69.294  1.00  0.00     0.041 OA 
BRANCH  13  15
HETATM   15  O   UNL     1      -8.261  11.431  67.043  1.00  0.00    -0.146 OA 
BRANCH  15  16
HETATM   16  C   UNL     1      -7.156  10.666  66.518  1.00  0.00    -0.133 C  
BRANCH  16  17
HETATM   17  C   UNL     1      -6.987   9.381  67.345  1.00  0.00    -0.085 C  
BRANCH  17  18
HETATM   18  N   UNL     1      -8.162   8.497  67.429  1.00  0.00    -0.109 NA 
HETATM   19  C   UNL     1      -7.107   6.323  66.596  1.00  0.00    -0.069 C  
HETATM   20  C   UNL     1      -8.162   7.442  66.392  1.00  0.00    -0.122 C  
HETATM   21  N   UNL     1      -7.197   5.638  67.910  1.00  0.00    -0.071 NA 
HETATM   22  C   UNL     1      -8.186   7.847  68.765  1.00  0.00    -0.127 C  
HETATM   23  C   UNL     1      -7.155   6.700  68.950  1.00  0.00    -0.085 C  
BRANCH  21  24
HETATM   24  C   UNL     1      -8.425   4.790  68.013  1.00  0.00    -0.102 C  
BRANCH  24  25
HETATM   25  C   UNL     1      -9.447   5.321  69.033  1.00  0.00    -0.182 A  
HETATM   26  C   UNL     1      -9.288   5.019  70.400  1.00  0.00    -0.216 A  
HETATM   27  C   UNL     1     -10.522   6.146  68.665  1.00  0.00    -0.285 A  
HETATM   28  C   UNL     1     -10.176   5.516  71.357  1.00  0.00    -0.275 A  
HETATM   29  C   UNL     1     -11.249   6.313  70.967  1.00  0.00    -0.372 A  
HETATM   30  C   UNL     1     -11.423   6.625  69.622  1.00  0.00    -0.358 A  
ENDBRANCH  24  25
BRANCH  24  31
HETATM   31  C   UNL     1      -9.054   4.506  66.640  1.00  0.00    -0.123 A  
HETATM   32  C   UNL     1     -10.370   3.790  64.260  1.00  0.00    -0.253 A  
HETATM   33  C   UNL     1      -9.077   3.336  64.505  1.00  0.00    -0.132 A  
HETATM   34  C   UNL     1     -10.352   4.973  66.366  1.00  0.00    -0.335 A  
HETATM   35  C   UNL     1      -8.425   3.686  65.688  1.00  0.00    -0.110 A  
HETATM   36  C   UNL     1     -11.007   4.610  65.189  1.00  0.00     0.027 A  
ENDBRANCH  24  31
ENDBRANCH  21  24
ENDBRANCH  17  18
ENDBRANCH  16  17
ENDBRANCH  15  16
ENDBRANCH  13  15
ENDBRANCH  11  13
BRANCH  12  37
HETATM   37  C   UNL     1     -10.061  13.778  67.056  1.00  0.00    -0.256 A  
HETATM   38  C   UNL     1     -12.402  13.129  66.961  1.00  0.00    -0.119 A  
HETATM   39  O   UNL     1      -9.671  12.391  63.163  1.00  0.00    -0.254 OA 
HETATM   40  C   UNL     1      -9.892  13.310  65.737  1.00  0.00    -0.210 A  
HETATM   41  O   UNL     1     -11.784  11.807  63.089  1.00  0.00    -0.310 OA 
HETATM   42  C   UNL     1     -10.979  12.761  65.045  1.00  0.00    -0.289 A  
HETATM   43  C   UNL     1     -12.238  12.678  65.650  1.00  0.00    -0.474 A  
HETATM   44  N   UNL     1     -10.797  12.287  63.665  1.00  0.00    -0.435 N  
HETATM   45  C   UNL     1     -11.320  13.665  67.663  1.00  0.00    -0.328 A  
ENDBRANCH  12  37
ENDBRANCH   3   5
ENDBRANCH   2   3
TORSDOF 11
ENDMDL
MODEL      150
REMARK 921   NORMALIZED FREE ENERGY PREDICTED BY IDOCK:   -2.81 KCAL/MOL
REMARK 922        TOTAL FREE ENERGY PREDICTED BY IDOCK:   -6.49 KCAL/MOL
REMARK 923 INTER-LIGAND FREE ENERGY PREDICTED BY IDOCK:   -8.04 KCAL/MOL
REMARK 924 INTRA-LIGAND FREE ENERGY PREDICTED BY IDOCK:    1.55 KCAL/MOL
REMARK 927      BINDING AFFINITY PREDICTED BY RF-SCORE:    0.00 PKD
ROOT
HETATM    1  C   UNL     1     -12.625   7.255  70.598  1.00  0.00     0.000 C  
HETATM    2  O   UNL     1     -11.358   6.871  71.141  1.00  0.00    -0.263 OA 
ENDROOT
BRANCH   2   3
HETATM    3  C   UNL     1     -10.568   6.216  70.253  1.00  0.00    -0.258 C  
HETATM    4  O   UNL     1     -10.414   5.003  70.219  1.00  0.00    -0.261 OA 
BRANCH   3   5
HETATM    5  C   UNL     1      -9.882   7.179  69.351  1.00  0.00    -0.161 C  
HETATM    6  C   UNL     1     -10.064   7.139  68.005  1.00  0.00    -0.169 C  
HETATM    7  N   UNL     1      -9.370   8.025  67.194  1.00  0.00    -0.143 NA 
HETATM    8  C   UNL     1     -10.959   6.199  67.237  1.00  0.00    -0.418 C  
HETATM    9  C   UNL     1      -8.337   8.833  67.618  1.00  0.00    -0.114 C  
HETATM   10  C   UNL     1      -7.535   9.512  66.533  1.00  0.00    -0.093 C  
HETATM   11  C   UNL     1      -8.086   8.951  68.941  1.00  0.00    -0.112 C  
HETATM   12  C   UNL     1      -8.925   8.201  69.983  1.00  0.00    -0.143 C  
BRANCH  11  13
HETATM   13  C   UNL     1      -6.888   9.692  69.385  1.00  0.00    -0.054 C  
HETATM   14  O   UNL     1      -5.764   9.211  69.405  1.00  0.00    -0.034 OA 
BRANCH  13  15
HETATM   15  O   UNL     1      -7.209  10.950  69.786  1.00  0.00    -0.136 OA 
BRANCH  15  16
HETATM   16  C   UNL     1      -6.274  11.946  69.323  1.00  0.00    -0.094 C  
BRANCH  16  17
HETATM   17  C   UNL     1      -6.940  12.803  68.234  1.00  0.00    -0.097 C  
BRANCH  17  18
HETATM   18  N   UNL     1      -8.407  12.709  68.134  1.00  0.00    -0.169 NA 
HETATM   19  C   UNL     1      -9.034  15.011  69.052  1.00  0.00    -0.205 C  
HETATM   20  C   UNL     1      -9.105  13.468  69.196  1.00  0.00     0.546 C  
HETATM   21  N   UNL     1      -9.539  15.522  67.752  1.00  0.00    -0.209 NA 
HETATM   22  C   UNL     1      -8.838  13.238  66.814  1.00  0.00    -0.129 C  
HETATM   23  C   UNL     1      -8.804  14.786  66.690  1.00  0.00    -0.229 C  
BRANCH  21  24
HETATM   24  C   UNL     1     -11.021  15.368  67.630  1.00  0.00    -0.315 C  
BRANCH  24  25
HETATM   25  C   UNL     1     -11.444  14.462  66.460  1.00  0.00    -0.369 A  
HETATM   26  C   UNL     1     -11.811  13.125  66.713  1.00  0.00    -0.444 A  
HETATM   27  C   UNL     1     -11.528  14.926  65.138  1.00  0.00    -0.357 A  
HETATM   28  C   UNL     1     -12.236  12.286  65.679  1.00  0.00    -0.203 A  
HETATM   29  C   UNL     1     -12.289  12.760  64.372  1.00  0.00    -0.498 A  
HETATM   30  C   UNL     1     -11.932  14.079  64.101  1.00  0.00    -0.439 A  
ENDBRANCH  24  25
BRANCH  24  31
HETATM   31  C   UNL     1     -11.676  14.960  68.959  1.00  0.00    -0.347 A  
HETATM   32  C   UNL     1     -13.126  14.208  71.249  1.00  0.00    -0.420 A  
HETATM   33  C   UNL     1     -12.700  15.524  71.095  1.00  0.00    -0.525 A  
HETATM   34  C   UNL     1     -12.096  13.630  69.142  1.00  0.00    -0.361 A  
HETATM   35  C   UNL     1     -11.984  15.900  69.957  1.00  0.00    -0.297 A  
HETATM   36  C   UNL     1     -12.824  13.260  70.274  1.00  0.00     0.087 A  
ENDBRANCH  24  31
ENDBRANCH  21  24
ENDBRANCH  17  18
ENDBRANCH  16  17
ENDBRANCH  15  16
ENDBRANCH  13  15
ENDBRANCH  11  13
BRANCH  12  37
HETATM   37  C   UNL     1      -8.022   7.584  71.063  1.00  0.00    -0.095 A  
HETATM   38  C   UNL     1      -7.247   7.468  73.364  1.00  0.00    -0.098 A  
HETATM   39  O   UNL     1      -5.825   4.144  70.305  1.00  0.00    -0.016 OA 
HETATM   40  C   UNL     1      -7.281   6.420  70.770  1.00  0.00    -0.074 A  
HETATM   41  O   UNL     1      -5.130   4.050  72.383  1.00  0.00     0.000 OA 
HETATM   42  C   UNL     1      -6.536   5.794  71.776  1.00  0.00    -0.054 A  
HETATM   43  C   UNL     1      -6.524   6.308  73.077  1.00  0.00    -0.068 A  
HETATM   44  N   UNL     1      -5.777   4.574  71.465  1.00  0.00    -0.011 N  
HETATM   45  C   UNL     1      -7.980   8.107  72.363  1.00  0.00    -0.185 A  
ENDBRANCH  12  37
ENDBRANCH   3   5
ENDBRANCH   2   3
TORSDOF 11
ENDMDL
MODEL      151
REMARK 921   NORMALIZED FREE ENERGY PREDICTED BY IDOCK:   -2.79 KCAL/MOL
REMARK 922        TOTAL FREE ENERGY PREDICTED BY IDOCK:   -6.45 KCAL/MOL
REMARK 923 INTER-LIGAND FREE ENERGY PREDICTED BY IDOCK:   -7.17 KCAL/MOL
REMARK 924 INTRA-LIGAND FREE ENERGY PREDICTED BY IDOCK:    0.73 KCAL/MOL
REMARK 927      BINDING AFFINITY PREDICTED BY RF-SCORE:    0.00 PKD
ROOT
HETATM    1  C   UNL     1      -8.102  16.217  67.949  1.00  0.00    -0.146 C  
HETATM    2  O   UNL     1      -8.001  14.910  67.378  1.00  0.00    -0.170 OA 
ENDROOT
BRANCH   2   3
HETATM    3  C   UNL     1      -7.929  13.921  68.305  1.00  0.00    -0.148 C  
HETATM    4  O   UNL     1      -8.089  14.081  69.508  1.00  0.00     0.307 OA 
BRANCH   3   5
HETATM    5  C   UNL     1      -7.587  12.625  67.664  1.00  0.00    -0.152 C  
HETATM    6  C   UNL     1      -6.332  12.372  67.208  1.00  0.00    -0.142 C  
HETATM    7  N   UNL     1      -6.064  11.167  66.574  1.00  0.00    -0.133 NA 
HETATM    8  C   UNL     1      -5.134  13.283  67.294  1.00  0.00     0.293 C  
HETATM    9  C   UNL     1      -7.022  10.259  66.178  1.00  0.00    -0.116 C  
HETATM   10  C   UNL     1      -6.551   9.153  65.263  1.00  0.00    -0.069 C  
HETATM   11  C   UNL     1      -8.299  10.416  66.593  1.00  0.00    -0.127 C  
HETATM   12  C   UNL     1      -8.707  11.587  67.495  1.00  0.00    -0.145 C  
BRANCH  11  13
HETATM   13  C   UNL     1      -9.350   9.534  66.045  1.00  0.00    -0.216 C  
HETATM   14  O   UNL     1      -9.987   9.789  65.033  1.00  0.00    -0.286 OA 
BRANCH  13  15
HETATM   15  O   UNL     1      -9.524   8.434  66.824  1.00  0.00    -0.167 OA 
BRANCH  15  16
HETATM   16  C   UNL     1      -9.313   7.198  66.111  1.00  0.00    -0.045 C  
BRANCH  16  17
HETATM   17  C   UNL     1      -8.340   6.311  66.906  1.00  0.00    -0.109 C  
BRANCH  17  18
HETATM   18  N   UNL     1      -8.090   6.702  68.304  1.00  0.00    -0.110 NA 
HETATM   19  C   UNL     1      -9.919   5.333  69.451  1.00  0.00    -0.218 C  
HETATM   20  C   UNL     1      -9.324   6.727  69.122  1.00  0.00    -0.135 C  
HETATM   21  N   UNL     1      -8.970   4.413  70.127  1.00  0.00    -0.083 NA 
HETATM   22  C   UNL     1      -7.138   5.740  68.914  1.00  0.00    -0.073 C  
HETATM   23  C   UNL     1      -7.750   4.360  69.279  1.00  0.00    -0.055 C  
BRANCH  21  24
HETATM   24  C   UNL     1      -8.672   4.849  71.526  1.00  0.00    -0.130 C  
BRANCH  24  25
HETATM   25  C   UNL     1      -9.646   5.918  72.051  1.00  0.00    -0.167 A  
HETATM   26  C   UNL     1      -9.182   7.227  72.288  1.00  0.00    -0.154 A  
HETATM   27  C   UNL     1     -11.010   5.658  72.263  1.00  0.00    -0.312 A  
HETATM   28  C   UNL     1     -10.049   8.232  72.728  1.00  0.00    -0.333 A  
HETATM   29  C   UNL     1     -11.392   7.945  72.955  1.00  0.00    -0.399 A  
HETATM   30  C   UNL     1     -11.871   6.658  72.725  1.00  0.00     0.063 A  
ENDBRANCH  24  25
BRANCH  24  31
HETATM   31  C   UNL     1      -8.526   3.660  72.488  1.00  0.00    -0.088 A  
HETATM   32  C   UNL     1      -8.414   1.638  74.440  1.00  0.00    -0.053 A  
HETATM   33  C   UNL     1      -7.302   2.441  74.205  1.00  0.00    -0.037 A  
HETATM   34  C   UNL     1      -9.633   2.824  72.725  1.00  0.00    -0.163 A  
HETATM   35  C   UNL     1      -7.358   3.448  73.240  1.00  0.00    -0.055 A  
HETATM   36  C   UNL     1      -9.579   1.827  73.700  1.00  0.00    -0.092 A  
ENDBRANCH  24  31
ENDBRANCH  21  24
ENDBRANCH  17  18
ENDBRANCH  16  17
ENDBRANCH  15  16
ENDBRANCH  13  15
ENDBRANCH  11  13
BRANCH  12  37
HETATM   37  C   UNL     1     -10.027  12.209  67.012  1.00  0.00    -0.213 A  
HETATM   38  C   UNL     1     -12.125  13.349  67.471  1.00  0.00    -0.323 A  
HETATM   39  O   UNL     1     -10.766  12.790  62.969  1.00  0.00     0.076 OA 
HETATM   40  C   UNL     1     -10.250  12.383  65.631  1.00  0.00    -0.285 A  
HETATM   41  O   UNL     1     -12.657  13.815  63.394  1.00  0.00    -0.842 OA 
HETATM   42  C   UNL     1     -11.405  13.040  65.187  1.00  0.00    -0.291 A  
HETATM   43  C   UNL     1     -12.339  13.534  66.104  1.00  0.00    -0.463 A  
HETATM   44  N   UNL     1     -11.623  13.230  63.746  1.00  0.00    -0.406 N  
HETATM   45  C   UNL     1     -10.984  12.681  67.922  1.00  0.00    -0.262 A  
ENDBRANCH  12  37
ENDBRANCH   3   5
ENDBRANCH   2   3
TORSDOF 11
ENDMDL
MODEL      152
REMARK 921   NORMALIZED FREE ENERGY PREDICTED BY IDOCK:   -2.76 KCAL/MOL
REMARK 922        TOTAL FREE ENERGY PREDICTED BY IDOCK:   -6.40 KCAL/MOL
REMARK 923 INTER-LIGAND FREE ENERGY PREDICTED BY IDOCK:   -5.55 KCAL/MOL
REMARK 924 INTRA-LIGAND FREE ENERGY PREDICTED BY IDOCK:   -0.85 KCAL/MOL
REMARK 927      BINDING AFFINITY PREDICTED BY RF-SCORE:    0.00 PKD
ROOT
HETATM    1  C   UNL     1     -10.929  17.916  67.692  1.00  0.00    -0.088 C  
HETATM    2  O   UNL     1      -9.582  17.433  67.721  1.00  0.00    -0.255 OA 
ENDROOT
BRANCH   2   3
HETATM    3  C   UNL     1      -9.362  16.510  68.691  1.00  0.00    -0.241 C  
HETATM    4  O   UNL     1      -9.017  16.770  69.836  1.00  0.00     0.635 OA 
BRANCH   3   5
HETATM    5  C   UNL     1      -9.555  15.135  68.160  1.00  0.00    -0.205 C  
HETATM    6  C   UNL     1      -9.209  14.815  66.886  1.00  0.00    -0.245 C  
HETATM    7  N   UNL     1      -9.448  13.533  66.413  1.00  0.00    -0.254 NA 
HETATM    8  C   UNL     1      -8.579  15.723  65.861  1.00  0.00     0.164 C  
HETATM    9  C   UNL     1     -10.203  12.584  67.068  1.00  0.00    -0.221 C  
HETATM   10  C   UNL     1     -10.573  11.359  66.265  1.00  0.00    -0.312 C  
HETATM   11  C   UNL     1     -10.584  12.803  68.346  1.00  0.00    -0.262 C  
HETATM   12  C   UNL     1     -10.197  14.089  69.085  1.00  0.00    -0.025 C  
BRANCH  11  13
HETATM   13  C   UNL     1     -11.518  11.858  68.993  1.00  0.00    -0.297 C  
HETATM   14  O   UNL     1     -12.640  11.621  68.571  1.00  0.00    -0.076 OA 
BRANCH  13  15
HETATM   15  O   UNL     1     -10.974  11.323  70.118  1.00  0.00    -0.079 OA 
BRANCH  15  16
HETATM   16  C   UNL     1     -10.686   9.915  69.990  1.00  0.00    -0.292 C  
BRANCH  16  17
HETATM   17  C   UNL     1     -10.486   9.307  71.387  1.00  0.00    -0.338 C  
BRANCH  17  18
HETATM   18  N   UNL     1      -9.335   8.402  71.549  1.00  0.00    -0.179 NA 
HETATM   19  C   UNL     1     -10.582   6.243  72.118  1.00  0.00    -0.223 C  
HETATM   20  C   UNL     1      -9.576   7.341  72.553  1.00  0.00    -0.152 C  
HETATM   21  N   UNL     1     -10.223   5.563  70.847  1.00  0.00    -0.215 NA 
HETATM   22  C   UNL     1      -9.036   7.758  70.244  1.00  0.00    -0.152 C  
HETATM   23  C   UNL     1     -10.023   6.631  69.832  1.00  0.00    -0.171 C  
BRANCH  21  24
HETATM   24  C   UNL     1      -9.017   4.693  71.002  1.00  0.00    -0.125 C  
BRANCH  24  25
HETATM   25  C   UNL     1      -9.136   3.689  72.162  1.00  0.00    -0.151 A  
HETATM   26  C   UNL     1     -10.145   2.706  72.131  1.00  0.00    -0.213 A  
HETATM   27  C   UNL     1      -8.242   3.676  73.245  1.00  0.00    -0.080 A  
HETATM   28  C   UNL     1     -10.258   1.755  73.149  1.00  0.00    -0.182 A  
HETATM   29  C   UNL     1      -9.375   1.777  74.225  1.00  0.00    -0.084 A  
HETATM   30  C   UNL     1      -8.369   2.738  74.274  1.00  0.00    -0.068 A  
ENDBRANCH  24  25
BRANCH  24  31
HETATM   31  C   UNL     1      -8.609   4.022  69.681  1.00  0.00    -0.105 A  
HETATM   32  C   UNL     1      -7.843   3.061  67.151  1.00  0.00    -0.075 A  
HETATM   33  C   UNL     1      -9.174   2.983  67.552  1.00  0.00    -0.233 A  
HETATM   34  C   UNL     1      -7.265   4.073  69.267  1.00  0.00    -0.050 A  
HETATM   35  C   UNL     1      -9.556   3.464  68.806  1.00  0.00    -0.120 A  
HETATM   36  C   UNL     1      -6.888   3.604  68.008  1.00  0.00    -0.050 A  
ENDBRANCH  24  31
ENDBRANCH  21  24
ENDBRANCH  17  18
ENDBRANCH  16  17
ENDBRANCH  15  16
ENDBRANCH  13  15
ENDBRANCH  11  13
BRANCH  12  37
HETATM   37  C   UNL     1     -11.396  14.645  69.870  1.00  0.00    -0.302 A  
HETATM   38  C   UNL     1     -13.711  15.381  69.961  1.00  0.00     1.073 A  
HETATM   39  O   UNL     1     -11.297  14.927  74.011  1.00  0.00     0.359 OA 
HETATM   40  C   UNL     1     -11.326  14.736  71.275  1.00  0.00    -0.168 A  
HETATM   41  O   UNL     1     -13.386  15.593  74.082  1.00  0.00    -0.163 OA 
HETATM   42  C   UNL     1     -12.448  15.146  72.006  1.00  0.00    -0.340 A  
HETATM   43  C   UNL     1     -13.646  15.459  71.354  1.00  0.00    -0.604 A  
HETATM   44  N   UNL     1     -12.371  15.226  73.472  1.00  0.00    -0.489 N  
HETATM   45  C   UNL     1     -12.593  14.989  69.224  1.00  0.00     0.101 A  
ENDBRANCH  12  37
ENDBRANCH   3   5
ENDBRANCH   2   3
TORSDOF 11
ENDMDL
MODEL      153
REMARK 921   NORMALIZED FREE ENERGY PREDICTED BY IDOCK:   -2.75 KCAL/MOL
REMARK 922        TOTAL FREE ENERGY PREDICTED BY IDOCK:   -6.38 KCAL/MOL
REMARK 923 INTER-LIGAND FREE ENERGY PREDICTED BY IDOCK:   -7.86 KCAL/MOL
REMARK 924 INTRA-LIGAND FREE ENERGY PREDICTED BY IDOCK:    1.48 KCAL/MOL
REMARK 927      BINDING AFFINITY PREDICTED BY RF-SCORE:    0.00 PKD
ROOT
HETATM    1  C   UNL     1      -8.033  20.142  66.933  1.00  0.00    -0.317 C  
HETATM    2  O   UNL     1      -8.172  18.806  67.425  1.00  0.00    -0.259 OA 
ENDROOT
BRANCH   2   3
HETATM    3  C   UNL     1      -7.853  17.859  66.507  1.00  0.00    -0.264 C  
HETATM    4  O   UNL     1      -6.815  17.837  65.859  1.00  0.00    -0.279 OA 
BRANCH   3   5
HETATM    5  C   UNL     1      -8.957  16.873  66.366  1.00  0.00    -0.317 C  
HETATM    6  C   UNL     1     -10.228  17.270  66.097  1.00  0.00    -0.331 C  
HETATM    7  N   UNL     1     -11.239  16.324  66.018  1.00  0.00     0.139 NA 
HETATM    8  C   UNL     1     -10.711  18.681  65.875  1.00  0.00    -0.274 C  
HETATM    9  C   UNL     1     -11.108  15.003  66.390  1.00  0.00    -0.329 C  
HETATM   10  C   UNL     1     -12.390  14.210  66.491  1.00  0.00    -0.405 C  
HETATM   11  C   UNL     1      -9.880  14.508  66.663  1.00  0.00    -0.282 C  
HETATM   12  C   UNL     1      -8.627  15.387  66.571  1.00  0.00    -0.294 C  
BRANCH  11  13
HETATM   13  C   UNL     1      -9.757  13.141  67.209  1.00  0.00    -0.230 C  
HETATM   14  O   UNL     1     -10.137  12.822  68.327  1.00  0.00    -0.229 OA 
BRANCH  13  15
HETATM   15  O   UNL     1      -9.151  12.310  66.320  1.00  0.00    -0.206 OA 
BRANCH  15  16
HETATM   16  C   UNL     1      -9.822  11.040  66.187  1.00  0.00    -0.225 C  
BRANCH  16  17
HETATM   17  C   UNL     1      -9.410  10.122  67.349  1.00  0.00    -0.148 C  
BRANCH  17  18
HETATM   18  N   UNL     1     -10.185   8.879  67.509  1.00  0.00    -0.230 NA 
HETATM   19  C   UNL     1      -8.695   7.287  66.174  1.00  0.00    -0.155 C  
HETATM   20  C   UNL     1     -10.074   7.980  66.339  1.00  0.00    -0.104 C  
HETATM   21  N   UNL     1      -8.263   6.508  67.362  1.00  0.00    -0.120 NA 
HETATM   22  C   UNL     1      -9.698   8.155  68.711  1.00  0.00    -0.153 C  
HETATM   23  C   UNL     1      -8.337   7.429  68.527  1.00  0.00    -0.126 C  
BRANCH  21  24
HETATM   24  C   UNL     1      -9.093   5.279  67.555  1.00  0.00    -0.109 C  
BRANCH  24  25
HETATM   25  C   UNL     1      -9.324   4.490  66.254  1.00  0.00    -0.151 A  
HETATM   26  C   UNL     1     -10.591   4.519  65.637  1.00  0.00    -0.231 A  
HETATM   27  C   UNL     1      -8.302   3.770  65.616  1.00  0.00    -0.105 A  
HETATM   28  C   UNL     1     -10.824   3.846  64.436  1.00  0.00    -0.149 A  
HETATM   29  C   UNL     1      -9.802   3.117  63.834  1.00  0.00    -0.155 A  
HETATM   30  C   UNL     1      -8.542   3.078  64.425  1.00  0.00    -0.094 A  
ENDBRANCH  24  25
BRANCH  24  31
HETATM   31  C   UNL     1      -8.568   4.394  68.696  1.00  0.00    -0.108 A  
HETATM   32  C   UNL     1      -7.552   2.574  70.584  1.00  0.00    -0.036 A  
HETATM   33  C   UNL     1      -8.926   2.772  70.477  1.00  0.00    -0.165 A  
HETATM   34  C   UNL     1      -7.182   4.197  68.834  1.00  0.00    -0.055 A  
HETATM   35  C   UNL     1      -9.432   3.672  69.536  1.00  0.00    -0.246 A  
HETATM   36  C   UNL     1      -6.680   3.286  69.765  1.00  0.00    -0.034 A  
ENDBRANCH  24  31
ENDBRANCH  21  24
ENDBRANCH  17  18
ENDBRANCH  16  17
ENDBRANCH  15  16
ENDBRANCH  13  15
ENDBRANCH  11  13
BRANCH  12  37
HETATM   37  C   UNL     1      -7.704  15.143  67.777  1.00  0.00    -0.164 A  
HETATM   38  C   UNL     1      -6.658  15.910  69.833  1.00  0.00    -0.086 A  
HETATM   39  O   UNL     1      -6.239  11.351  68.618  1.00  0.00    -0.046 OA 
HETATM   40  C   UNL     1      -7.216  13.845  68.029  1.00  0.00    -0.141 A  
HETATM   41  O   UNL     1      -5.298  12.054  70.471  1.00  0.00    -0.112 OA 
HETATM   42  C   UNL     1      -6.459  13.593  69.180  1.00  0.00    -0.107 A  
HETATM   43  C   UNL     1      -6.187  14.621  70.090  1.00  0.00    -0.165 A  
HETATM   44  N   UNL     1      -5.965  12.234  69.442  1.00  0.00    -0.090 N  
HETATM   45  C   UNL     1      -7.401  16.172  68.681  1.00  0.00    -0.175 A  
ENDBRANCH  12  37
ENDBRANCH   3   5
ENDBRANCH   2   3
TORSDOF 11
ENDMDL
MODEL      154
REMARK 921   NORMALIZED FREE ENERGY PREDICTED BY IDOCK:   -2.74 KCAL/MOL
REMARK 922        TOTAL FREE ENERGY PREDICTED BY IDOCK:   -6.36 KCAL/MOL
REMARK 923 INTER-LIGAND FREE ENERGY PREDICTED BY IDOCK:   -9.87 KCAL/MOL
REMARK 924 INTRA-LIGAND FREE ENERGY PREDICTED BY IDOCK:    3.51 KCAL/MOL
REMARK 927      BINDING AFFINITY PREDICTED BY RF-SCORE:    0.00 PKD
ROOT
HETATM    1  C   UNL     1      -9.909  18.120  68.066  1.00  0.00    -0.325 C  
HETATM    2  O   UNL     1     -10.767  17.826  66.961  1.00  0.00    -0.301 OA 
ENDROOT
BRANCH   2   3
HETATM    3  C   UNL     1     -10.186  17.036  66.022  1.00  0.00    -0.325 C  
HETATM    4  O   UNL     1     -10.499  17.012  64.839  1.00  0.00    -0.548 OA 
BRANCH   3   5
HETATM    5  C   UNL     1      -9.143  16.172  66.636  1.00  0.00    -0.282 C  
HETATM    6  C   UNL     1      -7.825  16.495  66.561  1.00  0.00    -0.303 C  
HETATM    7  N   UNL     1      -6.879  15.640  67.107  1.00  0.00    -0.258 NA 
HETATM    8  C   UNL     1      -7.225  17.718  65.917  1.00  0.00    -0.260 C  
HETATM    9  C   UNL     1      -7.142  14.364  67.557  1.00  0.00    -0.175 C  
HETATM   10  C   UNL     1      -5.937  13.501  67.853  1.00  0.00    -0.143 C  
HETATM   11  C   UNL     1      -8.424  13.954  67.682  1.00  0.00    -0.193 C  
HETATM   12  C   UNL     1      -9.596  14.878  67.329  1.00  0.00    -0.216 C  
BRANCH  11  13
HETATM   13  C   UNL     1      -8.702  12.541  68.016  1.00  0.00    -0.186 C  
HETATM   14  O   UNL     1      -9.526  12.192  68.849  1.00  0.00    -0.008 OA 
BRANCH  13  15
HETATM   15  O   UNL     1      -7.907  11.703  67.300  1.00  0.00    -0.140 OA 
BRANCH  15  16
HETATM   16  C   UNL     1      -8.531  10.431  67.026  1.00  0.00    -0.127 C  
BRANCH  16  17
HETATM   17  C   UNL     1      -7.839   9.336  67.854  1.00  0.00    -0.092 C  
BRANCH  17  18
HETATM   18  N   UNL     1      -8.716   8.317  68.457  1.00  0.00    -0.133 NA 
HETATM   19  C   UNL     1      -7.043   7.217  70.046  1.00  0.00    -0.066 C  
HETATM   20  C   UNL     1      -7.991   7.081  68.826  1.00  0.00    -0.120 C  
HETATM   21  N   UNL     1      -7.709   7.712  71.278  1.00  0.00    -0.083 NA 
HETATM   22  C   UNL     1      -9.344   8.880  69.681  1.00  0.00    -0.163 C  
HETATM   23  C   UNL     1      -8.400   8.976  70.911  1.00  0.00    -0.197 C  
BRANCH  21  24
HETATM   24  C   UNL     1      -8.645   6.696  71.852  1.00  0.00    -0.124 C  
BRANCH  24  25
HETATM   25  C   UNL     1     -10.126   7.098  71.731  1.00  0.00    -0.197 A  
HETATM   26  C   UNL     1     -10.662   8.054  72.616  1.00  0.00    -0.426 A  
HETATM   27  C   UNL     1     -10.969   6.583  70.733  1.00  0.00    -0.328 A  
HETATM   28  C   UNL     1     -11.992   8.470  72.509  1.00  0.00    -0.401 A  
HETATM   29  C   UNL     1     -12.817   7.928  71.528  1.00  0.00    -0.340 A  
HETATM   30  C   UNL     1     -12.305   6.983  70.642  1.00  0.00    -0.239 A  
ENDBRANCH  24  25
BRANCH  24  31
HETATM   31  C   UNL     1      -8.371   5.283  71.316  1.00  0.00    -0.123 A  
HETATM   32  C   UNL     1      -7.984   2.595  70.582  1.00  0.00    -0.049 A  
HETATM   33  C   UNL     1      -6.905   3.362  71.013  1.00  0.00    -0.032 A  
HETATM   34  C   UNL     1      -9.446   4.498  70.857  1.00  0.00    -0.236 A  
HETATM   35  C   UNL     1      -7.097   4.695  71.382  1.00  0.00    -0.051 A  
HETATM   36  C   UNL     1      -9.253   3.162  70.502  1.00  0.00    -0.210 A  
ENDBRANCH  24  31
ENDBRANCH  21  24
ENDBRANCH  17  18
ENDBRANCH  16  17
ENDBRANCH  15  16
ENDBRANCH  13  15
ENDBRANCH  11  13
BRANCH  12  37
HETATM   37  C   UNL     1     -10.664  14.116  66.527  1.00  0.00    -0.289 A  
HETATM   38  C   UNL     1     -12.993  13.677  65.987  1.00  0.00    -0.064 A  
HETATM   39  O   UNL     1      -9.616  11.702  63.317  1.00  0.00    -0.345 OA 
HETATM   40  C   UNL     1     -10.273  13.297  65.449  1.00  0.00    -0.304 A  
HETATM   41  O   UNL     1     -11.721  11.310  62.839  1.00  0.00     0.245 OA 
HETATM   42  C   UNL     1     -11.246  12.681  64.651  1.00  0.00    -0.310 A  
HETATM   43  C   UNL     1     -12.607  12.876  64.910  1.00  0.00    -0.525 A  
HETATM   44  N   UNL     1     -10.830  11.838  63.520  1.00  0.00    -0.413 N  
HETATM   45  C   UNL     1     -12.031  14.283  66.796  1.00  0.00    -0.462 A  
ENDBRANCH  12  37
ENDBRANCH   3   5
ENDBRANCH   2   3
TORSDOF 11
ENDMDL
MODEL      155
REMARK 921   NORMALIZED FREE ENERGY PREDICTED BY IDOCK:   -2.73 KCAL/MOL
REMARK 922        TOTAL FREE ENERGY PREDICTED BY IDOCK:   -6.35 KCAL/MOL
REMARK 923 INTER-LIGAND FREE ENERGY PREDICTED BY IDOCK:   -6.76 KCAL/MOL
REMARK 924 INTRA-LIGAND FREE ENERGY PREDICTED BY IDOCK:    0.40 KCAL/MOL
REMARK 927      BINDING AFFINITY PREDICTED BY RF-SCORE:    0.00 PKD
ROOT
HETATM    1  C   UNL     1      -6.799   2.291  71.994  1.00  0.00    -0.018 C  
HETATM    2  O   UNL     1      -7.671   2.819  70.991  1.00  0.00    -0.039 OA 
ENDROOT
BRANCH   2   3
HETATM    3  C   UNL     1      -8.564   3.720  71.474  1.00  0.00    -0.085 C  
HETATM    4  O   UNL     1      -9.779   3.581  71.449  1.00  0.00    -0.160 OA 
BRANCH   3   5
HETATM    5  C   UNL     1      -7.864   4.922  72.000  1.00  0.00    -0.108 C  
HETATM    6  C   UNL     1      -7.869   5.217  73.327  1.00  0.00    -0.104 C  
HETATM    7  N   UNL     1      -7.243   6.372  73.774  1.00  0.00    -0.082 NA 
HETATM    8  C   UNL     1      -8.511   4.418  74.433  1.00  0.00    -0.093 C  
HETATM    9  C   UNL     1      -6.773   7.376  72.955  1.00  0.00    -0.064 C  
HETATM   10  C   UNL     1      -6.381   8.664  73.640  1.00  0.00    -0.091 C  
HETATM   11  C   UNL     1      -6.714   7.172  71.619  1.00  0.00    -0.055 C  
HETATM   12  C   UNL     1      -7.163   5.847  70.994  1.00  0.00    -0.074 C  
BRANCH  11  13
HETATM   13  C   UNL     1      -6.357   8.298  70.732  1.00  0.00    -0.036 C  
HETATM   14  O   UNL     1      -5.281   8.393  70.159  1.00  0.00    -0.023 OA 
BRANCH  13  15
HETATM   15  O   UNL     1      -7.363   9.210  70.667  1.00  0.00    -0.084 OA 
BRANCH  15  16
HETATM   16  C   UNL     1      -6.983  10.421  69.982  1.00  0.00    -0.157 C  
BRANCH  16  17
HETATM   17  C   UNL     1      -8.226  11.048  69.329  1.00  0.00     0.021 C  
BRANCH  17  18
HETATM   18  N   UNL     1      -8.048  11.592  67.972  1.00  0.00    -0.131 NA 
HETATM   19  C   UNL     1      -9.917  13.337  67.976  1.00  0.00    -0.233 C  
HETATM   20  C   UNL     1      -9.321  12.043  67.363  1.00  0.00    -0.178 C  
HETATM   21  N   UNL     1      -8.993  14.499  67.956  1.00  0.00    -0.174 NA 
HETATM   22  C   UNL     1      -7.117  12.748  68.029  1.00  0.00    -0.111 C  
HETATM   23  C   UNL     1      -7.732  14.052  68.606  1.00  0.00    -0.135 C  
BRANCH  21  24
HETATM   24  C   UNL     1      -8.768  15.008  66.568  1.00  0.00    -0.208 C  
BRANCH  24  25
HETATM   25  C   UNL     1      -9.974  14.791  65.638  1.00  0.00    -0.390 A  
HETATM   26  C   UNL     1     -10.878  15.849  65.412  1.00  0.00    -0.361 A  
HETATM   27  C   UNL     1     -10.193  13.585  64.954  1.00  0.00    -0.351 A  
HETATM   28  C   UNL     1     -11.962  15.698  64.543  1.00  0.00    -0.120 A  
HETATM   29  C   UNL     1     -12.174  14.485  63.895  1.00  0.00    -0.126 A  
HETATM   30  C   UNL     1     -11.292  13.428  64.103  1.00  0.00    -0.398 A  
ENDBRANCH  24  25
BRANCH  24  31
HETATM   31  C   UNL     1      -8.266  16.460  66.555  1.00  0.00    -0.341 A  
HETATM   32  C   UNL     1      -7.423  19.127  66.252  1.00  0.00    -0.286 A  
HETATM   33  C   UNL     1      -6.484  18.100  66.296  1.00  0.00    -0.255 A  
HETATM   34  C   UNL     1      -9.199  17.513  66.530  1.00  0.00    -0.286 A  
HETATM   35  C   UNL     1      -6.901  16.776  66.442  1.00  0.00    -0.105 A  
HETATM   36  C   UNL     1      -8.780  18.835  66.371  1.00  0.00    -0.294 A  
ENDBRANCH  24  31
ENDBRANCH  21  24
ENDBRANCH  17  18
ENDBRANCH  16  17
ENDBRANCH  15  16
ENDBRANCH  13  15
ENDBRANCH  11  13
BRANCH  12  37
HETATM   37  C   UNL     1      -8.005   6.100  69.733  1.00  0.00    -0.110 A  
HETATM   38  C   UNL     1     -10.056   6.864  68.672  1.00  0.00    -0.164 A  
HETATM   39  O   UNL     1      -6.329   5.810  65.946  1.00  0.00    -0.036 OA 
HETATM   40  C   UNL     1      -7.407   5.984  68.461  1.00  0.00    -0.085 A  
HETATM   41  O   UNL     1      -8.184   6.497  64.999  1.00  0.00    -0.137 OA 
HETATM   42  C   UNL     1      -8.138   6.311  67.312  1.00  0.00    -0.109 A  
HETATM   43  C   UNL     1      -9.459   6.761  67.414  1.00  0.00    -0.150 A  
HETATM   44  N   UNL     1      -7.503   6.199  65.991  1.00  0.00    -0.080 N  
HETATM   45  C   UNL     1      -9.339   6.525  69.822  1.00  0.00    -0.149 A  
ENDBRANCH  12  37
ENDBRANCH   3   5
ENDBRANCH   2   3
TORSDOF 11
ENDMDL
MODEL      156
REMARK 921   NORMALIZED FREE ENERGY PREDICTED BY IDOCK:   -2.64 KCAL/MOL
REMARK 922        TOTAL FREE ENERGY PREDICTED BY IDOCK:   -6.20 KCAL/MOL
REMARK 923 INTER-LIGAND FREE ENERGY PREDICTED BY IDOCK:   -7.92 KCAL/MOL
REMARK 924 INTRA-LIGAND FREE ENERGY PREDICTED BY IDOCK:    1.72 KCAL/MOL
REMARK 927      BINDING AFFINITY PREDICTED BY RF-SCORE:    0.00 PKD
ROOT
HETATM    1  C   UNL     1     -11.705  17.297  67.957  1.00  0.00     1.004 C  
HETATM    2  O   UNL     1     -10.752  17.263  69.023  1.00  0.00    -0.292 OA 
ENDROOT
BRANCH   2   3
HETATM    3  C   UNL     1     -10.963  16.250  69.901  1.00  0.00    -0.365 C  
HETATM    4  O   UNL     1     -10.924  16.364  71.119  1.00  0.00    -0.034 OA 
BRANCH   3   5
HETATM    5  C   UNL     1     -11.206  14.973  69.180  1.00  0.00    -0.293 C  
HETATM    6  C   UNL     1     -12.098  14.059  69.645  1.00  0.00    -0.355 C  
HETATM    7  N   UNL     1     -12.263  12.859  68.968  1.00  0.00    -0.124 NA 
HETATM    8  C   UNL     1     -12.967  14.179  70.870  1.00  0.00    -0.374 C  
HETATM    9  C   UNL     1     -11.445  12.411  67.954  1.00  0.00    -0.328 C  
HETATM   10  C   UNL     1     -11.623  10.968  67.543  1.00  0.00    -0.166 C  
HETATM   11  C   UNL     1     -10.534  13.252  67.414  1.00  0.00    -0.243 C  
HETATM   12  C   UNL     1     -10.389  14.696  67.909  1.00  0.00    -0.237 C  
BRANCH  11  13
HETATM   13  C   UNL     1      -9.557  12.728  66.437  1.00  0.00    -0.254 C  
HETATM   14  O   UNL     1      -9.818  12.531  65.259  1.00  0.00    -0.235 OA 
BRANCH  13  15
HETATM   15  O   UNL     1      -8.359  12.477  67.028  1.00  0.00    -0.180 OA 
BRANCH  15  16
HETATM   16  C   UNL     1      -8.378  11.301  67.864  1.00  0.00    -0.131 C  
BRANCH  16  17
HETATM   17  C   UNL     1      -8.110  10.058  67.001  1.00  0.00    -0.117 C  
BRANCH  17  18
HETATM   18  N   UNL     1      -9.163   9.029  66.988  1.00  0.00    -0.132 NA 
HETATM   19  C   UNL     1      -7.707   6.940  67.221  1.00  0.00    -0.109 C  
HETATM   20  C   UNL     1      -8.717   7.758  66.374  1.00  0.00    -0.150 C  
HETATM   21  N   UNL     1      -8.186   6.615  68.588  1.00  0.00    -0.119 NA 
HETATM   22  C   UNL     1      -9.590   8.754  68.384  1.00  0.00    -0.147 C  
HETATM   23  C   UNL     1      -8.593   7.900  69.215  1.00  0.00    -0.138 C  
BRANCH  21  24
HETATM   24  C   UNL     1      -9.298   5.615  68.566  1.00  0.00    -0.123 C  
BRANCH  24  25
HETATM   25  C   UNL     1      -8.829   4.191  68.220  1.00  0.00    -0.133 A  
HETATM   26  C   UNL     1      -9.262   3.587  67.023  1.00  0.00    -0.213 A  
HETATM   27  C   UNL     1      -7.937   3.472  69.032  1.00  0.00    -0.063 A  
HETATM   28  C   UNL     1      -8.825   2.311  66.659  1.00  0.00    -0.138 A  
HETATM   29  C   UNL     1      -7.960   1.606  67.491  1.00  0.00    -0.060 A  
HETATM   30  C   UNL     1      -7.519   2.185  68.678  1.00  0.00    -0.043 A  
ENDBRANCH  24  25
BRANCH  24  31
HETATM   31  C   UNL     1     -10.148   5.662  69.845  1.00  0.00    -0.289 A  
HETATM   32  C   UNL     1     -11.631   6.027  72.207  1.00  0.00    -0.359 A  
HETATM   33  C   UNL     1     -10.405   5.370  72.249  1.00  0.00    -0.260 A  
HETATM   34  C   UNL     1     -11.400   6.305  69.819  1.00  0.00    -0.506 A  
HETATM   35  C   UNL     1      -9.665   5.192  71.078  1.00  0.00    -0.245 A  
HETATM   36  C   UNL     1     -12.130   6.493  70.993  1.00  0.00    -0.304 A  
ENDBRANCH  24  31
ENDBRANCH  21  24
ENDBRANCH  17  18
ENDBRANCH  16  17
ENDBRANCH  15  16
ENDBRANCH  13  15
ENDBRANCH  11  13
BRANCH  12  37
HETATM   37  C   UNL     1      -8.905  15.070  68.062  1.00  0.00    -0.165 A  
HETATM   38  C   UNL     1      -6.725  14.716  69.079  1.00  0.00    -0.103 A  
HETATM   39  O   UNL     1      -7.094  17.747  65.459  1.00  0.00    -0.446 OA 
HETATM   40  C   UNL     1      -8.324  15.990  67.167  1.00  0.00    -0.228 A  
HETATM   41  O   UNL     1      -5.132  17.423  66.384  1.00  0.00    -0.157 OA 
HETATM   42  C   UNL     1      -6.951  16.260  67.235  1.00  0.00    -0.192 A  
HETATM   43  C   UNL     1      -6.146  15.617  68.183  1.00  0.00    -0.137 A  
HETATM   44  N   UNL     1      -6.350  17.211  66.289  1.00  0.00    -0.190 N  
HETATM   45  C   UNL     1      -8.095  14.453  69.027  1.00  0.00    -0.047 A  
ENDBRANCH  12  37
ENDBRANCH   3   5
ENDBRANCH   2   3
TORSDOF 11
ENDMDL
MODEL      157
REMARK 921   NORMALIZED FREE ENERGY PREDICTED BY IDOCK:   -2.61 KCAL/MOL
REMARK 922        TOTAL FREE ENERGY PREDICTED BY IDOCK:   -6.15 KCAL/MOL
REMARK 923 INTER-LIGAND FREE ENERGY PREDICTED BY IDOCK:   -8.13 KCAL/MOL
REMARK 924 INTRA-LIGAND FREE ENERGY PREDICTED BY IDOCK:    1.98 KCAL/MOL
REMARK 927      BINDING AFFINITY PREDICTED BY RF-SCORE:    0.00 PKD
ROOT
HETATM    1  C   UNL     1      -9.353  16.638  68.815  1.00  0.00    -0.256 C  
HETATM    2  O   UNL     1      -9.552  15.296  68.363  1.00  0.00    -0.198 OA 
ENDROOT
BRANCH   2   3
HETATM    3  C   UNL     1      -9.562  15.179  67.011  1.00  0.00    -0.226 C  
HETATM    4  O   UNL     1      -9.528  16.119  66.229  1.00  0.00    -0.268 OA 
BRANCH   3   5
HETATM    5  C   UNL     1      -9.663  13.751  66.609  1.00  0.00    -0.293 C  
HETATM    6  C   UNL     1     -10.869  13.144  66.457  1.00  0.00    -0.280 C  
HETATM    7  N   UNL     1     -10.921  11.797  66.126  1.00  0.00    -0.299 NA 
HETATM    8  C   UNL     1     -12.229  13.772  66.623  1.00  0.00    -0.454 C  
HETATM    9  C   UNL     1      -9.836  10.947  66.129  1.00  0.00    -0.222 C  
HETATM   10  C   UNL     1     -10.147   9.473  66.013  1.00  0.00    -0.319 C  
HETATM   11  C   UNL     1      -8.591  11.457  66.260  1.00  0.00    -0.156 C  
HETATM   12  C   UNL     1      -8.358  12.965  66.408  1.00  0.00     0.427 C  
BRANCH  11  13
HETATM   13  C   UNL     1      -7.446  10.536  66.417  1.00  0.00    -0.133 C  
HETATM   14  O   UNL     1      -6.288  10.911  66.534  1.00  0.00    -0.102 OA 
BRANCH  13  15
HETATM   15  O   UNL     1      -7.852   9.240  66.388  1.00  0.00    -0.102 OA 
BRANCH  15  16
HETATM   16  C   UNL     1      -6.820   8.317  66.794  1.00  0.00    -0.069 C  
BRANCH  16  17
HETATM   17  C   UNL     1      -7.012   7.959  68.277  1.00  0.00    -0.073 C  
BRANCH  17  18
HETATM   18  N   UNL     1      -8.086   6.998  68.584  1.00  0.00    -0.120 NA 
HETATM   19  C   UNL     1      -8.184   7.283  71.123  1.00  0.00    -0.107 C  
HETATM   20  C   UNL     1      -7.920   6.356  69.908  1.00  0.00    -0.116 C  
HETATM   21  N   UNL     1      -9.524   7.923  71.118  1.00  0.00    -0.157 NA 
HETATM   22  C   UNL     1      -9.392   7.706  68.563  1.00  0.00    -0.147 C  
HETATM   23  C   UNL     1      -9.668   8.601  69.802  1.00  0.00    -0.176 C  
BRANCH  21  24
HETATM   24  C   UNL     1     -10.615   6.932  71.369  1.00  0.00    -0.219 C  
BRANCH  24  25
HETATM   25  C   UNL     1     -10.192   5.785  72.303  1.00  0.00    -0.233 A  
HETATM   26  C   UNL     1     -10.532   4.457  71.974  1.00  0.00    -0.128 A  
HETATM   27  C   UNL     1      -9.429   5.997  73.463  1.00  0.00    -0.139 A  
HETATM   28  C   UNL     1     -10.131   3.389  72.779  1.00  0.00    -0.232 A  
HETATM   29  C   UNL     1      -9.395   3.625  73.937  1.00  0.00    -0.107 A  
HETATM   30  C   UNL     1      -9.047   4.928  74.280  1.00  0.00    -0.111 A  
ENDBRANCH  24  25
BRANCH  24  31
HETATM   31  C   UNL     1     -11.921   7.606  71.817  1.00  0.00    -0.333 A  
HETATM   32  C   UNL     1     -14.332   8.946  72.369  1.00  0.00    -0.385 A  
HETATM   33  C   UNL     1     -13.126   9.465  72.830  1.00  0.00    -0.078 A  
HETATM   34  C   UNL     1     -13.153   7.085  71.379  1.00  0.00    -0.375 A  
HETATM   35  C   UNL     1     -11.928   8.803  72.552  1.00  0.00    -0.301 A  
HETATM   36  C   UNL     1     -14.347   7.756  71.645  1.00  0.00    -0.607 A  
ENDBRANCH  24  31
ENDBRANCH  21  24
ENDBRANCH  17  18
ENDBRANCH  16  17
ENDBRANCH  15  16
ENDBRANCH  13  15
ENDBRANCH  11  13
BRANCH  12  37
HETATM   37  C   UNL     1      -7.318  13.248  67.503  1.00  0.00    -0.159 A  
HETATM   38  C   UNL     1      -5.687  14.718  68.548  1.00  0.00    -0.099 A  
HETATM   39  O   UNL     1      -6.892  10.706  70.757  1.00  0.00    -0.267 OA 
HETATM   40  C   UNL     1      -7.192  12.359  68.590  1.00  0.00    -0.104 A  
HETATM   41  O   UNL     1      -5.420  12.038  71.690  1.00  0.00    -0.377 OA 
HETATM   42  C   UNL     1      -6.319  12.661  69.643  1.00  0.00    -0.095 A  
HETATM   43  C   UNL     1      -5.572  13.844  69.631  1.00  0.00    -0.092 A  
HETATM   44  N   UNL     1      -6.203  11.734  70.779  1.00  0.00     0.250 N  
HETATM   45  C   UNL     1      -6.543  14.417  67.487  1.00  0.00    -0.101 A  
ENDBRANCH  12  37
ENDBRANCH   3   5
ENDBRANCH   2   3
TORSDOF 11
ENDMDL
MODEL      158
REMARK 921   NORMALIZED FREE ENERGY PREDICTED BY IDOCK:   -2.60 KCAL/MOL
REMARK 922        TOTAL FREE ENERGY PREDICTED BY IDOCK:   -6.14 KCAL/MOL
REMARK 923 INTER-LIGAND FREE ENERGY PREDICTED BY IDOCK:   -5.96 KCAL/MOL
REMARK 924 INTRA-LIGAND FREE ENERGY PREDICTED BY IDOCK:   -0.18 KCAL/MOL
REMARK 927      BINDING AFFINITY PREDICTED BY RF-SCORE:    0.00 PKD
ROOT
HETATM    1  C   UNL     1     -12.238  15.744  65.655  1.00  0.00     1.169 C  
HETATM    2  O   UNL     1     -10.904  16.212  65.867  1.00  0.00    -0.277 OA 
ENDROOT
BRANCH   2   3
HETATM    3  C   UNL     1     -10.601  16.400  67.177  1.00  0.00    -0.276 C  
HETATM    4  O   UNL     1     -11.354  16.899  68.002  1.00  0.00    -0.190 OA 
BRANCH   3   5
HETATM    5  C   UNL     1      -9.212  15.955  67.463  1.00  0.00    -0.210 C  
HETATM    6  C   UNL     1      -8.140  16.599  66.930  1.00  0.00    -0.214 C  
HETATM    7  N   UNL     1      -6.861  16.125  67.183  1.00  0.00    -0.200 NA 
HETATM    8  C   UNL     1      -8.162  17.817  66.042  1.00  0.00    -0.109 C  
HETATM    9  C   UNL     1      -6.577  14.915  67.779  1.00  0.00    -0.168 C  
HETATM   10  C   UNL     1      -5.137  14.463  67.711  1.00  0.00     0.017 C  
HETATM   11  C   UNL     1      -7.575  14.205  68.352  1.00  0.00    -0.130 C  
HETATM   12  C   UNL     1      -9.020  14.716  68.351  1.00  0.00    -0.180 C  
BRANCH  11  13
HETATM   13  C   UNL     1      -7.296  12.843  68.853  1.00  0.00    -0.014 C  
HETATM   14  O   UNL     1      -6.824  12.611  69.957  1.00  0.00     0.214 OA 
BRANCH  13  15
HETATM   15  O   UNL     1      -7.608  11.905  67.921  1.00  0.00    -0.111 OA 
BRANCH  15  16
HETATM   16  C   UNL     1      -7.982  10.637  68.499  1.00  0.00    -0.122 C  
BRANCH  16  17
HETATM   17  C   UNL     1      -7.710   9.514  67.485  1.00  0.00    -0.095 C  
BRANCH  17  18
HETATM   18  N   UNL     1      -8.731   8.457  67.389  1.00  0.00    -0.134 NA 
HETATM   19  C   UNL     1      -7.504   6.582  68.618  1.00  0.00    -0.088 C  
HETATM   20  C   UNL     1      -8.146   7.100  67.305  1.00  0.00    -0.115 C  
HETATM   21  N   UNL     1      -8.423   6.585  69.785  1.00  0.00    -0.130 NA 
HETATM   22  C   UNL     1      -9.609   8.520  68.585  1.00  0.00    -0.149 C  
HETATM   23  C   UNL     1      -8.975   7.962  69.889  1.00  0.00    -0.146 C  
BRANCH  21  24
HETATM   24  C   UNL     1      -9.495   5.551  69.653  1.00  0.00    -0.138 C  
BRANCH  24  25
HETATM   25  C   UNL     1      -9.093   4.370  68.752  1.00  0.00    -0.173 A  
HETATM   26  C   UNL     1      -8.021   3.537  69.133  1.00  0.00    -0.060 A  
HETATM   27  C   UNL     1      -9.785   4.048  67.574  1.00  0.00    -0.177 A  
HETATM   28  C   UNL     1      -7.654   2.434  68.358  1.00  0.00    -0.054 A  
HETATM   29  C   UNL     1      -8.339   2.149  67.180  1.00  0.00    -0.088 A  
HETATM   30  C   UNL     1      -9.403   2.957  66.788  1.00  0.00    -0.093 A  
ENDBRANCH  24  25
BRANCH  24  31
HETATM   31  C   UNL     1     -10.035   5.095  71.017  1.00  0.00    -0.274 A  
HETATM   32  C   UNL     1     -11.242   4.136  73.370  1.00  0.00    -0.339 A  
HETATM   33  C   UNL     1     -11.362   5.479  73.023  1.00  0.00    -0.323 A  
HETATM   34  C   UNL     1      -9.907   3.746  71.395  1.00  0.00    -0.226 A  
HETATM   35  C   UNL     1     -10.768   5.955  71.853  1.00  0.00    -0.290 A  
HETATM   36  C   UNL     1     -10.514   3.270  72.558  1.00  0.00    -0.135 A  
ENDBRANCH  24  31
ENDBRANCH  21  24
ENDBRANCH  17  18
ENDBRANCH  16  17
ENDBRANCH  15  16
ENDBRANCH  13  15
ENDBRANCH  11  13
BRANCH  12  37
HETATM   37  C   UNL     1      -9.996  13.579  68.005  1.00  0.00    -0.248 A  
HETATM   38  C   UNL     1     -10.869  11.940  66.436  1.00  0.00    -0.318 A  
HETATM   39  O   UNL     1     -12.330  11.797  70.939  1.00  0.00    -0.375 OA 
HETATM   40  C   UNL     1     -10.781  13.003  69.024  1.00  0.00    -0.138 A  
HETATM   41  O   UNL     1     -13.113  10.324  69.515  1.00  0.00     0.222 OA 
HETATM   42  C   UNL     1     -11.598  11.901  68.738  1.00  0.00    -0.309 A  
HETATM   43  C   UNL     1     -11.636  11.360  67.448  1.00  0.00    -0.266 A  
HETATM   44  N   UNL     1     -12.404  11.297  69.809  1.00  0.00    -0.250 N  
HETATM   45  C   UNL     1     -10.064  13.048  66.709  1.00  0.00    -0.247 A  
ENDBRANCH  12  37
ENDBRANCH   3   5
ENDBRANCH   2   3
TORSDOF 11
ENDMDL
MODEL      159
REMARK 921   NORMALIZED FREE ENERGY PREDICTED BY IDOCK:   -2.54 KCAL/MOL
REMARK 922        TOTAL FREE ENERGY PREDICTED BY IDOCK:   -6.04 KCAL/MOL
REMARK 923 INTER-LIGAND FREE ENERGY PREDICTED BY IDOCK:   -6.85 KCAL/MOL
REMARK 924 INTRA-LIGAND FREE ENERGY PREDICTED BY IDOCK:    0.81 KCAL/MOL
REMARK 927      BINDING AFFINITY PREDICTED BY RF-SCORE:    0.00 PKD
ROOT
HETATM    1  C   UNL     1     -10.111   8.745  66.111  1.00  0.00    -0.084 C  
HETATM    2  O   UNL     1      -9.285   9.368  65.123  1.00  0.00    -0.229 OA 
ENDROOT
BRANCH   2   3
HETATM    3  C   UNL     1      -8.502  10.358  65.622  1.00  0.00    -0.165 C  
HETATM    4  O   UNL     1      -8.527  11.523  65.249  1.00  0.00     0.169 OA 
BRANCH   3   5
HETATM    5  C   UNL     1      -7.577   9.823  66.656  1.00  0.00    -0.098 C  
HETATM    6  C   UNL     1      -6.777   8.754  66.404  1.00  0.00    -0.070 C  
HETATM    7  N   UNL     1      -5.962   8.256  67.410  1.00  0.00    -0.046 NA 
HETATM    8  C   UNL     1      -6.663   7.991  65.109  1.00  0.00    -0.051 C  
HETATM    9  C   UNL     1      -6.033   8.631  68.734  1.00  0.00    -0.044 C  
HETATM   10  C   UNL     1      -5.257   7.776  69.709  1.00  0.00    -0.023 C  
HETATM   11  C   UNL     1      -6.792   9.693  69.085  1.00  0.00    -0.050 C  
HETATM   12  C   UNL     1      -7.580  10.491  68.040  1.00  0.00    -0.091 C  
BRANCH  11  13
HETATM   13  C   UNL     1      -6.990   9.998  70.517  1.00  0.00    -0.089 C  
HETATM   14  O   UNL     1      -7.191   9.144  71.369  1.00  0.00    -0.242 OA 
BRANCH  13  15
HETATM   15  O   UNL     1      -6.945  11.337  70.745  1.00  0.00     0.409 OA 
BRANCH  15  16
HETATM   16  C   UNL     1      -5.604  11.869  70.713  1.00  0.00    -0.118 C  
BRANCH  16  17
HETATM   17  C   UNL     1      -5.663  13.379  70.428  1.00  0.00    -0.164 C  
BRANCH  17  18
HETATM   18  N   UNL     1      -6.042  13.772  69.059  1.00  0.00    -0.086 NA 
HETATM   19  C   UNL     1      -7.707  15.633  69.608  1.00  0.00    -0.107 C  
HETATM   20  C   UNL     1      -7.441  14.247  68.965  1.00  0.00    -0.102 C  
HETATM   21  N   UNL     1      -6.844  16.721  69.081  1.00  0.00    -0.218 NA 
HETATM   22  C   UNL     1      -5.141  14.861  68.601  1.00  0.00    -0.095 C  
HETATM   23  C   UNL     1      -5.439  16.256  69.217  1.00  0.00    -0.116 C  
BRANCH  21  24
HETATM   24  C   UNL     1      -7.192  17.074  67.670  1.00  0.00    -0.153 C  
BRANCH  24  25
HETATM   25  C   UNL     1      -8.659  16.778  67.313  1.00  0.00    -0.208 A  
HETATM   26  C   UNL     1      -9.662  16.950  68.288  1.00  0.00    -0.256 A  
HETATM   27  C   UNL     1      -9.058  16.383  66.026  1.00  0.00    -0.317 A  
HETATM   28  C   UNL     1     -11.008  16.727  67.987  1.00  0.00    -0.296 A  
HETATM   29  C   UNL     1     -11.378  16.313  66.711  1.00  0.00     0.371 A  
HETATM   30  C   UNL     1     -10.403  16.139  65.732  1.00  0.00    -0.398 A  
ENDBRANCH  24  25
BRANCH  24  31
HETATM   31  C   UNL     1      -6.775  18.508  67.309  1.00  0.00    -0.208 A  
HETATM   32  C   UNL     1      -6.200  21.117  66.429  1.00  0.00    -0.333 A  
HETATM   33  C   UNL     1      -5.312  20.080  66.159  1.00  0.00    -0.173 A  
HETATM   34  C   UNL     1      -7.649  19.574  67.591  1.00  0.00    -0.301 A  
HETATM   35  C   UNL     1      -5.598  18.783  66.591  1.00  0.00    -0.167 A  
HETATM   36  C   UNL     1      -7.367  20.866  67.146  1.00  0.00    -0.369 A  
ENDBRANCH  24  31
ENDBRANCH  21  24
ENDBRANCH  17  18
ENDBRANCH  16  17
ENDBRANCH  15  16
ENDBRANCH  13  15
ENDBRANCH  11  13
BRANCH  12  37
HETATM   37  C   UNL     1      -8.997  10.801  68.549  1.00  0.00    -0.160 A  
HETATM   38  C   UNL     1     -11.035  12.124  68.470  1.00  0.00    -0.276 A  
HETATM   39  O   UNL     1     -10.957   8.207  71.130  1.00  0.00    -0.229 OA 
HETATM   40  C   UNL     1      -9.631   9.903  69.433  1.00  0.00    -0.229 A  
HETATM   41  O   UNL     1     -12.790   9.410  71.054  1.00  0.00    -0.277 OA 
HETATM   42  C   UNL     1     -10.958  10.125  69.822  1.00  0.00    -0.280 A  
HETATM   43  C   UNL     1     -11.667  11.228  69.334  1.00  0.00    -0.409 A  
HETATM   44  N   UNL     1     -11.615   9.177  70.734  1.00  0.00    -0.281 N  
HETATM   45  C   UNL     1      -9.707  11.919  68.089  1.00  0.00    -0.194 A  
ENDBRANCH  12  37
ENDBRANCH   3   5
ENDBRANCH   2   3
TORSDOF 11
ENDMDL
MODEL      160
REMARK 921   NORMALIZED FREE ENERGY PREDICTED BY IDOCK:   -2.53 KCAL/MOL
REMARK 922        TOTAL FREE ENERGY PREDICTED BY IDOCK:   -6.03 KCAL/MOL
REMARK 923 INTER-LIGAND FREE ENERGY PREDICTED BY IDOCK:   -5.35 KCAL/MOL
REMARK 924 INTRA-LIGAND FREE ENERGY PREDICTED BY IDOCK:   -0.68 KCAL/MOL
REMARK 927      BINDING AFFINITY PREDICTED BY RF-SCORE:    0.00 PKD
ROOT
HETATM    1  C   UNL     1      -8.986   5.116  67.003  1.00  0.00    -0.112 C  
HETATM    2  O   UNL     1      -9.423   6.316  66.361  1.00  0.00    -0.156 OA 
ENDROOT
BRANCH   2   3
HETATM    3  C   UNL     1      -8.725   7.416  66.742  1.00  0.00    -0.133 C  
HETATM    4  O   UNL     1      -7.571   7.402  67.150  1.00  0.00    -0.102 OA 
BRANCH   3   5
HETATM    5  C   UNL     1      -9.568   8.636  66.635  1.00  0.00    -0.285 C  
HETATM    6  C   UNL     1      -9.427   9.503  65.598  1.00  0.00    -0.261 C  
HETATM    7  N   UNL     1     -10.200  10.654  65.558  1.00  0.00    -0.271 NA 
HETATM    8  C   UNL     1      -8.481   9.376  64.431  1.00  0.00    -0.196 C  
HETATM    9  C   UNL     1     -10.979  11.112  66.599  1.00  0.00    -0.228 C  
HETATM   10  C   UNL     1     -11.517  12.517  66.458  1.00  0.00    -0.418 C  
HETATM   11  C   UNL     1     -11.191  10.316  67.671  1.00  0.00    -0.232 C  
HETATM   12  C   UNL     1     -10.581   8.912  67.756  1.00  0.00    -0.266 C  
BRANCH  11  13
HETATM   13  C   UNL     1     -11.895  10.864  68.849  1.00  0.00    -0.270 C  
HETATM   14  O   UNL     1     -12.931  10.395  69.296  1.00  0.00     0.208 OA 
BRANCH  13  15
HETATM   15  O   UNL     1     -11.254  11.958  69.338  1.00  0.00    -0.245 OA 
BRANCH  15  16
HETATM   16  C   UNL     1     -12.151  12.913  69.944  1.00  0.00    -0.265 C  
BRANCH  16  17
HETATM   17  C   UNL     1     -11.429  14.261  70.100  1.00  0.00    -0.191 C  
BRANCH  17  18
HETATM   18  N   UNL     1     -10.410  14.579  69.085  1.00  0.00    -0.221 NA 
HETATM   19  C   UNL     1     -11.132  16.962  68.503  1.00  0.00    -0.213 C  
HETATM   20  C   UNL     1     -10.910  15.499  68.038  1.00  0.00    -0.300 C  
HETATM   21  N   UNL     1      -9.930  17.598  69.100  1.00  0.00    -0.248 NA 
HETATM   22  C   UNL     1      -9.242  15.212  69.751  1.00  0.00     0.017 C  
HETATM   23  C   UNL     1      -9.457  16.690  70.178  1.00  0.00     1.318 C  
BRANCH  21  24
HETATM   24  C   UNL     1      -8.873  17.862  68.075  1.00  0.00    -0.268 C  
BRANCH  24  25
HETATM   25  C   UNL     1      -9.315  18.858  66.988  1.00  0.00    -0.329 A  
HETATM   26  C   UNL     1      -8.349  19.643  66.328  1.00  0.00    -0.372 A  
HETATM   27  C   UNL     1     -10.653  18.988  66.583  1.00  0.00    -0.499 A  
HETATM   28  C   UNL     1      -8.712  20.529  65.311  1.00  0.00     0.985 A  
HETATM   29  C   UNL     1     -10.047  20.660  64.942  1.00  0.00     1.407 A  
HETATM   30  C   UNL     1     -11.018  19.892  65.579  1.00  0.00    -0.106 A  
ENDBRANCH  24  25
BRANCH  24  31
HETATM   31  C   UNL     1      -7.528  18.242  68.711  1.00  0.00    -0.297 A  
HETATM   32  C   UNL     1      -5.145  18.782  70.105  1.00  0.00    -0.199 A  
HETATM   33  C   UNL     1      -6.136  19.756  70.017  1.00  0.00    -0.351 A  
HETATM   34  C   UNL     1      -6.505  17.279  68.793  1.00  0.00    -0.194 A  
HETATM   35  C   UNL     1      -7.321  19.488  69.329  1.00  0.00    -0.311 A  
HETATM   36  C   UNL     1      -5.328  17.545  69.493  1.00  0.00    -0.193 A  
ENDBRANCH  24  31
ENDBRANCH  21  24
ENDBRANCH  17  18
ENDBRANCH  16  17
ENDBRANCH  15  16
ENDBRANCH  13  15
ENDBRANCH  11  13
BRANCH  12  37
HETATM   37  C   UNL     1     -10.003   8.657  69.157  1.00  0.00    -0.193 A  
HETATM   38  C   UNL     1      -9.977   7.408  71.243  1.00  0.00    -0.194 A  
HETATM   39  O   UNL     1      -6.523  10.541  70.413  1.00  0.00    -0.142 OA 
HETATM   40  C   UNL     1      -8.824   9.321  69.556  1.00  0.00    -0.151 A  
HETATM   41  O   UNL     1      -6.510   9.410  72.292  1.00  0.00    -0.298 OA 
HETATM   42  C   UNL     1      -8.235   9.019  70.790  1.00  0.00    -0.181 A  
HETATM   43  C   UNL     1      -8.802   8.055  71.632  1.00  0.00    -0.179 A  
HETATM   44  N   UNL     1      -7.000   9.706  71.193  1.00  0.00     0.034 N  
HETATM   45  C   UNL     1     -10.579   7.714  70.021  1.00  0.00    -0.240 A  
ENDBRANCH  12  37
ENDBRANCH   3   5
ENDBRANCH   2   3
TORSDOF 11
ENDMDL
MODEL      161
REMARK 921   NORMALIZED FREE ENERGY PREDICTED BY IDOCK:   -2.46 KCAL/MOL
REMARK 922        TOTAL FREE ENERGY PREDICTED BY IDOCK:   -5.90 KCAL/MOL
REMARK 923 INTER-LIGAND FREE ENERGY PREDICTED BY IDOCK:  -10.10 KCAL/MOL
REMARK 924 INTRA-LIGAND FREE ENERGY PREDICTED BY IDOCK:    4.20 KCAL/MOL
REMARK 927      BINDING AFFINITY PREDICTED BY RF-SCORE:    0.00 PKD
ROOT
HETATM    1  C   UNL     1      -9.309  14.454  66.428  1.00  0.00    -0.258 C  
HETATM    2  O   UNL     1      -8.361  13.533  66.974  1.00  0.00    -0.171 OA 
ENDROOT
BRANCH   2   3
HETATM    3  C   UNL     1      -8.918  12.620  67.810  1.00  0.00    -0.189 C  
HETATM    4  O   UNL     1      -9.850  12.847  68.571  1.00  0.00    -0.214 OA 
BRANCH   3   5
HETATM    5  C   UNL     1      -8.213  11.315  67.706  1.00  0.00    -0.120 C  
HETATM    6  C   UNL     1      -7.032  11.098  68.342  1.00  0.00    -0.072 C  
HETATM    7  N   UNL     1      -6.382   9.883  68.183  1.00  0.00    -0.054 NA 
HETATM    8  C   UNL     1      -6.290  12.061  69.234  1.00  0.00    -0.102 C  
HETATM    9  C   UNL     1      -6.732   8.921  67.260  1.00  0.00    -0.066 C  
HETATM   10  C   UNL     1      -5.738   7.801  67.056  1.00  0.00    -0.032 C  
HETATM   11  C   UNL     1      -7.898   9.039  66.586  1.00  0.00    -0.100 C  
HETATM   12  C   UNL     1      -8.840  10.225  66.823  1.00  0.00    -0.143 C  
BRANCH  11  13
HETATM   13  C   UNL     1      -8.198   8.094  65.491  1.00  0.00    -0.144 C  
HETATM   14  O   UNL     1      -7.955   8.322  64.314  1.00  0.00    -0.137 OA 
BRANCH  13  15
HETATM   15  O   UNL     1      -8.796   6.969  65.964  1.00  0.00    -0.156 OA 
BRANCH  15  16
HETATM   16  C   UNL     1     -10.071   7.227  66.588  1.00  0.00    -0.168 C  
BRANCH  16  17
HETATM   17  C   UNL     1     -10.452   6.034  67.480  1.00  0.00    -0.240 C  
BRANCH  17  18
HETATM   18  N   UNL     1     -11.116   6.356  68.755  1.00  0.00    -0.334 NA 
HETATM   19  C   UNL     1      -9.181   5.890  70.360  1.00  0.00    -0.158 C  
HETATM   20  C   UNL     1     -10.615   5.540  69.884  1.00  0.00    -0.317 C  
HETATM   21  N   UNL     1      -8.999   7.314  70.740  1.00  0.00    -0.151 NA 
HETATM   22  C   UNL     1     -10.891   7.790  69.071  1.00  0.00    -0.021 C  
HETATM   23  C   UNL     1      -9.464   8.128  69.586  1.00  0.00    -0.159 C  
BRANCH  21  24
HETATM   24  C   UNL     1      -9.727   7.651  72.003  1.00  0.00    -0.166 C  
BRANCH  24  25
HETATM   25  C   UNL     1     -10.981   8.511  71.771  1.00  0.00    -0.376 A  
HETATM   26  C   UNL     1     -12.248   8.004  72.123  1.00  0.00    -0.377 A  
HETATM   27  C   UNL     1     -10.917   9.818  71.262  1.00  0.00    -0.331 A  
HETATM   28  C   UNL     1     -13.403   8.773  71.961  1.00  0.00    -0.455 A  
HETATM   29  C   UNL     1     -13.319  10.058  71.431  1.00  0.00    -0.432 A  
HETATM   30  C   UNL     1     -12.076  10.579  71.080  1.00  0.00    -0.492 A  
ENDBRANCH  24  25
BRANCH  24  31
HETATM   31  C   UNL     1     -10.014   6.408  72.859  1.00  0.00    -0.186 A  
HETATM   32  C   UNL     1     -10.394   3.980  74.228  1.00  0.00    -0.268 A  
HETATM   33  C   UNL     1     -11.438   4.538  73.497  1.00  0.00    -0.287 A  
HETATM   34  C   UNL     1      -8.976   5.840  73.621  1.00  0.00    -0.127 A  
HETATM   35  C   UNL     1     -11.250   5.741  72.813  1.00  0.00    -0.336 A  
HETATM   36  C   UNL     1      -9.164   4.630  74.292  1.00  0.00    -0.118 A  
ENDBRANCH  24  31
ENDBRANCH  21  24
ENDBRANCH  17  18
ENDBRANCH  16  17
ENDBRANCH  15  16
ENDBRANCH  13  15
ENDBRANCH  11  13
BRANCH  12  37
HETATM   37  C   UNL     1      -9.370  10.772  65.488  1.00  0.00    -0.242 A  
HETATM   38  C   UNL     1      -9.137  11.098  63.090  1.00  0.00    -0.243 A  
HETATM   39  O   UNL     1     -13.233  12.258  65.165  1.00  0.00    -0.297 OA 
HETATM   40  C   UNL     1     -10.684  11.279  65.415  1.00  0.00    -0.291 A  
HETATM   41  O   UNL     1     -13.011  12.550  63.003  1.00  0.00    -0.451 OA 
HETATM   42  C   UNL     1     -11.209  11.685  64.182  1.00  0.00    -0.345 A  
HETATM   43  C   UNL     1     -10.442  11.587  63.016  1.00  0.00    -0.255 A  
HETATM   44  N   UNL     1     -12.584  12.200  64.113  1.00  0.00    -0.417 N  
HETATM   45  C   UNL     1      -8.600  10.705  64.317  1.00  0.00    -0.104 A  
ENDBRANCH  12  37
ENDBRANCH   3   5
ENDBRANCH   2   3
TORSDOF 11
ENDMDL
MODEL      162
REMARK 921   NORMALIZED FREE ENERGY PREDICTED BY IDOCK:   -2.45 KCAL/MOL
REMARK 922        TOTAL FREE ENERGY PREDICTED BY IDOCK:   -5.88 KCAL/MOL
REMARK 923 INTER-LIGAND FREE ENERGY PREDICTED BY IDOCK:   -6.36 KCAL/MOL
REMARK 924 INTRA-LIGAND FREE ENERGY PREDICTED BY IDOCK:    0.48 KCAL/MOL
REMARK 927      BINDING AFFINITY PREDICTED BY RF-SCORE:    0.00 PKD
ROOT
HETATM    1  C   UNL     1      -7.761  20.570  65.940  1.00  0.00     0.072 C  
HETATM    2  O   UNL     1      -8.285  19.379  66.533  1.00  0.00    -0.283 OA 
ENDROOT
BRANCH   2   3
HETATM    3  C   UNL     1      -7.906  18.245  65.890  1.00  0.00    -0.047 C  
HETATM    4  O   UNL     1      -6.896  18.135  65.208  1.00  0.00    -0.465 OA 
BRANCH   3   5
HETATM    5  C   UNL     1      -8.909  17.167  66.093  1.00  0.00    -0.220 C  
HETATM    6  C   UNL     1     -10.238  17.399  65.931  1.00  0.00    -0.256 C  
HETATM    7  N   UNL     1     -11.146  16.379  66.175  1.00  0.00     0.070 NA 
HETATM    8  C   UNL     1     -10.890  18.692  65.512  1.00  0.00     0.113 C  
HETATM    9  C   UNL     1     -10.833  15.176  66.771  1.00  0.00    -0.322 C  
HETATM   10  C   UNL     1     -12.004  14.321  67.197  1.00  0.00    -0.449 C  
HETATM   11  C   UNL     1      -9.536  14.846  66.962  1.00  0.00    -0.245 C  
HETATM   12  C   UNL     1      -8.402  15.784  66.531  1.00  0.00    -0.313 C  
BRANCH  11  13
HETATM   13  C   UNL     1      -9.206  13.632  67.736  1.00  0.00    -0.214 C  
HETATM   14  O   UNL     1      -9.367  13.536  68.945  1.00  0.00     0.005 OA 
BRANCH  13  15
HETATM   15  O   UNL     1      -8.684  12.666  66.936  1.00  0.00    -0.204 OA 
BRANCH  15  16
HETATM   16  C   UNL     1      -9.244  11.361  67.188  1.00  0.00    -0.166 C  
BRANCH  16  17
HETATM   17  C   UNL     1      -8.843  10.898  68.598  1.00  0.00    -0.158 C  
BRANCH  17  18
HETATM   18  N   UNL     1      -9.442   9.638  69.070  1.00  0.00    -0.162 NA 
HETATM   19  C   UNL     1      -7.566   8.022  68.435  1.00  0.00    -0.108 C  
HETATM   20  C   UNL     1      -9.040   8.471  68.254  1.00  0.00    -0.138 C  
HETATM   21  N   UNL     1      -7.193   7.718  69.840  1.00  0.00    -0.066 NA 
HETATM   22  C   UNL     1      -9.026   9.399  70.476  1.00  0.00    -0.253 C  
HETATM   23  C   UNL     1      -7.562   8.911  70.648  1.00  0.00    -0.099 C  
BRANCH  21  24
HETATM   24  C   UNL     1      -7.854   6.470  70.334  1.00  0.00    -0.110 C  
BRANCH  24  25
HETATM   25  C   UNL     1      -7.703   5.280  69.371  1.00  0.00    -0.080 A  
HETATM   26  C   UNL     1      -8.834   4.790  68.688  1.00  0.00    -0.121 A  
HETATM   27  C   UNL     1      -6.463   4.680  69.100  1.00  0.00    -0.039 A  
HETATM   28  C   UNL     1      -8.727   3.735  67.777  1.00  0.00    -0.122 A  
HETATM   29  C   UNL     1      -7.491   3.139  67.542  1.00  0.00    -0.062 A  
HETATM   30  C   UNL     1      -6.361   3.610  68.205  1.00  0.00    -0.036 A  
ENDBRANCH  24  25
BRANCH  24  31
HETATM   31  C   UNL     1      -7.439   6.122  71.772  1.00  0.00    -0.095 A  
HETATM   32  C   UNL     1      -6.610   5.221  74.304  1.00  0.00    -0.075 A  
HETATM   33  C   UNL     1      -7.967   5.325  74.012  1.00  0.00    -0.104 A  
HETATM   34  C   UNL     1      -6.072   6.032  72.093  1.00  0.00    -0.041 A  
HETATM   35  C   UNL     1      -8.380   5.767  72.753  1.00  0.00    -0.119 A  
HETATM   36  C   UNL     1      -5.662   5.576  73.347  1.00  0.00    -0.028 A  
ENDBRANCH  24  31
ENDBRANCH  21  24
ENDBRANCH  17  18
ENDBRANCH  16  17
ENDBRANCH  15  16
ENDBRANCH  13  15
ENDBRANCH  11  13
BRANCH  12  37
HETATM   37  C   UNL     1      -7.322  15.865  67.622  1.00  0.00    -0.180 A  
HETATM   38  C   UNL     1      -5.337  14.975  68.708  1.00  0.00    -0.088 A  
HETATM   39  O   UNL     1      -6.918  19.252  69.988  1.00  0.00    -0.029 OA 
HETATM   40  C   UNL     1      -7.218  17.026  68.415  1.00  0.00    -0.202 A  
HETATM   41  O   UNL     1      -5.130  18.439  70.963  1.00  0.00    -0.258 OA 
HETATM   42  C   UNL     1      -6.175  17.149  69.341  1.00  0.00    -0.234 A  
HETATM   43  C   UNL     1      -5.227  16.131  69.484  1.00  0.00    -0.115 A  
HETATM   44  N   UNL     1      -6.067  18.369  70.155  1.00  0.00    -0.136 N  
HETATM   45  C   UNL     1      -6.383  14.837  67.793  1.00  0.00    -0.172 A  
ENDBRANCH  12  37
ENDBRANCH   3   5
ENDBRANCH   2   3
TORSDOF 11
ENDMDL
MODEL      163
REMARK 921   NORMALIZED FREE ENERGY PREDICTED BY IDOCK:   -2.37 KCAL/MOL
REMARK 922        TOTAL FREE ENERGY PREDICTED BY IDOCK:   -5.76 KCAL/MOL
REMARK 923 INTER-LIGAND FREE ENERGY PREDICTED BY IDOCK:   -6.44 KCAL/MOL
REMARK 924 INTRA-LIGAND FREE ENERGY PREDICTED BY IDOCK:    0.68 KCAL/MOL
REMARK 927      BINDING AFFINITY PREDICTED BY RF-SCORE:    0.00 PKD
ROOT
HETATM    1  C   UNL     1     -10.214  18.361  68.283  1.00  0.00    -0.384 C  
HETATM    2  O   UNL     1     -10.958  17.206  68.678  1.00  0.00    -0.295 OA 
ENDROOT
BRANCH   2   3
HETATM    3  C   UNL     1     -10.191  16.237  69.240  1.00  0.00    -0.269 C  
HETATM    4  O   UNL     1      -8.967  16.232  69.245  1.00  0.00    -0.244 OA 
BRANCH   3   5
HETATM    5  C   UNL     1     -11.041  15.160  69.811  1.00  0.00    -0.295 C  
HETATM    6  C   UNL     1     -11.527  15.242  71.078  1.00  0.00    -0.356 C  
HETATM    7  N   UNL     1     -12.279  14.195  71.592  1.00  0.00    -0.276 NA 
HETATM    8  C   UNL     1     -11.334  16.375  72.053  1.00  0.00     0.034 C  
HETATM    9  C   UNL     1     -12.419  12.962  70.992  1.00  0.00    -0.283 C  
HETATM   10  C   UNL     1     -13.042  11.877  71.839  1.00  0.00    -0.474 C  
HETATM   11  C   UNL     1     -11.980  12.785  69.725  1.00  0.00    -0.362 C  
HETATM   12  C   UNL     1     -11.326  13.927  68.940  1.00  0.00    -0.319 C  
BRANCH  11  13
HETATM   13  C   UNL     1     -11.991  11.428  69.141  1.00  0.00    -0.328 C  
HETATM   14  O   UNL     1     -13.008  10.772  68.972  1.00  0.00     0.159 OA 
BRANCH  13  15
HETATM   15  O   UNL     1     -10.731  11.009  68.849  1.00  0.00    -0.188 OA 
BRANCH  15  16
HETATM   16  C   UNL     1     -10.655  10.269  67.613  1.00  0.00    -0.263 C  
BRANCH  16  17
HETATM   17  C   UNL     1     -10.779   8.766  67.912  1.00  0.00    -0.107 C  
BRANCH  17  18
HETATM   18  N   UNL     1      -9.517   8.030  68.104  1.00  0.00    -0.143 NA 
HETATM   19  C   UNL     1     -10.448   5.860  69.084  1.00  0.00    -0.270 C  
HETATM   20  C   UNL     1      -9.558   7.116  69.268  1.00  0.00    -0.155 C  
HETATM   21  N   UNL     1     -10.097   5.036  67.900  1.00  0.00    -0.140 NA 
HETATM   22  C   UNL     1      -9.232   7.230  66.885  1.00  0.00    -0.152 C  
HETATM   23  C   UNL     1     -10.099   5.950  66.728  1.00  0.00    -0.192 C  
BRANCH  21  24
HETATM   24  C   UNL     1      -8.785   4.339  68.075  1.00  0.00    -0.105 C  
BRANCH  24  25
HETATM   25  C   UNL     1      -8.699   3.523  69.376  1.00  0.00    -0.130 A  
HETATM   26  C   UNL     1      -9.466   2.348  69.513  1.00  0.00    -0.119 A  
HETATM   27  C   UNL     1      -7.842   3.872  70.433  1.00  0.00    -0.051 A  
HETATM   28  C   UNL     1      -9.383   1.563  70.666  1.00  0.00    -0.168 A  
HETATM   29  C   UNL     1      -8.545   1.942  71.711  1.00  0.00    -0.082 A  
HETATM   30  C   UNL     1      -7.777   3.097  71.595  1.00  0.00    -0.052 A  
ENDBRANCH  24  25
BRANCH  24  31
HETATM   31  C   UNL     1      -8.391   3.520  66.837  1.00  0.00    -0.100 A  
HETATM   32  C   UNL     1      -7.613   2.270  64.440  1.00  0.00    -0.064 A  
HETATM   33  C   UNL     1      -8.962   2.376  64.764  1.00  0.00    -0.122 A  
HETATM   34  C   UNL     1      -7.031   3.384  66.503  1.00  0.00    -0.054 A  
HETATM   35  C   UNL     1      -9.350   3.000  65.951  1.00  0.00    -0.082 A  
HETATM   36  C   UNL     1      -6.647   2.773  65.308  1.00  0.00    -0.035 A  
ENDBRANCH  24  31
ENDBRANCH  21  24
ENDBRANCH  17  18
ENDBRANCH  16  17
ENDBRANCH  15  16
ENDBRANCH  13  15
ENDBRANCH  11  13
BRANCH  12  37
HETATM   37  C   UNL     1     -10.080  13.427  68.192  1.00  0.00    -0.244 A  
HETATM   38  C   UNL     1      -8.841  13.091  66.127  1.00  0.00     0.294 A  
HETATM   39  O   UNL     1      -6.677  12.244  70.254  1.00  0.00     0.124 OA 
HETATM   40  C   UNL     1      -8.944  13.023  68.923  1.00  0.00     0.315 A  
HETATM   41  O   UNL     1      -5.568  11.943  68.385  1.00  0.00    -0.049 OA 
HETATM   42  C   UNL     1      -7.770  12.662  68.249  1.00  0.00    -0.135 A  
HETATM   43  C   UNL     1      -7.711  12.705  66.852  1.00  0.00     0.080 A  
HETATM   44  N   UNL     1      -6.586  12.255  69.020  1.00  0.00    -0.094 N  
HETATM   45  C   UNL     1     -10.019  13.438  66.791  1.00  0.00    -0.264 A  
ENDBRANCH  12  37
ENDBRANCH   3   5
ENDBRANCH   2   3
TORSDOF 11
ENDMDL
MODEL      164
REMARK 921   NORMALIZED FREE ENERGY PREDICTED BY IDOCK:   -2.28 KCAL/MOL
REMARK 922        TOTAL FREE ENERGY PREDICTED BY IDOCK:   -5.62 KCAL/MOL
REMARK 923 INTER-LIGAND FREE ENERGY PREDICTED BY IDOCK:   -4.95 KCAL/MOL
REMARK 924 INTRA-LIGAND FREE ENERGY PREDICTED BY IDOCK:   -0.66 KCAL/MOL
REMARK 927      BINDING AFFINITY PREDICTED BY RF-SCORE:    0.00 PKD
ROOT
HETATM    1  C   UNL     1     -10.946  17.980  67.721  1.00  0.00    -0.086 C  
HETATM    2  O   UNL     1      -9.534  17.836  67.894  1.00  0.00    -0.260 OA 
ENDROOT
BRANCH   2   3
HETATM    3  C   UNL     1      -9.197  16.879  68.795  1.00  0.00    -0.260 C  
HETATM    4  O   UNL     1      -8.821  17.099  69.939  1.00  0.00     0.909 OA 
BRANCH   3   5
HETATM    5  C   UNL     1      -9.306  15.526  68.189  1.00  0.00    -0.197 C  
HETATM    6  C   UNL     1      -8.895  15.288  66.916  1.00  0.00    -0.254 C  
HETATM    7  N   UNL     1      -9.056  14.023  66.369  1.00  0.00    -0.158 NA 
HETATM    8  C   UNL     1      -8.267  16.274  65.965  1.00  0.00    -0.013 C  
HETATM    9  C   UNL     1      -9.792  13.008  66.944  1.00  0.00    -0.240 C  
HETATM   10  C   UNL     1     -10.074  11.812  66.065  1.00  0.00    -0.263 C  
HETATM   11  C   UNL     1     -10.234  13.145  68.214  1.00  0.00    -0.250 C  
HETATM   12  C   UNL     1      -9.936  14.407  69.032  1.00  0.00    -0.135 C  
BRANCH  11  13
HETATM   13  C   UNL     1     -11.149  12.128  68.773  1.00  0.00    -0.250 C  
HETATM   14  O   UNL     1     -12.299  11.969  68.390  1.00  0.00    -0.270 OA 
BRANCH  13  15
HETATM   15  O   UNL     1     -10.552  11.427  69.773  1.00  0.00    -0.002 OA 
BRANCH  15  16
HETATM   16  C   UNL     1     -10.054  10.144  69.344  1.00  0.00    -0.231 C  
BRANCH  16  17
HETATM   17  C   UNL     1      -9.141   9.561  70.434  1.00  0.00    -0.246 C  
BRANCH  17  18
HETATM   18  N   UNL     1      -8.120   8.597  69.988  1.00  0.00    -0.107 NA 
HETATM   19  C   UNL     1      -9.388   6.420  70.422  1.00  0.00    -0.162 C  
HETATM   20  C   UNL     1      -8.167   7.322  70.739  1.00  0.00    -0.112 C  
HETATM   21  N   UNL     1      -9.532   6.079  68.984  1.00  0.00    -0.126 NA 
HETATM   22  C   UNL     1      -8.327   8.304  68.546  1.00  0.00    -0.129 C  
HETATM   23  C   UNL     1      -9.527   7.366  68.238  1.00  0.00    -0.142 C  
BRANCH  21  24
HETATM   24  C   UNL     1      -8.457   5.149  68.520  1.00  0.00    -0.088 C  
BRANCH  24  25
HETATM   25  C   UNL     1      -8.372   3.856  69.351  1.00  0.00    -0.080 A  
HETATM   26  C   UNL     1      -7.152   3.500  69.961  1.00  0.00    -0.041 A  
HETATM   27  C   UNL     1      -9.482   3.026  69.572  1.00  0.00    -0.173 A  
HETATM   28  C   UNL     1      -7.050   2.354  70.753  1.00  0.00    -0.033 A  
HETATM   29  C   UNL     1      -8.158   1.532  70.939  1.00  0.00    -0.050 A  
HETATM   30  C   UNL     1      -9.372   1.867  70.347  1.00  0.00    -0.177 A  
ENDBRANCH  24  25
BRANCH  24  31
HETATM   31  C   UNL     1      -8.534   4.876  67.010  1.00  0.00    -0.105 A  
HETATM   32  C   UNL     1      -8.677   4.662  64.209  1.00  0.00    -0.148 A  
HETATM   33  C   UNL     1      -9.811   4.434  64.984  1.00  0.00    -0.169 A  
HETATM   34  C   UNL     1      -7.394   5.081  66.212  1.00  0.00    -0.082 A  
HETATM   35  C   UNL     1      -9.743   4.544  66.374  1.00  0.00    -0.218 A  
HETATM   36  C   UNL     1      -7.469   4.984  64.822  1.00  0.00    -0.075 A  
ENDBRANCH  24  31
ENDBRANCH  21  24
ENDBRANCH  17  18
ENDBRANCH  16  17
ENDBRANCH  15  16
ENDBRANCH  13  15
ENDBRANCH  11  13
BRANCH  12  37
HETATM   37  C   UNL     1     -11.189  14.868  69.793  1.00  0.00    -0.308 A  
HETATM   38  C   UNL     1     -13.526  15.541  69.816  1.00  0.00     1.168 A  
HETATM   39  O   UNL     1     -11.318  14.810  73.941  1.00  0.00     0.334 OA 
HETATM   40  C   UNL     1     -11.196  14.845  71.202  1.00  0.00    -0.190 A  
HETATM   41  O   UNL     1     -13.425  15.420  73.951  1.00  0.00    -0.114 OA 
HETATM   42  C   UNL     1     -12.367  15.167  71.901  1.00  0.00    -0.352 A  
HETATM   43  C   UNL     1     -13.536  15.505  71.211  1.00  0.00    -0.520 A  
HETATM   44  N   UNL     1     -12.369  15.128  73.371  1.00  0.00    -0.456 N  
HETATM   45  C   UNL     1     -12.359  15.236  69.112  1.00  0.00    -0.092 A  
ENDBRANCH  12  37
ENDBRANCH   3   5
ENDBRANCH   2   3
TORSDOF 11
ENDMDL
MODEL      165
REMARK 921   NORMALIZED FREE ENERGY PREDICTED BY IDOCK:   -2.23 KCAL/MOL
REMARK 922        TOTAL FREE ENERGY PREDICTED BY IDOCK:   -5.52 KCAL/MOL
REMARK 923 INTER-LIGAND FREE ENERGY PREDICTED BY IDOCK:   -7.72 KCAL/MOL
REMARK 924 INTRA-LIGAND FREE ENERGY PREDICTED BY IDOCK:    2.20 KCAL/MOL
REMARK 927      BINDING AFFINITY PREDICTED BY RF-SCORE:    0.00 PKD
ROOT
HETATM    1  C   UNL     1     -10.685   4.342  65.593  1.00  0.00     0.074 C  
HETATM    2  O   UNL     1     -10.057   5.622  65.484  1.00  0.00     0.228 OA 
ENDROOT
BRANCH   2   3
HETATM    3  C   UNL     1      -8.787   5.641  65.962  1.00  0.00    -0.146 C  
HETATM    4  O   UNL     1      -7.845   5.038  65.465  1.00  0.00    -0.089 OA 
BRANCH   3   5
HETATM    5  C   UNL     1      -8.704   6.463  67.198  1.00  0.00    -0.110 C  
HETATM    6  C   UNL     1      -9.256   6.040  68.366  1.00  0.00    -0.114 C  
HETATM    7  N   UNL     1      -9.198   6.856  69.486  1.00  0.00    -0.148 NA 
HETATM    8  C   UNL     1      -9.971   4.736  68.612  1.00  0.00    -0.170 C  
HETATM    9  C   UNL     1      -8.796   8.175  69.475  1.00  0.00    -0.143 C  
HETATM   10  C   UNL     1      -9.069   8.963  70.735  1.00  0.00    -0.260 C  
HETATM   11  C   UNL     1      -8.221   8.686  68.364  1.00  0.00    -0.122 C  
HETATM   12  C   UNL     1      -8.008   7.830  67.109  1.00  0.00    -0.117 C  
BRANCH  11  13
HETATM   13  C   UNL     1      -7.932  10.134  68.301  1.00  0.00    -0.101 C  
HETATM   14  O   UNL     1      -6.801  10.597  68.277  1.00  0.00    -0.066 OA 
BRANCH  13  15
HETATM   15  O   UNL     1      -9.078  10.863  68.300  1.00  0.00    -0.145 OA 
BRANCH  15  16
HETATM   16  C   UNL     1      -8.854  12.267  68.547  1.00  0.00    -0.068 C  
BRANCH  16  17
HETATM   17  C   UNL     1      -7.454  12.655  68.044  1.00  0.00    -0.120 C  
BRANCH  17  18
HETATM   18  N   UNL     1      -7.357  13.910  67.279  1.00  0.00    -0.090 NA 
HETATM   19  C   UNL     1      -8.459  15.500  68.949  1.00  0.00    -0.207 C  
HETATM   20  C   UNL     1      -8.481  14.834  67.549  1.00  0.00    -0.192 C  
HETATM   21  N   UNL     1      -7.208  16.242  69.249  1.00  0.00    -0.220 NA 
HETATM   22  C   UNL     1      -6.087  14.595  67.629  1.00  0.00    -0.057 C  
HETATM   23  C   UNL     1      -6.085  15.295  69.016  1.00  0.00    -0.099 C  
BRANCH  21  24
HETATM   24  C   UNL     1      -7.085  17.483  68.424  1.00  0.00    -0.222 C  
BRANCH  24  25
HETATM   25  C   UNL     1      -8.427  17.966  67.848  1.00  0.00    -0.251 A  
HETATM   26  C   UNL     1      -9.441  18.408  68.722  1.00  0.00    -0.317 A  
HETATM   27  C   UNL     1      -8.677  18.034  66.468  1.00  0.00    -0.279 A  
HETATM   28  C   UNL     1     -10.658  18.889  68.231  1.00  0.00    -0.224 A  
HETATM   29  C   UNL     1     -10.893  18.924  66.859  1.00  0.00    -0.347 A  
HETATM   30  C   UNL     1      -9.903  18.494  65.979  1.00  0.00    -0.184 A  
ENDBRANCH  24  25
BRANCH  24  31
HETATM   31  C   UNL     1      -6.323  18.597  69.159  1.00  0.00    -0.274 A  
HETATM   32  C   UNL     1      -5.173  20.687  70.650  1.00  0.00    -0.289 A  
HETATM   33  C   UNL     1      -5.545  20.899  69.325  1.00  0.00    -0.391 A  
HETATM   34  C   UNL     1      -5.921  18.395  70.492  1.00  0.00     0.065 A  
HETATM   35  C   UNL     1      -6.120  19.864  68.586  1.00  0.00    -0.300 A  
HETATM   36  C   UNL     1      -5.360  19.436  71.233  1.00  0.00    -0.323 A  
ENDBRANCH  24  31
ENDBRANCH  21  24
ENDBRANCH  17  18
ENDBRANCH  16  17
ENDBRANCH  15  16
ENDBRANCH  13  15
ENDBRANCH  11  13
BRANCH  12  37
HETATM   37  C   UNL     1      -8.397   8.615  65.846  1.00  0.00    -0.140 A  
HETATM   38  C   UNL     1      -8.168   9.042  63.463  1.00  0.00    -0.178 A  
HETATM   39  O   UNL     1     -11.628  11.221  65.853  1.00  0.00    -0.127 OA 
HETATM   40  C   UNL     1      -9.494   9.500  65.885  1.00  0.00    -0.307 A  
HETATM   41  O   UNL     1     -11.412  11.601  63.704  1.00  0.00    -0.418 OA 
HETATM   42  C   UNL     1      -9.917  10.141  64.714  1.00  0.00    -0.264 A  
HETATM   43  C   UNL     1      -9.263   9.907  63.499  1.00  0.00    -0.279 A  
HETATM   44  N   UNL     1     -11.070  11.052  64.761  1.00  0.00    -0.079 N  
HETATM   45  C   UNL     1      -7.731   8.409  64.629  1.00  0.00    -0.112 A  
ENDBRANCH  12  37
ENDBRANCH   3   5
ENDBRANCH   2   3
TORSDOF 11
ENDMDL
MODEL      166
REMARK 921   NORMALIZED FREE ENERGY PREDICTED BY IDOCK:   -2.21 KCAL/MOL
REMARK 922        TOTAL FREE ENERGY PREDICTED BY IDOCK:   -5.50 KCAL/MOL
REMARK 923 INTER-LIGAND FREE ENERGY PREDICTED BY IDOCK:   -9.52 KCAL/MOL
REMARK 924 INTRA-LIGAND FREE ENERGY PREDICTED BY IDOCK:    4.02 KCAL/MOL
REMARK 927      BINDING AFFINITY PREDICTED BY RF-SCORE:    0.00 PKD
ROOT
HETATM    1  C   UNL     1      -6.680  14.916  70.283  1.00  0.00    -0.046 C  
HETATM    2  O   UNL     1      -6.363  13.938  69.289  1.00  0.00    -0.100 OA 
ENDROOT
BRANCH   2   3
HETATM    3  C   UNL     1      -6.249  14.456  68.040  1.00  0.00    -0.155 C  
HETATM    4  O   UNL     1      -5.212  14.890  67.556  1.00  0.00    -0.331 OA 
BRANCH   3   5
HETATM    5  C   UNL     1      -7.568  14.463  67.353  1.00  0.00    -0.196 C  
HETATM    6  C   UNL     1      -8.043  13.354  66.727  1.00  0.00     0.274 C  
HETATM    7  N   UNL     1      -9.257  13.414  66.058  1.00  0.00     0.013 NA 
HETATM    8  C   UNL     1      -7.383  12.002  66.648  1.00  0.00     0.126 C  
HETATM    9  C   UNL     1      -9.952  14.575  65.795  1.00  0.00    -0.334 C  
HETATM   10  C   UNL     1     -11.100  14.457  64.820  1.00  0.00    -0.402 C  
HETATM   11  C   UNL     1      -9.565  15.729  66.384  1.00  0.00    -0.311 C  
HETATM   12  C   UNL     1      -8.366  15.775  67.338  1.00  0.00    -0.189 C  
BRANCH  11  13
HETATM   13  C   UNL     1     -10.212  16.996  65.985  1.00  0.00    -0.325 C  
HETATM   14  O   UNL     1     -10.815  17.145  64.931  1.00  0.00    -0.751 OA 
BRANCH  13  15
HETATM   15  O   UNL     1     -10.022  17.961  66.922  1.00  0.00    -0.304 OA 
BRANCH  15  16
HETATM   16  C   UNL     1     -11.044  17.967  67.940  1.00  0.00     0.120 C  
BRANCH  16  17
HETATM   17  C   UNL     1     -10.523  17.237  69.189  1.00  0.00    -0.263 C  
BRANCH  17  18
HETATM   18  N   UNL     1     -11.535  16.573  70.029  1.00  0.00    -0.074 NA 
HETATM   19  C   UNL     1     -12.203  14.675  68.452  1.00  0.00    -0.094 C  
HETATM   20  C   UNL     1     -12.617  15.947  69.237  1.00  0.00     0.497 C  
HETATM   21  N   UNL     1     -11.612  13.607  69.298  1.00  0.00    -0.291 NA 
HETATM   22  C   UNL     1     -10.874  15.520  70.843  1.00  0.00    -0.204 C  
HETATM   23  C   UNL     1     -10.499  14.232  70.060  1.00  0.00     0.454 C  
BRANCH  21  24
HETATM   24  C   UNL     1     -12.631  12.977  70.194  1.00  0.00     0.023 C  
BRANCH  24  25
HETATM   25  C   UNL     1     -12.245  11.561  70.654  1.00  0.00    -0.473 A  
HETATM   26  C   UNL     1     -12.959  10.951  71.705  1.00  0.00    -0.569 A  
HETATM   27  C   UNL     1     -11.229  10.816  70.033  1.00  0.00    -0.366 A  
HETATM   28  C   UNL     1     -12.659   9.652  72.122  1.00  0.00    -0.388 A  
HETATM   29  C   UNL     1     -11.631   8.941  71.509  1.00  0.00    -0.388 A  
HETATM   30  C   UNL     1     -10.915   9.524  70.467  1.00  0.00    -0.348 A  
ENDBRANCH  24  25
BRANCH  24  31
HETATM   31  C   UNL     1     -13.021  13.892  71.365  1.00  0.00    -0.430 A  
HETATM   32  C   UNL     1     -13.622  15.785  73.357  1.00  0.00    -0.368 A  
HETATM   33  C   UNL     1     -12.544  14.919  73.521  1.00  0.00    -0.622 A  
HETATM   34  C   UNL     1     -14.119  14.761  71.226  1.00  0.00    -0.427 A  
HETATM   35  C   UNL     1     -12.242  13.982  72.531  1.00  0.00     0.139 A  
HETATM   36  C   UNL     1     -14.410  15.706  72.211  1.00  0.00    -0.480 A  
ENDBRANCH  24  31
ENDBRANCH  21  24
ENDBRANCH  17  18
ENDBRANCH  16  17
ENDBRANCH  15  16
ENDBRANCH  13  15
ENDBRANCH  11  13
BRANCH  12  37
HETATM   37  C   UNL     1      -7.487  17.002  67.045  1.00  0.00    -0.227 A  
HETATM   38  C   UNL     1      -6.248  18.397  65.485  1.00  0.00    -0.297 A  
HETATM   39  O   UNL     1      -6.856  19.921  69.928  1.00  0.00    -0.323 OA 
HETATM   40  C   UNL     1      -7.285  17.970  68.050  1.00  0.00    -0.230 A  
HETATM   41  O   UNL     1      -5.738  21.170  68.514  1.00  0.00    -0.333 OA 
HETATM   42  C   UNL     1      -6.571  19.140  67.760  1.00  0.00    -0.215 A  
HETATM   43  C   UNL     1      -6.060  19.362  66.477  1.00  0.00    -0.172 A  
HETATM   44  N   UNL     1      -6.376  20.150  68.811  1.00  0.00    -0.299 N  
HETATM   45  C   UNL     1      -6.946  17.221  65.769  1.00  0.00     0.158 A  
ENDBRANCH  12  37
ENDBRANCH   3   5
ENDBRANCH   2   3
TORSDOF 11
ENDMDL
MODEL      167
REMARK 921   NORMALIZED FREE ENERGY PREDICTED BY IDOCK:   -2.20 KCAL/MOL
REMARK 922        TOTAL FREE ENERGY PREDICTED BY IDOCK:   -5.48 KCAL/MOL
REMARK 923 INTER-LIGAND FREE ENERGY PREDICTED BY IDOCK:   -7.04 KCAL/MOL
REMARK 924 INTRA-LIGAND FREE ENERGY PREDICTED BY IDOCK:    1.55 KCAL/MOL
REMARK 927      BINDING AFFINITY PREDICTED BY RF-SCORE:    0.00 PKD
ROOT
HETATM    1  C   UNL     1      -5.923  10.781  64.453  1.00  0.00     0.147 C  
HETATM    2  O   UNL     1      -5.780   9.406  64.820  1.00  0.00    -0.061 OA 
ENDROOT
BRANCH   2   3
HETATM    3  C   UNL     1      -6.737   8.977  65.682  1.00  0.00    -0.072 C  
HETATM    4  O   UNL     1      -6.538   8.221  66.625  1.00  0.00    -0.055 OA 
BRANCH   3   5
HETATM    5  C   UNL     1      -8.068   9.517  65.300  1.00  0.00    -0.124 C  
HETATM    6  C   UNL     1      -8.456   9.584  63.999  1.00  0.00    -0.185 C  
HETATM    7  N   UNL     1      -9.687  10.137  63.680  1.00  0.00    -0.218 NA 
HETATM    8  C   UNL     1      -7.676   9.124  62.794  1.00  0.00    -0.118 C  
HETATM    9  C   UNL     1     -10.492  10.822  64.564  1.00  0.00    -0.281 C  
HETATM   10  C   UNL     1     -11.650  11.581  63.959  1.00  0.00    -0.280 C  
HETATM   11  C   UNL     1     -10.198  10.803  65.884  1.00  0.00    -0.319 C  
HETATM   12  C   UNL     1      -8.983  10.036  66.419  1.00  0.00    -0.164 C  
BRANCH  11  13
HETATM   13  C   UNL     1     -10.969  11.660  66.808  1.00  0.00    -0.290 C  
HETATM   14  O   UNL     1     -10.844  12.875  66.867  1.00  0.00    -0.252 OA 
BRANCH  13  15
HETATM   15  O   UNL     1     -11.800  10.918  67.587  1.00  0.00    -0.572 OA 
BRANCH  15  16
HETATM   16  C   UNL     1     -11.957  11.456  68.916  1.00  0.00    -0.304 C  
BRANCH  16  17
HETATM   17  C   UNL     1     -11.355  10.476  69.937  1.00  0.00    -0.309 C  
BRANCH  17  18
HETATM   18  N   UNL     1     -11.595   9.044  69.689  1.00  0.00     0.235 NA 
HETATM   19  C   UNL     1      -9.197   8.180  69.888  1.00  0.00    -0.151 C  
HETATM   20  C   UNL     1     -10.460   8.380  69.010  1.00  0.00    -0.201 C  
HETATM   21  N   UNL     1      -9.447   7.431  71.145  1.00  0.00    -0.156 NA 
HETATM   22  C   UNL     1     -11.834   8.361  70.987  1.00  0.00    -0.252 C  
HETATM   23  C   UNL     1     -10.560   8.126  71.844  1.00  0.00    -0.260 C  
BRANCH  21  24
HETATM   24  C   UNL     1      -9.751   5.990  70.884  1.00  0.00    -0.174 C  
BRANCH  24  25
HETATM   25  C   UNL     1      -8.789   5.338  69.876  1.00  0.00    -0.132 A  
HETATM   26  C   UNL     1      -9.216   4.221  69.129  1.00  0.00    -0.209 A  
HETATM   27  C   UNL     1      -7.502   5.840  69.626  1.00  0.00    -0.075 A  
HETATM   28  C   UNL     1      -8.381   3.628  68.178  1.00  0.00    -0.095 A  
HETATM   29  C   UNL     1      -7.100   4.128  67.964  1.00  0.00    -0.059 A  
HETATM   30  C   UNL     1      -6.661   5.232  68.689  1.00  0.00    -0.048 A  
ENDBRANCH  24  25
BRANCH  24  31
HETATM   31  C   UNL     1      -9.884   5.178  72.182  1.00  0.00    -0.222 A  
HETATM   32  C   UNL     1      -9.953   3.497  74.436  1.00  0.00    -0.186 A  
HETATM   33  C   UNL     1     -11.039   3.541  73.567  1.00  0.00    -0.317 A  
HETATM   34  C   UNL     1      -8.805   5.137  73.084  1.00  0.00    -0.115 A  
HETATM   35  C   UNL     1     -11.004   4.371  72.445  1.00  0.00     0.030 A  
HETATM   36  C   UNL     1      -8.837   4.295  74.197  1.00  0.00    -0.095 A  
ENDBRANCH  24  31
ENDBRANCH  21  24
ENDBRANCH  17  18
ENDBRANCH  16  17
ENDBRANCH  15  16
ENDBRANCH  13  15
ENDBRANCH  11  13
BRANCH  12  37
HETATM   37  C   UNL     1      -8.230  10.876  67.463  1.00  0.00    -0.116 A  
HETATM   38  C   UNL     1      -6.817  11.035  69.436  1.00  0.00    -0.119 A  
HETATM   39  O   UNL     1      -7.774  14.975  66.988  1.00  0.00    -0.198 OA 
HETATM   40  C   UNL     1      -8.101  12.268  67.276  1.00  0.00    -0.182 A  
HETATM   41  O   UNL     1      -6.502  15.107  68.770  1.00  0.00    -0.084 OA 
HETATM   42  C   UNL     1      -7.331  13.025  68.168  1.00  0.00    -0.118 A  
HETATM   43  C   UNL     1      -6.679  12.411  69.243  1.00  0.00    -0.067 A  
HETATM   44  N   UNL     1      -7.192  14.473  67.959  1.00  0.00    -0.125 N  
HETATM   45  C   UNL     1      -7.595  10.275  68.560  1.00  0.00    -0.089 A  
ENDBRANCH  12  37
ENDBRANCH   3   5
ENDBRANCH   2   3
TORSDOF 11
ENDMDL
MODEL      168
REMARK 921   NORMALIZED FREE ENERGY PREDICTED BY IDOCK:   -2.20 KCAL/MOL
REMARK 922        TOTAL FREE ENERGY PREDICTED BY IDOCK:   -5.48 KCAL/MOL
REMARK 923 INTER-LIGAND FREE ENERGY PREDICTED BY IDOCK:   -7.45 KCAL/MOL
REMARK 924 INTRA-LIGAND FREE ENERGY PREDICTED BY IDOCK:    1.97 KCAL/MOL
REMARK 927      BINDING AFFINITY PREDICTED BY RF-SCORE:    0.00 PKD
ROOT
HETATM    1  C   UNL     1      -8.486   1.695  68.844  1.00  0.00    -0.054 C  
HETATM    2  O   UNL     1      -8.042   2.024  70.164  1.00  0.00    -0.042 OA 
ENDROOT
BRANCH   2   3
HETATM    3  C   UNL     1      -7.353   3.192  70.224  1.00  0.00    -0.040 C  
HETATM    4  O   UNL     1      -6.136   3.289  70.138  1.00  0.00    -0.022 OA 
BRANCH   3   5
HETATM    5  C   UNL     1      -8.277   4.335  70.452  1.00  0.00    -0.073 C  
HETATM    6  C   UNL     1      -9.228   4.292  71.422  1.00  0.00    -0.134 C  
HETATM    7  N   UNL     1     -10.101   5.359  71.573  1.00  0.00    -0.188 NA 
HETATM    8  C   UNL     1      -9.480   3.170  72.397  1.00  0.00    -0.182 C  
HETATM    9  C   UNL     1     -10.224   6.403  70.681  1.00  0.00    -0.190 C  
HETATM   10  C   UNL     1     -11.416   7.310  70.882  1.00  0.00    -0.321 C  
HETATM   11  C   UNL     1      -9.317   6.541  69.689  1.00  0.00    -0.144 C  
HETATM   12  C   UNL     1      -8.152   5.557  69.530  1.00  0.00    -0.101 C  
BRANCH  11  13
HETATM   13  C   UNL     1      -9.537   7.565  68.647  1.00  0.00    -0.151 C  
HETATM   14  O   UNL     1      -8.716   8.424  68.358  1.00  0.00    -0.135 OA 
BRANCH  13  15
HETATM   15  O   UNL     1     -10.768   7.438  68.085  1.00  0.00    -0.186 OA 
BRANCH  15  16
HETATM   16  C   UNL     1     -10.885   8.123  66.821  1.00  0.00     0.214 C  
BRANCH  16  17
HETATM   17  C   UNL     1     -10.347   9.556  66.967  1.00  0.00    -0.250 C  
BRANCH  17  18
HETATM   18  N   UNL     1     -11.345  10.638  66.916  1.00  0.00    -0.220 NA 
HETATM   19  C   UNL     1     -11.312  11.349  69.371  1.00  0.00    -0.297 C  
HETATM   20  C   UNL     1     -12.112  10.771  68.175  1.00  0.00     0.503 C  
HETATM   21  N   UNL     1     -10.690  12.670  69.103  1.00  0.00    -0.090 NA 
HETATM   22  C   UNL     1     -10.653  11.924  66.646  1.00  0.00    -0.238 C  
HETATM   23  C   UNL     1      -9.887  12.519  67.860  1.00  0.00    -0.207 C  
BRANCH  21  24
HETATM   24  C   UNL     1     -11.713  13.755  68.990  1.00  0.00    -0.331 C  
BRANCH  24  25
HETATM   25  C   UNL     1     -12.297  14.183  70.348  1.00  0.00    -0.428 A  
HETATM   26  C   UNL     1     -13.542  13.670  70.763  1.00  0.00     0.325 A  
HETATM   27  C   UNL     1     -11.614  15.038  71.228  1.00  0.00    -0.384 A  
HETATM   28  C   UNL     1     -14.083  14.008  72.006  1.00  0.00    -0.600 A  
HETATM   29  C   UNL     1     -13.400  14.877  72.853  1.00  0.00    -0.576 A  
HETATM   30  C   UNL     1     -12.167  15.393  72.463  1.00  0.00    -0.499 A  
ENDBRANCH  24  25
BRANCH  24  31
HETATM   31  C   UNL     1     -11.209  14.948  68.163  1.00  0.00    -0.310 A  
HETATM   32  C   UNL     1     -10.087  16.951  66.537  1.00  0.00    -0.320 A  
HETATM   33  C   UNL     1      -9.815  16.928  67.903  1.00  0.00    -0.263 A  
HETATM   34  C   UNL     1     -11.490  15.000  66.785  1.00  0.00    -0.252 A  
HETATM   35  C   UNL     1     -10.367  15.931  68.709  1.00  0.00    -0.228 A  
HETATM   36  C   UNL     1     -10.925  15.989  65.978  1.00  0.00    -0.097 A  
ENDBRANCH  24  31
ENDBRANCH  21  24
ENDBRANCH  17  18
ENDBRANCH  16  17
ENDBRANCH  15  16
ENDBRANCH  13  15
ENDBRANCH  11  13
BRANCH  12  37
HETATM   37  C   UNL     1      -7.965   5.173  68.053  1.00  0.00    -0.091 A  
HETATM   38  C   UNL     1      -6.558   4.398  66.228  1.00  0.00    -0.045 A  
HETATM   39  O   UNL     1     -11.225   4.773  65.516  1.00  0.00    -0.112 OA 
HETATM   40  C   UNL     1      -9.093   5.055  67.216  1.00  0.00    -0.117 A  
HETATM   41  O   UNL     1      -9.947   4.077  63.875  1.00  0.00    -0.170 OA 
HETATM   42  C   UNL     1      -8.941   4.608  65.897  1.00  0.00    -0.127 A  
HETATM   43  C   UNL     1      -7.677   4.268  65.403  1.00  0.00    -0.086 A  
HETATM   44  N   UNL     1     -10.124   4.476  65.035  1.00  0.00    -0.130 N  
HETATM   45  C   UNL     1      -6.698   4.857  67.539  1.00  0.00    -0.055 A  
ENDBRANCH  12  37
ENDBRANCH   3   5
ENDBRANCH   2   3
TORSDOF 11
ENDMDL
MODEL      169
REMARK 921   NORMALIZED FREE ENERGY PREDICTED BY IDOCK:   -2.18 KCAL/MOL
REMARK 922        TOTAL FREE ENERGY PREDICTED BY IDOCK:   -5.45 KCAL/MOL
REMARK 923 INTER-LIGAND FREE ENERGY PREDICTED BY IDOCK:   -5.34 KCAL/MOL
REMARK 924 INTRA-LIGAND FREE ENERGY PREDICTED BY IDOCK:   -0.11 KCAL/MOL
REMARK 927      BINDING AFFINITY PREDICTED BY RF-SCORE:    0.00 PKD
ROOT
HETATM    1  C   UNL     1      -6.960  14.671  68.870  1.00  0.00    -0.112 C  
HETATM    2  O   UNL     1      -7.019  13.535  68.003  1.00  0.00    -0.099 OA 
ENDROOT
BRANCH   2   3
HETATM    3  C   UNL     1      -6.857  12.354  68.652  1.00  0.00    -0.087 C  
HETATM    4  O   UNL     1      -6.450  12.239  69.801  1.00  0.00    -0.116 OA 
BRANCH   3   5
HETATM    5  C   UNL     1      -7.203  11.215  67.762  1.00  0.00    -0.091 C  
HETATM    6  C   UNL     1      -6.437  10.905  66.683  1.00  0.00    -0.120 C  
HETATM    7  N   UNL     1      -6.817   9.863  65.849  1.00  0.00    -0.096 NA 
HETATM    8  C   UNL     1      -5.168  11.590  66.243  1.00  0.00    -0.034 C  
HETATM    9  C   UNL     1      -8.036   9.222  65.902  1.00  0.00    -0.111 C  
HETATM   10  C   UNL     1      -8.361   8.314  64.739  1.00  0.00    -0.129 C  
HETATM   11  C   UNL     1      -8.864   9.453  66.946  1.00  0.00    -0.141 C  
HETATM   12  C   UNL     1      -8.478  10.417  68.073  1.00  0.00    -0.119 C  
BRANCH  11  13
HETATM   13  C   UNL     1     -10.229   8.886  66.924  1.00  0.00    -0.276 C  
HETATM   14  O   UNL     1     -11.158   9.383  66.303  1.00  0.00     0.477 OA 
BRANCH  13  15
HETATM   15  O   UNL     1     -10.310   7.772  67.698  1.00  0.00    -0.206 OA 
BRANCH  15  16
HETATM   16  C   UNL     1     -11.076   6.714  67.086  1.00  0.00    -0.357 C  
BRANCH  16  17
HETATM   17  C   UNL     1     -10.343   5.377  67.282  1.00  0.00    -0.220 C  
BRANCH  17  18
HETATM   18  N   UNL     1      -8.990   5.450  67.859  1.00  0.00    -0.109 NA 
HETATM   19  C   UNL     1      -9.601   5.580  70.338  1.00  0.00    -0.172 C  
HETATM   20  C   UNL     1      -8.939   6.248  69.104  1.00  0.00    -0.127 C  
HETATM   21  N   UNL     1      -9.059   4.237  70.663  1.00  0.00    -0.104 NA 
HETATM   22  C   UNL     1      -8.515   4.075  68.159  1.00  0.00    -0.093 C  
HETATM   23  C   UNL     1      -9.151   3.427  69.419  1.00  0.00    -0.133 C  
BRANCH  21  24
HETATM   24  C   UNL     1      -7.662   4.312  71.190  1.00  0.00    -0.067 C  
BRANCH  24  25
HETATM   25  C   UNL     1      -7.169   5.754  71.404  1.00  0.00    -0.078 A  
HETATM   26  C   UNL     1      -7.538   6.449  72.573  1.00  0.00    -0.100 A  
HETATM   27  C   UNL     1      -6.316   6.403  70.497  1.00  0.00    -0.040 A  
HETATM   28  C   UNL     1      -7.078   7.746  72.816  1.00  0.00    -0.089 A  
HETATM   29  C   UNL     1      -6.252   8.379  71.892  1.00  0.00    -0.061 A  
HETATM   30  C   UNL     1      -5.874   7.709  70.732  1.00  0.00    -0.030 A  
ENDBRANCH  24  25
BRANCH  24  31
HETATM   31  C   UNL     1      -7.459   3.429  72.431  1.00  0.00    -0.057 A  
HETATM   32  C   UNL     1      -7.159   1.587  74.536  1.00  0.00    -0.023 A  
HETATM   33  C   UNL     1      -8.291   2.395  74.473  1.00  0.00    -0.066 A  
HETATM   34  C   UNL     1      -6.312   2.620  72.524  1.00  0.00    -0.014 A  
HETATM   35  C   UNL     1      -8.444   3.306  73.426  1.00  0.00    -0.074 A  
HETATM   36  C   UNL     1      -6.169   1.700  73.563  1.00  0.00    -0.012 A  
ENDBRANCH  24  31
ENDBRANCH  21  24
ENDBRANCH  17  18
ENDBRANCH  16  17
ENDBRANCH  15  16
ENDBRANCH  13  15
ENDBRANCH  11  13
BRANCH  12  37
HETATM   37  C   UNL     1      -9.667  11.317  68.448  1.00  0.00    -0.194 A  
HETATM   38  C   UNL     1     -11.171  13.159  67.943  1.00  0.00    -0.300 A  
HETATM   39  O   UNL     1     -12.100  10.411  71.687  1.00  0.00    -0.326 OA 
HETATM   40  C   UNL     1     -10.467  10.986  69.560  1.00  0.00    -0.133 A  
HETATM   41  O   UNL     1     -13.449  12.076  71.224  1.00  0.00     0.054 OA 
HETATM   42  C   UNL     1     -11.610  11.742  69.848  1.00  0.00    -0.274 A  
HETATM   43  C   UNL     1     -11.972  12.823  69.036  1.00  0.00    -0.288 A  
HETATM   44  N   UNL     1     -12.447  11.382  71.002  1.00  0.00    -0.398 N  
HETATM   45  C   UNL     1     -10.022  12.420  67.657  1.00  0.00    -0.200 A  
ENDBRANCH  12  37
ENDBRANCH   3   5
ENDBRANCH   2   3
TORSDOF 11
ENDMDL
MODEL      170
REMARK 921   NORMALIZED FREE ENERGY PREDICTED BY IDOCK:   -2.16 KCAL/MOL
REMARK 922        TOTAL FREE ENERGY PREDICTED BY IDOCK:   -5.41 KCAL/MOL
REMARK 923 INTER-LIGAND FREE ENERGY PREDICTED BY IDOCK:   -8.86 KCAL/MOL
REMARK 924 INTRA-LIGAND FREE ENERGY PREDICTED BY IDOCK:    3.45 KCAL/MOL
REMARK 927      BINDING AFFINITY PREDICTED BY RF-SCORE:    0.00 PKD
ROOT
HETATM    1  C   UNL     1      -9.094   5.368  67.030  1.00  0.00    -0.112 C  
HETATM    2  O   UNL     1      -9.714   6.546  66.506  1.00  0.00    -0.167 OA 
ENDROOT
BRANCH   2   3
HETATM    3  C   UNL     1      -9.002   7.678  66.739  1.00  0.00    -0.144 C  
HETATM    4  O   UNL     1      -7.795   7.714  66.941  1.00  0.00    -0.107 OA 
BRANCH   3   5
HETATM    5  C   UNL     1      -9.896   8.865  66.757  1.00  0.00    -0.308 C  
HETATM    6  C   UNL     1      -9.902   9.760  65.734  1.00  0.00    -0.290 C  
HETATM    7  N   UNL     1     -10.718  10.880  65.809  1.00  0.00    -0.162 NA 
HETATM    8  C   UNL     1      -9.087   9.697  64.468  1.00  0.00    -0.287 C  
HETATM    9  C   UNL     1     -11.394  11.283  66.940  1.00  0.00    -0.155 C  
HETATM   10  C   UNL     1     -11.996  12.668  66.896  1.00  0.00    -0.345 C  
HETATM   11  C   UNL     1     -11.457  10.456  68.007  1.00  0.00    -0.161 C  
HETATM   12  C   UNL     1     -10.790   9.076  67.988  1.00  0.00    -0.102 C  
BRANCH  11  13
HETATM   13  C   UNL     1     -12.048  10.949  69.269  1.00  0.00    -0.261 C  
HETATM   14  O   UNL     1     -13.107  10.542  69.725  1.00  0.00    -0.062 OA 
BRANCH  13  15
HETATM   15  O   UNL     1     -11.276  11.919  69.826  1.00  0.00    -0.182 OA 
BRANCH  15  16
HETATM   16  C   UNL     1     -12.042  12.904  70.550  1.00  0.00    -0.282 C  
BRANCH  16  17
HETATM   17  C   UNL     1     -11.344  14.269  70.446  1.00  0.00    -0.040 C  
BRANCH  17  18
HETATM   18  N   UNL     1     -10.509  14.489  69.252  1.00  0.00    -0.212 NA 
HETATM   19  C   UNL     1     -11.778  16.451  68.214  1.00  0.00     0.106 C  
HETATM   20  C   UNL     1     -11.285  14.985  68.093  1.00  0.00    -0.308 C  
HETATM   21  N   UNL     1     -10.695  17.436  68.463  1.00  0.00    -0.324 NA 
HETATM   22  C   UNL     1      -9.453  15.483  69.574  1.00  0.00    -0.269 C  
HETATM   23  C   UNL     1      -9.946  16.954  69.653  1.00  0.00     0.095 C  
BRANCH  21  24
HETATM   24  C   UNL     1      -9.813  17.609  67.267  1.00  0.00    -0.303 C  
BRANCH  24  25
HETATM   25  C   UNL     1      -8.337  17.845  67.630  1.00  0.00    -0.234 A  
HETATM   26  C   UNL     1      -7.342  17.020  67.070  1.00  0.00    -0.220 A  
HETATM   27  C   UNL     1      -7.924  18.892  68.470  1.00  0.00    -0.382 A  
HETATM   28  C   UNL     1      -5.989  17.231  67.348  1.00  0.00    -0.165 A  
HETATM   29  C   UNL     1      -5.603  18.260  68.202  1.00  0.00    -0.165 A  
HETATM   30  C   UNL     1      -6.571  19.088  68.765  1.00  0.00    -0.301 A  
ENDBRANCH  24  25
BRANCH  24  31
HETATM   31  C   UNL     1      -9.996  16.481  66.241  1.00  0.00    -0.346 A  
HETATM   32  C   UNL     1     -10.562  14.335  64.513  1.00  0.00    -0.232 A  
HETATM   33  C   UNL     1      -9.528  14.229  65.439  1.00  0.00     0.206 A  
HETATM   34  C   UNL     1     -11.022  16.577  65.283  1.00  0.00    -0.170 A  
HETATM   35  C   UNL     1      -9.249  15.292  66.301  1.00  0.00    -0.350 A  
HETATM   36  C   UNL     1     -11.308  15.508  64.433  1.00  0.00    -0.260 A  
ENDBRANCH  24  31
ENDBRANCH  21  24
ENDBRANCH  17  18
ENDBRANCH  16  17
ENDBRANCH  15  16
ENDBRANCH  13  15
ENDBRANCH  11  13
BRANCH  12  37
HETATM   37  C   UNL     1     -10.052   8.813  69.311  1.00  0.00    -0.206 A  
HETATM   38  C   UNL     1      -8.306   9.367  70.910  1.00  0.00    -0.112 A  
HETATM   39  O   UNL     1     -11.557   6.136  72.105  1.00  0.00    -0.299 OA 
HETATM   40  C   UNL     1     -10.585   7.890  70.234  1.00  0.00    -0.231 A  
HETATM   41  O   UNL     1      -9.976   6.642  73.539  1.00  0.00    -0.184 OA 
HETATM   42  C   UNL     1      -9.976   7.719  71.483  1.00  0.00    -0.171 A  
HETATM   43  C   UNL     1      -8.842   8.463  71.829  1.00  0.00    -0.257 A  
HETATM   44  N   UNL     1     -10.546   6.764  72.445  1.00  0.00    -0.208 N  
HETATM   45  C   UNL     1      -8.899   9.533  69.657  1.00  0.00    -0.196 A  
ENDBRANCH  12  37
ENDBRANCH   3   5
ENDBRANCH   2   3
TORSDOF 11
ENDMDL
MODEL      171
REMARK 921   NORMALIZED FREE ENERGY PREDICTED BY IDOCK:   -2.14 KCAL/MOL
REMARK 922        TOTAL FREE ENERGY PREDICTED BY IDOCK:   -5.37 KCAL/MOL
REMARK 923 INTER-LIGAND FREE ENERGY PREDICTED BY IDOCK:   -6.69 KCAL/MOL
REMARK 924 INTRA-LIGAND FREE ENERGY PREDICTED BY IDOCK:    1.32 KCAL/MOL
REMARK 927      BINDING AFFINITY PREDICTED BY RF-SCORE:    0.00 PKD
ROOT
HETATM    1  C   UNL     1      -9.524  14.762  66.256  1.00  0.00    -0.303 C  
HETATM    2  O   UNL     1      -9.453  13.567  65.473  1.00  0.00    -0.014 OA 
ENDROOT
BRANCH   2   3
HETATM    3  C   UNL     1     -10.535  12.761  65.621  1.00  0.00    -0.278 C  
HETATM    4  O   UNL     1     -11.698  13.143  65.595  1.00  0.00    -0.332 OA 
BRANCH   3   5
HETATM    5  C   UNL     1     -10.114  11.356  65.861  1.00  0.00    -0.286 C  
HETATM    6  C   UNL     1      -9.984  10.473  64.835  1.00  0.00    -0.334 C  
HETATM    7  N   UNL     1      -9.634   9.158  65.104  1.00  0.00    -0.059 NA 
HETATM    8  C   UNL     1     -10.195  10.748  63.368  1.00  0.00    -0.287 C  
HETATM    9  C   UNL     1      -9.595   8.599  66.364  1.00  0.00    -0.247 C  
HETATM   10  C   UNL     1      -9.464   7.095  66.419  1.00  0.00    -0.177 C  
HETATM   11  C   UNL     1      -9.700   9.398  67.449  1.00  0.00    -0.205 C  
HETATM   12  C   UNL     1      -9.866  10.915  67.311  1.00  0.00    -0.202 C  
BRANCH  11  13
HETATM   13  C   UNL     1      -9.813   8.784  68.789  1.00  0.00    -0.171 C  
HETATM   14  O   UNL     1     -10.653   7.944  69.079  1.00  0.00    -0.219 OA 
BRANCH  13  15
HETATM   15  O   UNL     1      -8.888   9.295  69.643  1.00  0.00    -0.135 OA 
BRANCH  15  16
HETATM   16  C   UNL     1      -7.560   8.783  69.407  1.00  0.00    -0.088 C  
BRANCH  16  17
HETATM   17  C   UNL     1      -6.695   9.016  70.657  1.00  0.00    -0.064 C  
BRANCH  17  18
HETATM   18  N   UNL     1      -6.319   7.818  71.426  1.00  0.00    -0.035 NA 
HETATM   19  C   UNL     1      -8.648   6.874  71.892  1.00  0.00    -0.118 C  
HETATM   20  C   UNL     1      -7.323   7.454  72.451  1.00  0.00    -0.072 C  
HETATM   21  N   UNL     1      -8.470   5.685  71.021  1.00  0.00    -0.121 NA 
HETATM   22  C   UNL     1      -6.160   6.673  70.492  1.00  0.00    -0.027 C  
HETATM   23  C   UNL     1      -7.492   6.070  69.968  1.00  0.00    -0.083 C  
BRANCH  21  24
HETATM   24  C   UNL     1      -8.028   4.486  71.797  1.00  0.00    -0.097 C  
BRANCH  24  25
HETATM   25  C   UNL     1      -9.175   3.792  72.551  1.00  0.00    -0.144 A  
HETATM   26  C   UNL     1     -10.182   4.571  73.157  1.00  0.00    -0.217 A  
HETATM   27  C   UNL     1      -9.295   2.395  72.624  1.00  0.00    -0.130 A  
HETATM   28  C   UNL     1     -11.258   3.972  73.817  1.00  0.00    -0.252 A  
HETATM   29  C   UNL     1     -11.344   2.586  73.897  1.00  0.00    -0.178 A  
HETATM   30  C   UNL     1     -10.362   1.798  73.303  1.00  0.00    -0.187 A  
ENDBRANCH  24  25
BRANCH  24  31
HETATM   31  C   UNL     1      -7.208   3.508  70.941  1.00  0.00    -0.033 A  
HETATM   32  C   UNL     1      -5.806   1.508  69.546  1.00  0.00    -0.022 A  
HETATM   33  C   UNL     1      -5.130   2.344  70.431  1.00  0.00    -0.004 A  
HETATM   34  C   UNL     1      -7.869   2.669  70.027  1.00  0.00    -0.049 A  
HETATM   35  C   UNL     1      -5.826   3.334  71.128  1.00  0.00    -0.014 A  
HETATM   36  C   UNL     1      -7.174   1.671  69.342  1.00  0.00    -0.036 A  
ENDBRANCH  24  31
ENDBRANCH  21  24
ENDBRANCH  17  18
ENDBRANCH  16  17
ENDBRANCH  15  16
ENDBRANCH  13  15
ENDBRANCH  11  13
BRANCH  12  37
HETATM   37  C   UNL     1     -10.938  11.434  68.283  1.00  0.00    -0.266 A  
HETATM   38  C   UNL     1     -12.869  11.050  69.709  1.00  0.00     0.122 A  
HETATM   39  O   UNL     1     -10.724  15.270  69.855  1.00  0.00    -0.259 OA 
HETATM   40  C   UNL     1     -10.841  12.746  68.791  1.00  0.00    -0.270 A  
HETATM   41  O   UNL     1     -12.468  14.914  71.137  1.00  0.00    -0.286 OA 
HETATM   42  C   UNL     1     -11.755  13.192  69.753  1.00  0.00    -0.280 A  
HETATM   43  C   UNL     1     -12.764  12.344  70.223  1.00  0.00     0.117 A  
HETATM   44  N   UNL     1     -11.639  14.557  70.287  1.00  0.00    -0.278 N  
HETATM   45  C   UNL     1     -11.970  10.602  68.739  1.00  0.00    -0.069 A  
ENDBRANCH  12  37
ENDBRANCH   3   5
ENDBRANCH   2   3
TORSDOF 11
ENDMDL
MODEL      172
REMARK 921   NORMALIZED FREE ENERGY PREDICTED BY IDOCK:   -2.13 KCAL/MOL
REMARK 922        TOTAL FREE ENERGY PREDICTED BY IDOCK:   -5.35 KCAL/MOL
REMARK 923 INTER-LIGAND FREE ENERGY PREDICTED BY IDOCK:   -5.57 KCAL/MOL
REMARK 924 INTRA-LIGAND FREE ENERGY PREDICTED BY IDOCK:    0.22 KCAL/MOL
REMARK 927      BINDING AFFINITY PREDICTED BY RF-SCORE:    0.00 PKD
ROOT
HETATM    1  C   UNL     1      -6.895  14.121  70.741  1.00  0.00     0.634 C  
HETATM    2  O   UNL     1      -7.122  15.219  69.854  1.00  0.00    -0.177 OA 
ENDROOT
BRANCH   2   3
HETATM    3  C   UNL     1      -6.622  15.018  68.608  1.00  0.00    -0.086 C  
HETATM    4  O   UNL     1      -5.683  15.636  68.125  1.00  0.00    -0.108 OA 
BRANCH   3   5
HETATM    5  C   UNL     1      -7.399  13.970  67.894  1.00  0.00    -0.162 C  
HETATM    6  C   UNL     1      -6.808  12.826  67.461  1.00  0.00    -0.153 C  
HETATM    7  N   UNL     1      -7.557  11.893  66.757  1.00  0.00    -0.088 NA 
HETATM    8  C   UNL     1      -5.367  12.422  67.642  1.00  0.00    -0.103 C  
HETATM    9  C   UNL     1      -8.829  12.112  66.274  1.00  0.00    -0.040 C  
HETATM   10  C   UNL     1      -9.357  11.082  65.303  1.00  0.00    -0.245 C  
HETATM   11  C   UNL     1      -9.506  13.217  66.659  1.00  0.00    -0.262 C  
HETATM   12  C   UNL     1      -8.887  14.236  67.623  1.00  0.00    -0.196 C  
BRANCH  11  13
HETATM   13  C   UNL     1     -10.802  13.528  66.023  1.00  0.00    -0.278 C  
HETATM   14  O   UNL     1     -10.911  13.955  64.882  1.00  0.00    -0.345 OA 
BRANCH  13  15
HETATM   15  O   UNL     1     -11.835  13.304  66.877  1.00  0.00    -0.364 OA 
BRANCH  15  16
HETATM   16  C   UNL     1     -12.150  11.904  67.027  1.00  0.00     0.304 C  
BRANCH  16  17
HETATM   17  C   UNL     1     -11.687  11.423  68.412  1.00  0.00    -0.303 C  
BRANCH  17  18
HETATM   18  N   UNL     1     -11.733   9.970  68.650  1.00  0.00     0.050 NA 
HETATM   19  C   UNL     1      -9.250   9.426  68.376  1.00  0.00    -0.127 C  
HETATM   20  C   UNL     1     -10.707   9.230  67.881  1.00  0.00    -0.188 C  
HETATM   21  N   UNL     1      -9.046   9.088  69.807  1.00  0.00    -0.151 NA 
HETATM   22  C   UNL     1     -11.520   9.708  70.096  1.00  0.00    -0.189 C  
HETATM   23  C   UNL     1     -10.052   9.866  70.578  1.00  0.00    -0.140 C  
BRANCH  21  24
HETATM   24  C   UNL     1      -9.155   7.617  70.054  1.00  0.00    -0.151 C  
BRANCH  24  25
HETATM   25  C   UNL     1      -7.969   6.816  69.487  1.00  0.00    -0.125 A  
HETATM   26  C   UNL     1      -7.358   7.231  68.287  1.00  0.00    -0.100 A  
HETATM   27  C   UNL     1      -7.427   5.701  70.147  1.00  0.00    -0.077 A  
HETATM   28  C   UNL     1      -6.256   6.549  67.765  1.00  0.00    -0.031 A  
HETATM   29  C   UNL     1      -5.751   5.431  68.423  1.00  0.00    -0.016 A  
HETATM   30  C   UNL     1      -6.337   5.006  69.611  1.00  0.00    -0.030 A  
ENDBRANCH  24  25
BRANCH  24  31
HETATM   31  C   UNL     1      -9.435   7.292  71.529  1.00  0.00    -0.160 A  
HETATM   32  C   UNL     1      -9.729   6.510  74.215  1.00  0.00    -0.309 A  
HETATM   33  C   UNL     1     -10.621   6.044  73.252  1.00  0.00    -0.276 A  
HETATM   34  C   UNL     1      -8.557   7.770  72.520  1.00  0.00    -0.184 A  
HETATM   35  C   UNL     1     -10.472   6.428  71.918  1.00  0.00    -0.239 A  
HETATM   36  C   UNL     1      -8.699   7.373  73.850  1.00  0.00    -0.258 A  
ENDBRANCH  24  31
ENDBRANCH  21  24
ENDBRANCH  17  18
ENDBRANCH  16  17
ENDBRANCH  15  16
ENDBRANCH  13  15
ENDBRANCH  11  13
BRANCH  12  37
HETATM   37  C   UNL     1      -9.158  15.671  67.142  1.00  0.00    -0.227 A  
HETATM   38  C   UNL     1      -9.511  17.272  65.347  1.00  0.00     0.847 A  
HETATM   39  O   UNL     1     -10.204  18.665  69.820  1.00  0.00     0.228 OA 
HETATM   40  C   UNL     1      -9.502  16.666  68.079  1.00  0.00    -0.224 A  
HETATM   41  O   UNL     1     -10.518  20.102  68.194  1.00  0.00    -0.363 OA 
HETATM   42  C   UNL     1      -9.849  17.950  67.640  1.00  0.00    -0.304 A  
HETATM   43  C   UNL     1      -9.864  18.254  66.275  1.00  0.00    -0.323 A  
HETATM   44  N   UNL     1     -10.218  18.979  68.623  1.00  0.00    -0.364 N  
HETATM   45  C   UNL     1      -9.149  15.994  65.777  1.00  0.00    -0.168 A  
ENDBRANCH  12  37
ENDBRANCH   3   5
ENDBRANCH   2   3
TORSDOF 11
ENDMDL
MODEL      173
REMARK 921   NORMALIZED FREE ENERGY PREDICTED BY IDOCK:   -2.06 KCAL/MOL
REMARK 922        TOTAL FREE ENERGY PREDICTED BY IDOCK:   -5.24 KCAL/MOL
REMARK 923 INTER-LIGAND FREE ENERGY PREDICTED BY IDOCK:   -5.89 KCAL/MOL
REMARK 924 INTRA-LIGAND FREE ENERGY PREDICTED BY IDOCK:    0.65 KCAL/MOL
REMARK 927      BINDING AFFINITY PREDICTED BY RF-SCORE:    0.00 PKD
ROOT
HETATM    1  C   UNL     1     -10.754   4.329  64.924  1.00  0.00    -0.108 C  
HETATM    2  O   UNL     1     -10.887   4.932  66.214  1.00  0.00    -0.259 OA 
ENDROOT
BRANCH   2   3
HETATM    3  C   UNL     1      -9.958   5.892  66.458  1.00  0.00    -0.153 C  
HETATM    4  O   UNL     1      -8.933   6.052  65.809  1.00  0.00    -0.156 OA 
BRANCH   3   5
HETATM    5  C   UNL     1     -10.337   6.696  67.649  1.00  0.00    -0.248 C  
HETATM    6  C   UNL     1     -10.453   8.049  67.580  1.00  0.00    -0.232 C  
HETATM    7  N   UNL     1     -10.763   8.769  68.725  1.00  0.00    -0.137 NA 
HETATM    8  C   UNL     1     -10.265   8.915  66.361  1.00  0.00    -0.273 C  
HETATM    9  C   UNL     1     -10.772   8.248  70.001  1.00  0.00    -0.239 C  
HETATM   10  C   UNL     1     -10.860   9.250  71.127  1.00  0.00    -0.407 C  
HETATM   11  C   UNL     1     -10.678   6.910  70.173  1.00  0.00    -0.270 C  
HETATM   12  C   UNL     1     -10.557   5.958  68.978  1.00  0.00    -0.360 C  
BRANCH  11  13
HETATM   13  C   UNL     1     -10.533   6.367  71.540  1.00  0.00    -0.219 C  
HETATM   14  O   UNL     1     -11.477   6.156  72.287  1.00  0.00    -0.285 OA 
BRANCH  13  15
HETATM   15  O   UNL     1      -9.226   6.165  71.852  1.00  0.00    -0.148 OA 
BRANCH  15  16
HETATM   16  C   UNL     1      -8.440   7.374  71.799  1.00  0.00    -0.107 C  
BRANCH  16  17
HETATM   17  C   UNL     1      -6.965   7.034  72.067  1.00  0.00    -0.065 C  
BRANCH  17  18
HETATM   18  N   UNL     1      -5.965   7.869  71.380  1.00  0.00    -0.034 NA 
HETATM   19  C   UNL     1      -7.033   7.971  69.059  1.00  0.00    -0.058 C  
HETATM   20  C   UNL     1      -5.833   7.540  69.942  1.00  0.00    -0.024 C  
HETATM   21  N   UNL     1      -7.360   9.417  69.144  1.00  0.00    -0.070 NA 
HETATM   22  C   UNL     1      -6.357   9.296  71.504  1.00  0.00    -0.029 C  
HETATM   23  C   UNL     1      -7.533   9.732  70.587  1.00  0.00    -0.025 C  
BRANCH  21  24
HETATM   24  C   UNL     1      -6.311  10.265  68.499  1.00  0.00    -0.051 C  
BRANCH  24  25
HETATM   25  C   UNL     1      -6.122   9.965  67.002  1.00  0.00    -0.059 A  
HETATM   26  C   UNL     1      -6.840   8.907  66.408  1.00  0.00    -0.075 A  
HETATM   27  C   UNL     1      -5.292  10.739  66.175  1.00  0.00    -0.103 A  
HETATM   28  C   UNL     1      -6.721   8.632  65.043  1.00  0.00    -0.068 A  
HETATM   29  C   UNL     1      -5.873   9.397  64.247  1.00  0.00    -0.076 A  
HETATM   30  C   UNL     1      -5.157  10.448  64.814  1.00  0.00    -0.129 A  
ENDBRANCH  24  25
BRANCH  24  31
HETATM   31  C   UNL     1      -6.517  11.761  68.780  1.00  0.00    -0.066 A  
HETATM   32  C   UNL     1      -6.839  14.546  69.014  1.00  0.00    -0.109 A  
HETATM   33  C   UNL     1      -5.675  13.938  69.478  1.00  0.00    -0.093 A  
HETATM   34  C   UNL     1      -7.694  12.391  68.336  1.00  0.00    -0.144 A  
HETATM   35  C   UNL     1      -5.513  12.556  69.358  1.00  0.00    -0.075 A  
HETATM   36  C   UNL     1      -7.848  13.774  68.445  1.00  0.00    -0.143 A  
ENDBRANCH  24  31
ENDBRANCH  21  24
ENDBRANCH  17  18
ENDBRANCH  16  17
ENDBRANCH  15  16
ENDBRANCH  13  15
ENDBRANCH  11  13
BRANCH  12  37
HETATM   37  C   UNL     1      -9.490   4.884  69.246  1.00  0.00    -0.206 A  
HETATM   38  C   UNL     1      -8.840   2.720  70.143  1.00  0.00    -0.148 A  
HETATM   39  O   UNL     1      -5.720   5.138  67.527  1.00  0.00    -0.012 OA 
HETATM   40  C   UNL     1      -8.216   5.006  68.655  1.00  0.00    -0.085 A  
HETATM   41  O   UNL     1      -5.144   3.185  68.343  1.00  0.00    -0.010 OA 
HETATM   42  C   UNL     1      -7.272   3.983  68.811  1.00  0.00    -0.055 A  
HETATM   43  C   UNL     1      -7.584   2.834  69.546  1.00  0.00    -0.043 A  
HETATM   44  N   UNL     1      -5.950   4.112  68.180  1.00  0.00    -0.026 N  
HETATM   45  C   UNL     1      -9.782   3.741  70.005  1.00  0.00    -0.211 A  
ENDBRANCH  12  37
ENDBRANCH   3   5
ENDBRANCH   2   3
TORSDOF 11
ENDMDL
MODEL      174
REMARK 921   NORMALIZED FREE ENERGY PREDICTED BY IDOCK:   -2.03 KCAL/MOL
REMARK 922        TOTAL FREE ENERGY PREDICTED BY IDOCK:   -5.20 KCAL/MOL
REMARK 923 INTER-LIGAND FREE ENERGY PREDICTED BY IDOCK:   -5.89 KCAL/MOL
REMARK 924 INTRA-LIGAND FREE ENERGY PREDICTED BY IDOCK:    0.69 KCAL/MOL
REMARK 927      BINDING AFFINITY PREDICTED BY RF-SCORE:    0.00 PKD
ROOT
HETATM    1  C   UNL     1     -11.036   4.540  65.102  1.00  0.00     0.021 C  
HETATM    2  O   UNL     1     -10.779   4.841  66.477  1.00  0.00    -0.217 OA 
ENDROOT
BRANCH   2   3
HETATM    3  C   UNL     1      -9.794   5.757  66.652  1.00  0.00    -0.165 C  
HETATM    4  O   UNL     1      -8.708   5.731  66.087  1.00  0.00    -0.129 OA 
BRANCH   3   5
HETATM    5  C   UNL     1     -10.197   6.775  67.659  1.00  0.00    -0.225 C  
HETATM    6  C   UNL     1     -10.322   8.086  67.325  1.00  0.00    -0.301 C  
HETATM    7  N   UNL     1     -10.655   9.013  68.303  1.00  0.00    -0.196 NA 
HETATM    8  C   UNL     1     -10.122   8.700  65.963  1.00  0.00     0.038 C  
HETATM    9  C   UNL     1     -10.679   8.750  69.656  1.00  0.00    -0.208 C  
HETATM   10  C   UNL     1     -10.792   9.952  70.564  1.00  0.00    -0.391 C  
HETATM   11  C   UNL     1     -10.577   7.473  70.087  1.00  0.00    -0.241 C  
HETATM   12  C   UNL     1     -10.431   6.307  69.103  1.00  0.00    -0.291 C  
BRANCH  11  13
HETATM   13  C   UNL     1     -10.449   7.208  71.535  1.00  0.00    -0.203 C  
HETATM   14  O   UNL     1     -11.404   7.121  72.294  1.00  0.00    -0.249 OA 
BRANCH  13  15
HETATM   15  O   UNL     1      -9.144   7.106  71.902  1.00  0.00    -0.135 OA 
BRANCH  15  16
HETATM   16  C   UNL     1      -8.419   8.344  71.757  1.00  0.00    -0.165 C  
BRANCH  16  17
HETATM   17  C   UNL     1      -6.909   8.057  71.802  1.00  0.00    -0.067 C  
BRANCH  17  18
HETATM   18  N   UNL     1      -6.047   8.957  71.016  1.00  0.00    -0.043 NA 
HETATM   19  C   UNL     1      -6.719   8.223  68.661  1.00  0.00    -0.059 C  
HETATM   20  C   UNL     1      -5.609   8.358  69.735  1.00  0.00    -0.029 C  
HETATM   21  N   UNL     1      -7.401   9.500  68.330  1.00  0.00    -0.076 NA 
HETATM   22  C   UNL     1      -6.793  10.208  70.722  1.00  0.00     0.095 C  
HETATM   23  C   UNL     1      -7.876  10.076  69.616  1.00  0.00    -0.167 C  
BRANCH  21  24
HETATM   24  C   UNL     1      -6.501  10.435  67.586  1.00  0.00    -0.058 C  
BRANCH  24  25
HETATM   25  C   UNL     1      -6.145   9.941  66.173  1.00  0.00    -0.067 A  
HETATM   26  C   UNL     1      -5.551  10.828  65.253  1.00  0.00    -0.106 A  
HETATM   27  C   UNL     1      -6.342   8.611  65.766  1.00  0.00    -0.056 A  
HETATM   28  C   UNL     1      -5.180  10.402  63.976  1.00  0.00    -0.146 A  
HETATM   29  C   UNL     1      -5.408   9.086  63.585  1.00  0.00    -0.062 A  
HETATM   30  C   UNL     1      -5.991   8.192  64.479  1.00  0.00    -0.052 A  
ENDBRANCH  24  25
BRANCH  24  31
HETATM   31  C   UNL     1      -7.030  11.878  67.590  1.00  0.00    -0.112 A  
HETATM   32  C   UNL     1      -7.937  14.526  67.314  1.00  0.00    -0.216 A  
HETATM   33  C   UNL     1      -6.699  14.271  67.897  1.00  0.00    -0.177 A  
HETATM   34  C   UNL     1      -8.288  12.154  67.023  1.00  0.00    -0.173 A  
HETATM   35  C   UNL     1      -6.245  12.957  68.030  1.00  0.00    -0.110 A  
HETATM   36  C   UNL     1      -8.732  13.469  66.878  1.00  0.00    -0.158 A  
ENDBRANCH  24  31
ENDBRANCH  21  24
ENDBRANCH  17  18
ENDBRANCH  16  17
ENDBRANCH  15  16
ENDBRANCH  13  15
ENDBRANCH  11  13
BRANCH  12  37
HETATM   37  C   UNL     1      -9.359   5.318  69.590  1.00  0.00    -0.174 A  
HETATM   38  C   UNL     1      -7.028   4.690  69.871  1.00  0.00    -0.049 A  
HETATM   39  O   UNL     1     -10.370   2.064  71.961  1.00  0.00    -0.157 OA 
HETATM   40  C   UNL     1      -9.738   4.217  70.386  1.00  0.00    -0.280 A  
HETATM   41  O   UNL     1      -8.263   1.505  72.207  1.00  0.00    -0.044 OA 
HETATM   42  C   UNL     1      -8.758   3.369  70.917  1.00  0.00    -0.075 A  
HETATM   43  C   UNL     1      -7.402   3.608  70.671  1.00  0.00    -0.041 A  
HETATM   44  N   UNL     1      -9.161   2.231  71.756  1.00  0.00    -0.081 N  
HETATM   45  C   UNL     1      -7.999   5.532  69.326  1.00  0.00    -0.095 A  
ENDBRANCH  12  37
ENDBRANCH   3   5
ENDBRANCH   2   3
TORSDOF 11
ENDMDL
MODEL      175
REMARK 921   NORMALIZED FREE ENERGY PREDICTED BY IDOCK:   -2.02 KCAL/MOL
REMARK 922        TOTAL FREE ENERGY PREDICTED BY IDOCK:   -5.17 KCAL/MOL
REMARK 923 INTER-LIGAND FREE ENERGY PREDICTED BY IDOCK:   -8.31 KCAL/MOL
REMARK 924 INTRA-LIGAND FREE ENERGY PREDICTED BY IDOCK:    3.14 KCAL/MOL
REMARK 927      BINDING AFFINITY PREDICTED BY RF-SCORE:    0.00 PKD
ROOT
HETATM    1  C   UNL     1     -10.005  14.697  65.411  1.00  0.00    -0.330 C  
HETATM    2  O   UNL     1     -10.287  13.956  66.601  1.00  0.00    -0.271 OA 
ENDROOT
BRANCH   2   3
HETATM    3  C   UNL     1     -11.346  13.116  66.475  1.00  0.00    -0.315 C  
HETATM    4  O   UNL     1     -12.134  13.123  65.538  1.00  0.00    -0.390 OA 
BRANCH   3   5
HETATM    5  C   UNL     1     -11.443  12.214  67.653  1.00  0.00    -0.399 C  
HETATM    6  C   UNL     1     -11.791  12.688  68.878  1.00  0.00    -0.302 C  
HETATM    7  N   UNL     1     -11.826  11.822  69.962  1.00  0.00    -0.341 NA 
HETATM    8  C   UNL     1     -12.151  14.108  69.234  1.00  0.00    -0.364 C  
HETATM    9  C   UNL     1     -11.338  10.533  69.952  1.00  0.00    -0.309 C  
HETATM   10  C   UNL     1     -11.216   9.859  71.298  1.00  0.00    -0.356 C  
HETATM   11  C   UNL     1     -10.978   9.967  68.778  1.00  0.00    -0.242 C  
HETATM   12  C   UNL     1     -11.099  10.730  67.454  1.00  0.00    -0.363 C  
BRANCH  11  13
HETATM   13  C   UNL     1     -10.314   8.648  68.787  1.00  0.00    -0.208 C  
HETATM   14  O   UNL     1     -10.734   7.674  68.178  1.00  0.00    -0.165 OA 
BRANCH  13  15
HETATM   15  O   UNL     1      -9.206   8.661  69.574  1.00  0.00    -0.148 OA 
BRANCH  15  16
HETATM   16  C   UNL     1      -7.991   8.398  68.842  1.00  0.00    -0.115 C  
BRANCH  16  17
HETATM   17  C   UNL     1      -8.159   7.108  68.022  1.00  0.00    -0.120 C  
BRANCH  17  18
HETATM   18  N   UNL     1      -7.564   5.887  68.594  1.00  0.00    -0.089 NA 
HETATM   19  C   UNL     1      -9.356   5.326  70.329  1.00  0.00    -0.158 C  
HETATM   20  C   UNL     1      -7.884   5.711  70.028  1.00  0.00    -0.090 C  
HETATM   21  N   UNL     1      -9.817   4.100  69.629  1.00  0.00    -0.198 NA 
HETATM   22  C   UNL     1      -8.070   4.706  67.848  1.00  0.00    -0.092 C  
HETATM   23  C   UNL     1      -9.532   4.301  68.184  1.00  0.00    -0.157 C  
BRANCH  21  24
HETATM   24  C   UNL     1      -9.163   2.869  70.172  1.00  0.00    -0.137 C  
BRANCH  24  25
HETATM   25  C   UNL     1      -7.756   2.625  69.600  1.00  0.00    -0.046 A  
HETATM   26  C   UNL     1      -6.630   3.127  70.283  1.00  0.00    -0.033 A  
HETATM   27  C   UNL     1      -7.534   1.873  68.435  1.00  0.00    -0.043 A  
HETATM   28  C   UNL     1      -5.336   2.891  69.812  1.00  0.00    -0.012 A  
HETATM   29  C   UNL     1      -5.141   2.163  68.641  1.00  0.00    -0.011 A  
HETATM   30  C   UNL     1      -6.239   1.656  67.953  1.00  0.00    -0.024 A  
ENDBRANCH  24  25
BRANCH  24  31
HETATM   31  C   UNL     1      -9.192   2.823  71.707  1.00  0.00    -0.171 A  
HETATM   32  C   UNL     1      -9.370   2.479  74.493  1.00  0.00    -0.106 A  
HETATM   33  C   UNL     1     -10.261   3.324  73.838  1.00  0.00    -0.211 A  
HETATM   34  C   UNL     1      -8.287   1.991  72.390  1.00  0.00    -0.054 A  
HETATM   35  C   UNL     1     -10.177   3.492  72.454  1.00  0.00    -0.205 A  
HETATM   36  C   UNL     1      -8.382   1.814  73.771  1.00  0.00    -0.050 A  
ENDBRANCH  24  31
ENDBRANCH  21  24
ENDBRANCH  17  18
ENDBRANCH  16  17
ENDBRANCH  15  16
ENDBRANCH  13  15
ENDBRANCH  11  13
BRANCH  12  37
HETATM   37  C   UNL     1      -9.844  10.520  66.591  1.00  0.00    -0.246 A  
HETATM   38  C   UNL     1      -8.793   9.799  64.521  1.00  0.00    -0.248 A  
HETATM   39  O   UNL     1      -6.170  12.068  67.746  1.00  0.00    -0.062 OA 
HETATM   40  C   UNL     1      -8.610  11.051  67.017  1.00  0.00    -0.140 A  
HETATM   41  O   UNL     1      -5.230  11.411  65.876  1.00  0.00    -0.277 OA 
HETATM   42  C   UNL     1      -7.483  10.952  66.190  1.00  0.00    -0.107 A  
HETATM   43  C   UNL     1      -7.573  10.336  64.937  1.00  0.00    -0.119 A  
HETATM   44  N   UNL     1      -6.203  11.519  66.637  1.00  0.00    -0.139 N  
HETATM   45  C   UNL     1      -9.917   9.879  65.346  1.00  0.00    -0.349 A  
ENDBRANCH  12  37
ENDBRANCH   3   5
ENDBRANCH   2   3
TORSDOF 11
ENDMDL
MODEL      176
REMARK 921   NORMALIZED FREE ENERGY PREDICTED BY IDOCK:   -2.01 KCAL/MOL
REMARK 922        TOTAL FREE ENERGY PREDICTED BY IDOCK:   -5.16 KCAL/MOL
REMARK 923 INTER-LIGAND FREE ENERGY PREDICTED BY IDOCK:   -9.50 KCAL/MOL
REMARK 924 INTRA-LIGAND FREE ENERGY PREDICTED BY IDOCK:    4.34 KCAL/MOL
REMARK 927      BINDING AFFINITY PREDICTED BY RF-SCORE:    0.00 PKD
ROOT
HETATM    1  C   UNL     1      -8.321  14.349  66.839  1.00  0.00    -0.078 C  
HETATM    2  O   UNL     1      -7.605  13.163  67.193  1.00  0.00    -0.117 OA 
ENDROOT
BRANCH   2   3
HETATM    3  C   UNL     1      -8.325  12.309  67.963  1.00  0.00    -0.165 C  
HETATM    4  O   UNL     1      -9.208  12.647  68.741  1.00  0.00    -0.019 OA 
BRANCH   3   5
HETATM    5  C   UNL     1      -7.866  10.909  67.764  1.00  0.00    -0.109 C  
HETATM    6  C   UNL     1      -6.709  10.460  68.318  1.00  0.00    -0.061 C  
HETATM    7  N   UNL     1      -6.291   9.160  68.072  1.00  0.00    -0.054 NA 
HETATM    8  C   UNL     1      -5.764  11.235  69.201  1.00  0.00    -0.041 C  
HETATM    9  C   UNL     1      -6.853   8.321  67.134  1.00  0.00    -0.070 C  
HETATM   10  C   UNL     1      -6.082   7.058  66.826  1.00  0.00    -0.037 C  
HETATM   11  C   UNL     1      -8.014   8.672  66.537  1.00  0.00    -0.099 C  
HETATM   12  C   UNL     1      -8.720   9.989  66.878  1.00  0.00    -0.135 C  
BRANCH  11  13
HETATM   13  C   UNL     1      -8.532   7.849  65.425  1.00  0.00    -0.119 C  
HETATM   14  O   UNL     1      -8.749   8.285  64.304  1.00  0.00     0.034 OA 
BRANCH  13  15
HETATM   15  O   UNL     1      -8.755   6.569  65.825  1.00  0.00    -0.151 OA 
BRANCH  15  16
HETATM   16  C   UNL     1      -9.970   6.421  66.590  1.00  0.00    -0.149 C  
BRANCH  16  17
HETATM   17  C   UNL     1      -9.621   5.944  68.010  1.00  0.00    -0.116 C  
BRANCH  17  18
HETATM   18  N   UNL     1      -9.552   6.985  69.051  1.00  0.00    -0.142 NA 
HETATM   19  C   UNL     1     -11.970   6.905  69.877  1.00  0.00     0.009 C  
HETATM   20  C   UNL     1     -10.828   7.718  69.214  1.00  0.00    -0.080 C  
HETATM   21  N   UNL     1     -11.621   6.343  71.207  1.00  0.00    -0.315 NA 
HETATM   22  C   UNL     1      -9.202   6.351  70.348  1.00  0.00    -0.155 C  
HETATM   23  C   UNL     1     -10.362   5.572  71.027  1.00  0.00    -0.239 C  
BRANCH  21  24
HETATM   24  C   UNL     1     -11.491   7.409  72.247  1.00  0.00    -0.288 C  
BRANCH  24  25
HETATM   25  C   UNL     1     -10.092   7.470  72.884  1.00  0.00    -0.315 A  
HETATM   26  C   UNL     1      -9.715   6.495  73.829  1.00  0.00    -0.227 A  
HETATM   27  C   UNL     1      -9.141   8.440  72.528  1.00  0.00    -0.326 A  
HETATM   28  C   UNL     1      -8.439   6.499  74.399  1.00  0.00    -0.152 A  
HETATM   29  C   UNL     1      -7.520   7.484  74.049  1.00  0.00    -0.141 A  
HETATM   30  C   UNL     1      -7.873   8.455  73.115  1.00  0.00    -0.140 A  
ENDBRANCH  24  25
BRANCH  24  31
HETATM   31  C   UNL     1     -11.969   8.779  71.740  1.00  0.00    -0.418 A  
HETATM   32  C   UNL     1     -12.647  11.403  70.988  1.00  0.00    -0.487 A  
HETATM   33  C   UNL     1     -13.473  10.691  71.853  1.00  0.00    -0.341 A  
HETATM   34  C   UNL     1     -11.158   9.506  70.849  1.00  0.00    -0.406 A  
HETATM   35  C   UNL     1     -13.135   9.390  72.231  1.00  0.00    -0.509 A  
HETATM   36  C   UNL     1     -11.491  10.812  70.485  1.00  0.00    -0.367 A  
ENDBRANCH  24  31
ENDBRANCH  21  24
ENDBRANCH  17  18
ENDBRANCH  16  17
ENDBRANCH  15  16
ENDBRANCH  13  15
ENDBRANCH  11  13
BRANCH  12  37
HETATM   37  C   UNL     1      -9.215  10.686  65.601  1.00  0.00    -0.227 A  
HETATM   38  C   UNL     1      -8.946  11.237  63.248  1.00  0.00    -0.093 A  
HETATM   39  O   UNL     1     -13.014  12.347  65.404  1.00  0.00    -0.353 OA 
HETATM   40  C   UNL     1     -10.508  11.248  65.571  1.00  0.00    -0.323 A  
HETATM   41  O   UNL     1     -12.761  12.842  63.282  1.00  0.00    -0.662 OA 
HETATM   42  C   UNL     1     -11.005  11.795  64.381  1.00  0.00    -0.339 A  
HETATM   43  C   UNL     1     -10.232  11.782  63.215  1.00  0.00    -0.452 A  
HETATM   44  N   UNL     1     -12.359  12.368  64.355  1.00  0.00    -0.451 N  
HETATM   45  C   UNL     1      -8.437  10.704  64.434  1.00  0.00    -0.070 A  
ENDBRANCH  12  37
ENDBRANCH   3   5
ENDBRANCH   2   3
TORSDOF 11
ENDMDL
MODEL      177
REMARK 921   NORMALIZED FREE ENERGY PREDICTED BY IDOCK:   -1.99 KCAL/MOL
REMARK 922        TOTAL FREE ENERGY PREDICTED BY IDOCK:   -5.14 KCAL/MOL
REMARK 923 INTER-LIGAND FREE ENERGY PREDICTED BY IDOCK:   -5.77 KCAL/MOL
REMARK 924 INTRA-LIGAND FREE ENERGY PREDICTED BY IDOCK:    0.63 KCAL/MOL
REMARK 927      BINDING AFFINITY PREDICTED BY RF-SCORE:    0.00 PKD
ROOT
HETATM    1  C   UNL     1     -10.485  18.498  67.529  1.00  0.00    -0.418 C  
HETATM    2  O   UNL     1     -10.648  17.090  67.336  1.00  0.00    -0.328 OA 
ENDROOT
BRANCH   2   3
HETATM    3  C   UNL     1     -10.110  16.343  68.333  1.00  0.00    -0.245 C  
HETATM    4  O   UNL     1      -9.556  16.799  69.324  1.00  0.00    -0.219 OA 
BRANCH   3   5
HETATM    5  C   UNL     1     -10.247  14.893  68.034  1.00  0.00    -0.228 C  
HETATM    6  C   UNL     1     -10.055  14.409  66.779  1.00  0.00    -0.266 C  
HETATM    7  N   UNL     1     -10.237  13.057  66.531  1.00  0.00    -0.263 NA 
HETATM    8  C   UNL     1      -9.662  15.195  65.553  1.00  0.00    -0.303 C  
HETATM    9  C   UNL     1     -10.800  12.166  67.419  1.00  0.00    -0.245 C  
HETATM   10  C   UNL     1     -11.164  10.810  66.860  1.00  0.00    -0.109 C  
HETATM   11  C   UNL     1     -11.017  12.548  68.698  1.00  0.00    -0.291 C  
HETATM   12  C   UNL     1     -10.652  13.956  69.182  1.00  0.00    -0.124 C  
BRANCH  11  13
HETATM   13  C   UNL     1     -11.759  11.648  69.605  1.00  0.00    -0.350 C  
HETATM   14  O   UNL     1     -12.972  11.501  69.568  1.00  0.00     0.250 OA 
BRANCH  13  15
HETATM   15  O   UNL     1     -10.922  11.041  70.486  1.00  0.00     0.029 OA 
BRANCH  15  16
HETATM   16  C   UNL     1     -11.340   9.703  70.831  1.00  0.00    -0.360 C  
BRANCH  16  17
HETATM   17  C   UNL     1     -10.636   8.696  69.907  1.00  0.00    -0.224 C  
BRANCH  17  18
HETATM   18  N   UNL     1     -10.886   7.271  70.181  1.00  0.00    -0.251 NA 
HETATM   19  C   UNL     1      -8.858   6.259  68.998  1.00  0.00    -0.124 C  
HETATM   20  C   UNL     1     -10.400   6.385  69.098  1.00  0.00    -0.208 C  
HETATM   21  N   UNL     1      -8.203   5.808  70.252  1.00  0.00    -0.108 NA 
HETATM   22  C   UNL     1     -10.202   6.892  71.444  1.00  0.00    -0.197 C  
HETATM   23  C   UNL     1      -8.662   6.727  71.328  1.00  0.00    -0.128 C  
BRANCH  21  24
HETATM   24  C   UNL     1      -8.511   4.377  70.558  1.00  0.00    -0.077 C  
BRANCH  24  25
HETATM   25  C   UNL     1      -7.318   3.434  70.323  1.00  0.00    -0.041 A  
HETATM   26  C   UNL     1      -6.298   3.346  71.292  1.00  0.00    -0.018 A  
HETATM   27  C   UNL     1      -7.219   2.609  69.191  1.00  0.00    -0.044 A  
HETATM   28  C   UNL     1      -5.220   2.472  71.127  1.00  0.00    -0.004 A  
HETATM   29  C   UNL     1      -5.130   1.681  69.985  1.00  0.00    -0.004 A  
HETATM   30  C   UNL     1      -6.128   1.752  69.017  1.00  0.00    -0.024 A  
ENDBRANCH  24  25
BRANCH  24  31
HETATM   31  C   UNL     1      -9.136   4.200  71.951  1.00  0.00    -0.165 A  
HETATM   32  C   UNL     1     -10.171   3.609  74.499  1.00  0.00    -0.240 A  
HETATM   33  C   UNL     1     -11.012   3.616  73.390  1.00  0.00    -0.312 A  
HETATM   34  C   UNL     1      -8.305   4.209  73.087  1.00  0.00    -0.090 A  
HETATM   35  C   UNL     1     -10.499   3.905  72.124  1.00  0.00    -0.060 A  
HETATM   36  C   UNL     1      -8.819   3.907  74.349  1.00  0.00    -0.097 A  
ENDBRANCH  24  31
ENDBRANCH  21  24
ENDBRANCH  17  18
ENDBRANCH  16  17
ENDBRANCH  15  16
ENDBRANCH  13  15
ENDBRANCH  11  13
BRANCH  12  37
HETATM   37  C   UNL     1     -11.776  14.537  70.056  1.00  0.00    -0.359 A  
HETATM   38  C   UNL     1     -14.090  15.222  70.353  1.00  0.00     0.751 A  
HETATM   39  O   UNL     1     -11.236  15.114  74.131  1.00  0.00     0.785 OA 
HETATM   40  C   UNL     1     -11.556  14.730  71.435  1.00  0.00    -0.305 A  
HETATM   41  O   UNL     1     -13.325  15.733  74.387  1.00  0.00    -0.022 OA 
HETATM   42  C   UNL     1     -12.605  15.162  72.256  1.00  0.00    -0.344 A  
HETATM   43  C   UNL     1     -13.876  15.400  71.721  1.00  0.00    -0.620 A  
HETATM   44  N   UNL     1     -12.371  15.348  73.696  1.00  0.00    -0.517 N  
HETATM   45  C   UNL     1     -13.046  14.805  69.524  1.00  0.00     0.748 A  
ENDBRANCH  12  37
ENDBRANCH   3   5
ENDBRANCH   2   3
TORSDOF 11
ENDMDL
MODEL      178
REMARK 921   NORMALIZED FREE ENERGY PREDICTED BY IDOCK:   -1.98 KCAL/MOL
REMARK 922        TOTAL FREE ENERGY PREDICTED BY IDOCK:   -5.11 KCAL/MOL
REMARK 923 INTER-LIGAND FREE ENERGY PREDICTED BY IDOCK:   -8.44 KCAL/MOL
REMARK 924 INTRA-LIGAND FREE ENERGY PREDICTED BY IDOCK:    3.32 KCAL/MOL
REMARK 927      BINDING AFFINITY PREDICTED BY RF-SCORE:    0.00 PKD
ROOT
HETATM    1  C   UNL     1      -6.123   4.710  69.148  1.00  0.00    -0.029 C  
HETATM    2  O   UNL     1      -6.329   4.240  70.483  1.00  0.00    -0.021 OA 
ENDROOT
BRANCH   2   3
HETATM    3  C   UNL     1      -7.175   5.019  71.204  1.00  0.00    -0.064 C  
HETATM    4  O   UNL     1      -8.162   4.611  71.801  1.00  0.00    -0.100 OA 
BRANCH   3   5
HETATM    5  C   UNL     1      -6.762   6.446  71.133  1.00  0.00    -0.058 C  
HETATM    6  C   UNL     1      -5.883   6.971  72.027  1.00  0.00    -0.037 C  
HETATM    7  N   UNL     1      -5.558   8.318  71.956  1.00  0.00    -0.037 NA 
HETATM    8  C   UNL     1      -5.189   6.246  73.151  1.00  0.00    -0.035 C  
HETATM    9  C   UNL     1      -6.209   9.242  71.167  1.00  0.00    -0.075 C  
HETATM   10  C   UNL     1      -5.889  10.693  71.441  1.00  0.00     0.235 C  
HETATM   11  C   UNL     1      -7.092   8.816  70.237  1.00  0.00    -0.045 C  
HETATM   12  C   UNL     1      -7.390   7.325  70.041  1.00  0.00    -0.083 C  
BRANCH  11  13
HETATM   13  C   UNL     1      -7.901   9.810  69.501  1.00  0.00    -0.128 C  
HETATM   14  O   UNL     1      -8.910  10.331  69.954  1.00  0.00    -0.126 OA 
BRANCH  13  15
HETATM   15  O   UNL     1      -7.389  10.039  68.263  1.00  0.00    -0.077 OA 
BRANCH  15  16
HETATM   16  C   UNL     1      -6.335  11.025  68.262  1.00  0.00    -0.056 C  
BRANCH  16  17
HETATM   17  C   UNL     1      -6.913  12.387  67.843  1.00  0.00    -0.106 C  
BRANCH  17  18
HETATM   18  N   UNL     1      -8.382  12.486  67.786  1.00  0.00    -0.158 NA 
HETATM   19  C   UNL     1      -8.687  14.764  68.907  1.00  0.00    -0.161 C  
HETATM   20  C   UNL     1      -8.950  13.235  68.929  1.00  0.00     0.284 C  
HETATM   21  N   UNL     1      -9.154  15.441  67.670  1.00  0.00    -0.181 NA 
HETATM   22  C   UNL     1      -8.774  13.173  66.529  1.00  0.00     0.094 C  
HETATM   23  C   UNL     1      -8.546  14.709  66.527  1.00  0.00     0.012 C  
BRANCH  21  24
HETATM   24  C   UNL     1     -10.647  15.484  67.588  1.00  0.00    -0.291 C  
BRANCH  24  25
HETATM   25  C   UNL     1     -11.219  14.615  66.454  1.00  0.00    -0.336 A  
HETATM   26  C   UNL     1     -11.686  13.316  66.739  1.00  0.00    -0.434 A  
HETATM   27  C   UNL     1     -11.344  15.081  65.135  1.00  0.00    -0.372 A  
HETATM   28  C   UNL     1     -12.246  12.515  65.741  1.00  0.00    -0.361 A  
HETATM   29  C   UNL     1     -12.337  12.989  64.435  1.00  0.00    -0.442 A  
HETATM   30  C   UNL     1     -11.884  14.270  64.132  1.00  0.00    -0.338 A  
ENDBRANCH  24  25
BRANCH  24  31
HETATM   31  C   UNL     1     -11.313  15.199  68.943  1.00  0.00    -0.314 A  
HETATM   32  C   UNL     1     -12.272  14.597  71.518  1.00  0.00    -0.416 A  
HETATM   33  C   UNL     1     -12.509  13.719  70.464  1.00  0.00    -0.409 A  
HETATM   34  C   UNL     1     -11.102  16.084  70.016  1.00  0.00    -0.362 A  
HETATM   35  C   UNL     1     -12.030  14.014  69.186  1.00  0.00    -0.400 A  
HETATM   36  C   UNL     1     -11.570  15.779  71.295  1.00  0.00    -0.499 A  
ENDBRANCH  24  31
ENDBRANCH  21  24
ENDBRANCH  17  18
ENDBRANCH  16  17
ENDBRANCH  15  16
ENDBRANCH  13  15
ENDBRANCH  11  13
BRANCH  12  37
HETATM   37  C   UNL     1      -8.900   7.090  69.883  1.00  0.00    -0.142 A  
HETATM   38  C   UNL     1     -10.782   6.156  68.658  1.00  0.00    -0.370 A  
HETATM   39  O   UNL     1     -11.545   8.027  72.942  1.00  0.00    -0.397 OA 
HETATM   40  C   UNL     1      -9.772   7.428  70.937  1.00  0.00    -0.169 A  
HETATM   41  O   UNL     1     -13.236   7.184  71.828  1.00  0.00    -0.355 OA 
HETATM   42  C   UNL     1     -11.136   7.125  70.842  1.00  0.00    -0.263 A  
HETATM   43  C   UNL     1     -11.643   6.479  69.709  1.00  0.00    -0.392 A  
HETATM   44  N   UNL     1     -12.037   7.470  71.952  1.00  0.00    -0.296 N  
HETATM   45  C   UNL     1      -9.424   6.469  68.739  1.00  0.00    -0.128 A  
ENDBRANCH  12  37
ENDBRANCH   3   5
ENDBRANCH   2   3
TORSDOF 11
ENDMDL
MODEL      179
REMARK 921   NORMALIZED FREE ENERGY PREDICTED BY IDOCK:   -1.95 KCAL/MOL
REMARK 922        TOTAL FREE ENERGY PREDICTED BY IDOCK:   -5.06 KCAL/MOL
REMARK 923 INTER-LIGAND FREE ENERGY PREDICTED BY IDOCK:   -7.90 KCAL/MOL
REMARK 924 INTRA-LIGAND FREE ENERGY PREDICTED BY IDOCK:    2.83 KCAL/MOL
REMARK 927      BINDING AFFINITY PREDICTED BY RF-SCORE:    0.00 PKD
ROOT
HETATM    1  C   UNL     1      -8.149   6.329  66.746  1.00  0.00    -0.109 C  
HETATM    2  O   UNL     1      -9.044   7.297  66.191  1.00  0.00    -0.166 OA 
ENDROOT
BRANCH   2   3
HETATM    3  C   UNL     1      -8.519   8.548  66.139  1.00  0.00    -0.132 C  
HETATM    4  O   UNL     1      -7.325   8.800  66.047  1.00  0.00    -0.086 OA 
BRANCH   3   5
HETATM    5  C   UNL     1      -9.592   9.571  66.251  1.00  0.00    -0.287 C  
HETATM    6  C   UNL     1      -9.808  10.479  65.263  1.00  0.00    -0.284 C  
HETATM    7  N   UNL     1     -10.788  11.447  65.426  1.00  0.00    -0.261 NA 
HETATM    8  C   UNL     1      -9.075  10.584  63.950  1.00  0.00    -0.257 C  
HETATM    9  C   UNL     1     -11.447  11.705  66.608  1.00  0.00    -0.206 C  
HETATM   10  C   UNL     1     -12.268  12.973  66.649  1.00  0.00    -0.285 C  
HETATM   11  C   UNL     1     -11.308  10.851  67.647  1.00  0.00    -0.345 C  
HETATM   12  C   UNL     1     -10.428   9.601  67.540  1.00  0.00    -0.321 C  
BRANCH  11  13
HETATM   13  C   UNL     1     -11.889  11.208  68.958  1.00  0.00    -0.348 C  
HETATM   14  O   UNL     1     -12.915  10.712  69.401  1.00  0.00    -0.045 OA 
BRANCH  13  15
HETATM   15  O   UNL     1     -11.151  12.167  69.577  1.00  0.00    -0.170 OA 
BRANCH  15  16
HETATM   16  C   UNL     1     -11.954  13.092  70.339  1.00  0.00    -0.258 C  
BRANCH  16  17
HETATM   17  C   UNL     1     -11.385  14.511  70.179  1.00  0.00    -0.197 C  
BRANCH  17  18
HETATM   18  N   UNL     1     -10.603  14.769  68.958  1.00  0.00    -0.243 NA 
HETATM   19  C   UNL     1     -11.738  16.927  68.187  1.00  0.00     0.609 C  
HETATM   20  C   UNL     1     -11.394  15.441  67.902  1.00  0.00    -0.325 C  
HETATM   21  N   UNL     1     -10.554  17.783  68.452  1.00  0.00    -0.334 NA 
HETATM   22  C   UNL     1      -9.441  15.630  69.298  1.00  0.00    -0.264 C  
HETATM   23  C   UNL     1      -9.786  17.124  69.542  1.00  0.00     0.125 C  
BRANCH  21  24
HETATM   24  C   UNL     1      -9.729  17.991  67.222  1.00  0.00    -0.297 C  
BRANCH  24  25
HETATM   25  C   UNL     1      -8.219  18.063  67.507  1.00  0.00    -0.235 A  
HETATM   26  C   UNL     1      -7.750  18.841  68.585  1.00  0.00    -0.358 A  
HETATM   27  C   UNL     1      -7.274  17.340  66.761  1.00  0.00    -0.249 A  
HETATM   28  C   UNL     1      -6.389  18.898  68.895  1.00  0.00    -0.275 A  
HETATM   29  C   UNL     1      -5.467  18.192  68.126  1.00  0.00    -0.161 A  
HETATM   30  C   UNL     1      -5.910  17.416  67.059  1.00  0.00    -0.186 A  
ENDBRANCH  24  25
BRANCH  24  31
HETATM   31  C   UNL     1     -10.073  16.985  66.113  1.00  0.00    -0.332 A  
HETATM   32  C   UNL     1     -10.938  15.074  64.238  1.00  0.00     0.169 A  
HETATM   33  C   UNL     1      -9.886  14.777  65.101  1.00  0.00    -0.164 A  
HETATM   34  C   UNL     1     -11.120  17.274  65.218  1.00  0.00     0.243 A  
HETATM   35  C   UNL     1      -9.459  15.723  66.036  1.00  0.00    -0.392 A  
HETATM   36  C   UNL     1     -11.554  16.322  64.295  1.00  0.00     0.033 A  
ENDBRANCH  24  31
ENDBRANCH  21  24
ENDBRANCH  17  18
ENDBRANCH  16  17
ENDBRANCH  15  16
ENDBRANCH  13  15
ENDBRANCH  11  13
BRANCH  12  37
HETATM   37  C   UNL     1      -9.575   9.428  68.807  1.00  0.00    -0.156 A  
HETATM   38  C   UNL     1      -8.982   8.181  70.809  1.00  0.00    -0.156 A  
HETATM   39  O   UNL     1      -6.259  11.828  69.499  1.00  0.00    -0.091 OA 
HETATM   40  C   UNL     1      -8.461  10.266  69.016  1.00  0.00    -0.150 A  
HETATM   41  O   UNL     1      -5.734  10.698  71.304  1.00  0.00    -0.289 OA 
HETATM   42  C   UNL     1      -7.620  10.051  70.115  1.00  0.00    -0.155 A  
HETATM   43  C   UNL     1      -7.871   9.003  71.008  1.00  0.00    -0.174 A  
HETATM   44  N   UNL     1      -6.453  10.922  70.319  1.00  0.00    -0.146 N  
HETATM   45  C   UNL     1      -9.834   8.398  69.724  1.00  0.00    -0.187 A  
ENDBRANCH  12  37
ENDBRANCH   3   5
ENDBRANCH   2   3
TORSDOF 11
ENDMDL
MODEL      180
REMARK 921   NORMALIZED FREE ENERGY PREDICTED BY IDOCK:   -1.90 KCAL/MOL
REMARK 922        TOTAL FREE ENERGY PREDICTED BY IDOCK:   -4.98 KCAL/MOL
REMARK 923 INTER-LIGAND FREE ENERGY PREDICTED BY IDOCK:   -6.41 KCAL/MOL
REMARK 924 INTRA-LIGAND FREE ENERGY PREDICTED BY IDOCK:    1.43 KCAL/MOL
REMARK 927      BINDING AFFINITY PREDICTED BY RF-SCORE:    0.00 PKD
ROOT
HETATM    1  C   UNL     1     -12.172  13.783  62.760  1.00  0.00     1.361 C  
HETATM    2  O   UNL     1     -11.549  12.858  63.656  1.00  0.00    -0.448 OA 
ENDROOT
BRANCH   2   3
HETATM    3  C   UNL     1     -12.423  12.257  64.503  1.00  0.00    -0.377 C  
HETATM    4  O   UNL     1     -13.332  11.515  64.156  1.00  0.00    -0.086 OA 
BRANCH   3   5
HETATM    5  C   UNL     1     -12.151  12.658  65.909  1.00  0.00    -0.459 C  
HETATM    6  C   UNL     1     -12.347  13.935  66.329  1.00  0.00    -0.449 C  
HETATM    7  N   UNL     1     -12.037  14.281  67.637  1.00  0.00    -0.354 NA 
HETATM    8  C   UNL     1     -12.872  15.089  65.514  1.00  0.00     0.530 C  
HETATM    9  C   UNL     1     -11.347  13.476  68.518  1.00  0.00    -0.292 C  
HETATM   10  C   UNL     1     -10.871  14.139  69.789  1.00  0.00     0.010 C  
HETATM   11  C   UNL     1     -11.115  12.184  68.196  1.00  0.00    -0.295 C  
HETATM   12  C   UNL     1     -11.601  11.592  66.869  1.00  0.00    -0.166 C  
BRANCH  11  13
HETATM   13  C   UNL     1     -10.245  11.368  69.069  1.00  0.00    -0.117 C  
HETATM   14  O   UNL     1     -10.584  10.959  70.170  1.00  0.00    -0.051 OA 
BRANCH  13  15
HETATM   15  O   UNL     1      -9.029  11.164  68.497  1.00  0.00    -0.158 OA 
BRANCH  15  16
HETATM   16  C   UNL     1      -8.081  12.207  68.800  1.00  0.00     0.033 C  
BRANCH  16  17
HETATM   17  C   UNL     1      -8.231  13.345  67.777  1.00  0.00    -0.172 C  
BRANCH  17  18
HETATM   18  N   UNL     1      -7.032  14.163  67.526  1.00  0.00    -0.184 NA 
HETATM   19  C   UNL     1      -8.148  16.435  67.168  1.00  0.00    -0.181 C  
HETATM   20  C   UNL     1      -7.287  15.282  66.591  1.00  0.00     0.620 C  
HETATM   21  N   UNL     1      -7.607  17.030  68.416  1.00  0.00    -0.210 NA 
HETATM   22  C   UNL     1      -6.550  14.724  68.814  1.00  0.00    -0.088 C  
HETATM   23  C   UNL     1      -7.393  15.906  69.367  1.00  0.00    -0.217 C  
BRANCH  21  24
HETATM   24  C   UNL     1      -6.355  17.809  68.166  1.00  0.00    -0.182 C  
BRANCH  24  25
HETATM   25  C   UNL     1      -6.438  18.708  66.920  1.00  0.00    -0.203 A  
HETATM   26  C   UNL     1      -5.368  18.727  66.002  1.00  0.00    -0.179 A  
HETATM   27  C   UNL     1      -7.567  19.489  66.626  1.00  0.00    -0.271 A  
HETATM   28  C   UNL     1      -5.427  19.503  64.842  1.00  0.00    -0.217 A  
HETATM   29  C   UNL     1      -6.547  20.288  64.583  1.00  0.00    -0.266 A  
HETATM   30  C   UNL     1      -7.615  20.282  65.475  1.00  0.00    -0.058 A  
ENDBRANCH  24  25
BRANCH  24  31
HETATM   31  C   UNL     1      -5.883  18.571  69.414  1.00  0.00    -0.249 A  
HETATM   32  C   UNL     1      -5.277  19.903  71.816  1.00  0.00    -0.425 A  
HETATM   33  C   UNL     1      -5.615  20.633  70.680  1.00  0.00    -0.229 A  
HETATM   34  C   UNL     1      -5.519  17.850  70.566  1.00  0.00    -0.245 A  
HETATM   35  C   UNL     1      -5.921  19.973  69.489  1.00  0.00    -0.351 A  
HETATM   36  C   UNL     1      -5.227  18.512  71.759  1.00  0.00    -0.059 A  
ENDBRANCH  24  31
ENDBRANCH  21  24
ENDBRANCH  17  18
ENDBRANCH  16  17
ENDBRANCH  15  16
ENDBRANCH  13  15
ENDBRANCH  11  13
BRANCH  12  37
HETATM   37  C   UNL     1     -10.506  10.723  66.229  1.00  0.00    -0.287 A  
HETATM   38  C   UNL     1      -8.453  10.507  64.944  1.00  0.00    -0.161 A  
HETATM   39  O   UNL     1     -10.247   6.661  67.047  1.00  0.00    -0.179 OA 
HETATM   40  C   UNL     1     -10.452   9.345  66.520  1.00  0.00    -0.199 A  
HETATM   41  O   UNL     1      -8.397   6.477  65.884  1.00  0.00    -0.127 OA 
HETATM   42  C   UNL     1      -9.400   8.565  66.024  1.00  0.00    -0.199 A  
HETATM   43  C   UNL     1      -8.393   9.145  65.244  1.00  0.00    -0.152 A  
HETATM   44  N   UNL     1      -9.344   7.131  66.343  1.00  0.00    -0.166 N  
HETATM   45  C   UNL     1      -9.507  11.288  65.423  1.00  0.00    -0.251 A  
ENDBRANCH  12  37
ENDBRANCH   3   5
ENDBRANCH   2   3
TORSDOF 11
ENDMDL
MODEL      181
REMARK 921   NORMALIZED FREE ENERGY PREDICTED BY IDOCK:   -1.86 KCAL/MOL
REMARK 922        TOTAL FREE ENERGY PREDICTED BY IDOCK:   -4.92 KCAL/MOL
REMARK 923 INTER-LIGAND FREE ENERGY PREDICTED BY IDOCK:  -10.51 KCAL/MOL
REMARK 924 INTRA-LIGAND FREE ENERGY PREDICTED BY IDOCK:    5.59 KCAL/MOL
REMARK 927      BINDING AFFINITY PREDICTED BY RF-SCORE:    0.00 PKD
ROOT
HETATM    1  C   UNL     1      -9.593   8.695  65.803  1.00  0.00    -0.064 C  
HETATM    2  O   UNL     1     -10.230   8.980  67.051  1.00  0.00    -0.226 OA 
ENDROOT
BRANCH   2   3
HETATM    3  C   UNL     1      -9.356   9.273  68.048  1.00  0.00    -0.133 C  
HETATM    4  O   UNL     1      -9.066   8.517  68.965  1.00  0.00    -0.145 OA 
BRANCH   3   5
HETATM    5  C   UNL     1      -8.831  10.656  67.895  1.00  0.00    -0.131 C  
HETATM    6  C   UNL     1      -7.506  10.891  67.711  1.00  0.00    -0.094 C  
HETATM    7  N   UNL     1      -7.049  12.198  67.619  1.00  0.00    -0.111 NA 
HETATM    8  C   UNL     1      -6.408   9.864  67.601  1.00  0.00    -0.059 C  
HETATM    9  C   UNL     1      -7.805  13.315  67.901  1.00  0.00    -0.152 C  
HETATM   10  C   UNL     1      -7.050  14.619  68.012  1.00  0.00    -0.146 C  
HETATM   11  C   UNL     1      -9.139  13.186  68.086  1.00  0.00    -0.200 C  
HETATM   12  C   UNL     1      -9.829  11.820  67.992  1.00  0.00    -0.184 C  
BRANCH  11  13
HETATM   13  C   UNL     1      -9.921  14.355  68.538  1.00  0.00    -0.237 C  
HETATM   14  O   UNL     1      -9.969  14.728  69.702  1.00  0.00    -0.087 OA 
BRANCH  13  15
HETATM   15  O   UNL     1     -10.589  14.929  67.503  1.00  0.00    -0.258 OA 
BRANCH  15  16
HETATM   16  C   UNL     1     -11.362  16.080  67.900  1.00  0.00    -0.218 C  
BRANCH  16  17
HETATM   17  C   UNL     1     -10.721  17.349  67.315  1.00  0.00    -0.219 C  
BRANCH  17  18
HETATM   18  N   UNL     1      -9.254  17.442  67.402  1.00  0.00    -0.235 NA 
HETATM   19  C   UNL     1      -8.883  19.528  65.971  1.00  0.00    -0.206 C  
HETATM   20  C   UNL     1      -8.641  18.010  66.180  1.00  0.00    -0.096 C  
HETATM   21  N   UNL     1      -8.444  20.375  67.109  1.00  0.00    -0.337 NA 
HETATM   22  C   UNL     1      -8.890  18.302  68.557  1.00  0.00    -0.304 C  
HETATM   23  C   UNL     1      -9.096  19.824  68.327  1.00  0.00    -0.297 C  
BRANCH  21  24
HETATM   24  C   UNL     1      -6.954  20.415  67.231  1.00  0.00    -0.283 C  
BRANCH  24  25
HETATM   25  C   UNL     1      -6.422  19.644  68.452  1.00  0.00    -0.291 A  
HETATM   26  C   UNL     1      -5.904  18.345  68.283  1.00  0.00    -0.178 A  
HETATM   27  C   UNL     1      -6.385  20.202  69.740  1.00  0.00    -0.360 A  
HETATM   28  C   UNL     1      -5.379  17.631  69.363  1.00  0.00    -0.189 A  
HETATM   29  C   UNL     1      -5.374  18.195  70.636  1.00  0.00    -0.259 A  
HETATM   30  C   UNL     1      -5.879  19.478  70.824  1.00  0.00    -0.217 A  
ENDBRANCH  24  25
BRANCH  24  31
HETATM   31  C   UNL     1      -6.252  20.011  65.926  1.00  0.00    -0.220 A  
HETATM   32  C   UNL     1      -5.229  19.228  63.425  1.00  0.00    -0.318 A  
HETATM   33  C   UNL     1      -5.196  18.343  64.499  1.00  0.00    -0.095 A  
HETATM   34  C   UNL     1      -6.257  20.899  64.835  1.00  0.00    -0.287 A  
HETATM   35  C   UNL     1      -5.707  18.729  65.740  1.00  0.00    -0.208 A  
HETATM   36  C   UNL     1      -5.758  20.506  63.592  1.00  0.00    -0.312 A  
ENDBRANCH  24  31
ENDBRANCH  21  24
ENDBRANCH  17  18
ENDBRANCH  16  17
ENDBRANCH  15  16
ENDBRANCH  13  15
ENDBRANCH  11  13
BRANCH  12  37
HETATM   37  C   UNL     1     -10.841  11.644  69.136  1.00  0.00    -0.231 A  
HETATM   38  C   UNL     1     -11.805  10.309  70.924  1.00  0.00    -0.473 A  
HETATM   39  O   UNL     1     -13.101  14.845  70.505  1.00  0.00    -0.337 OA 
HETATM   40  C   UNL     1     -11.600  12.750  69.570  1.00  0.00    -0.342 A  
HETATM   41  O   UNL     1     -13.967  13.632  72.113  1.00  0.00    -0.492 OA 
HETATM   42  C   UNL     1     -12.449  12.624  70.677  1.00  0.00    -0.239 A  
HETATM   43  C   UNL     1     -12.547  11.408  71.363  1.00  0.00    -0.439 A  
HETATM   44  N   UNL     1     -13.227  13.785  71.131  1.00  0.00    -0.254 N  
HETATM   45  C   UNL     1     -10.968  10.423  69.813  1.00  0.00    -0.345 A  
ENDBRANCH  12  37
ENDBRANCH   3   5
ENDBRANCH   2   3
TORSDOF 11
ENDMDL
MODEL      182
REMARK 921   NORMALIZED FREE ENERGY PREDICTED BY IDOCK:   -1.84 KCAL/MOL
REMARK 922        TOTAL FREE ENERGY PREDICTED BY IDOCK:   -4.88 KCAL/MOL
REMARK 923 INTER-LIGAND FREE ENERGY PREDICTED BY IDOCK:   -5.58 KCAL/MOL
REMARK 924 INTRA-LIGAND FREE ENERGY PREDICTED BY IDOCK:    0.70 KCAL/MOL
REMARK 927      BINDING AFFINITY PREDICTED BY RF-SCORE:    0.00 PKD
ROOT
HETATM    1  C   UNL     1     -11.065  16.330  65.525  1.00  0.00    -0.033 C  
HETATM    2  O   UNL     1     -10.817  15.154  64.750  1.00  0.00    -0.403 OA 
ENDROOT
BRANCH   2   3
HETATM    3  C   UNL     1     -11.604  14.104  65.097  1.00  0.00    -0.344 C  
HETATM    4  O   UNL     1     -12.769  14.197  65.463  1.00  0.00    -0.507 OA 
BRANCH   3   5
HETATM    5  C   UNL     1     -10.845  12.829  65.014  1.00  0.00    -0.319 C  
HETATM    6  C   UNL     1     -11.380  11.726  64.426  1.00  0.00    -0.301 C  
HETATM    7  N   UNL     1     -10.659  10.541  64.409  1.00  0.00    -0.088 NA 
HETATM    8  C   UNL     1     -12.732  11.613  63.768  1.00  0.00    -0.211 C  
HETATM    9  C   UNL     1      -9.501  10.318  65.123  1.00  0.00    -0.252 C  
HETATM   10  C   UNL     1      -9.027   8.885  65.188  1.00  0.00    -0.189 C  
HETATM   11  C   UNL     1      -8.884  11.355  65.731  1.00  0.00    -0.115 C  
HETATM   12  C   UNL     1      -9.447  12.779  65.648  1.00  0.00     0.037 C  
BRANCH  11  13
HETATM   13  C   UNL     1      -7.734  11.091  66.620  1.00  0.00    -0.153 C  
HETATM   14  O   UNL     1      -6.573  11.071  66.237  1.00  0.00    -0.130 OA 
BRANCH  13  15
HETATM   15  O   UNL     1      -8.143  10.850  67.894  1.00  0.00    -0.109 OA 
BRANCH  15  16
HETATM   16  C   UNL     1      -7.860   9.505  68.333  1.00  0.00    -0.086 C  
BRANCH  16  17
HETATM   17  C   UNL     1      -6.360   9.376  68.642  1.00  0.00    -0.048 C  
BRANCH  17  18
HETATM   18  N   UNL     1      -5.882   8.034  69.018  1.00  0.00    -0.034 NA 
HETATM   19  C   UNL     1      -8.131   6.900  69.457  1.00  0.00    -0.130 C  
HETATM   20  C   UNL     1      -6.759   7.369  70.008  1.00  0.00    -0.047 C  
HETATM   21  N   UNL     1      -8.036   5.993  68.285  1.00  0.00    -0.106 NA 
HETATM   22  C   UNL     1      -5.814   7.184  67.801  1.00  0.00    -0.029 C  
HETATM   23  C   UNL     1      -7.188   6.684  67.278  1.00  0.00    -0.085 C  
BRANCH  21  24
HETATM   24  C   UNL     1      -7.492   4.652  68.662  1.00  0.00    -0.065 C  
BRANCH  24  25
HETATM   25  C   UNL     1      -8.304   3.955  69.768  1.00  0.00    -0.079 A  
HETATM   26  C   UNL     1      -7.815   3.947  71.090  1.00  0.00    -0.063 A  
HETATM   27  C   UNL     1      -9.552   3.359  69.528  1.00  0.00    -0.151 A  
HETATM   28  C   UNL     1      -8.544   3.357  72.125  1.00  0.00    -0.102 A  
HETATM   29  C   UNL     1      -9.768   2.750  71.859  1.00  0.00    -0.221 A  
HETATM   30  C   UNL     1     -10.271   2.750  70.561  1.00  0.00     0.833 A  
ENDBRANCH  24  25
BRANCH  24  31
HETATM   31  C   UNL     1      -7.267   3.750  67.439  1.00  0.00    -0.063 A  
HETATM   32  C   UNL     1      -6.654   2.288  65.115  1.00  0.00    -0.027 A  
HETATM   33  C   UNL     1      -7.812   3.059  65.167  1.00  0.00    -0.082 A  
HETATM   34  C   UNL     1      -6.113   2.948  67.374  1.00  0.00    -0.028 A  
HETATM   35  C   UNL     1      -8.115   3.789  66.318  1.00  0.00    -0.100 A  
HETATM   36  C   UNL     1      -5.805   2.231  66.217  1.00  0.00    -0.022 A  
ENDBRANCH  24  31
ENDBRANCH  21  24
ENDBRANCH  17  18
ENDBRANCH  16  17
ENDBRANCH  15  16
ENDBRANCH  13  15
ENDBRANCH  11  13
BRANCH  12  37
HETATM   37  C   UNL     1      -9.392  13.465  67.022  1.00  0.00    -0.243 A  
HETATM   38  C   UNL     1      -8.282  14.925  68.618  1.00  0.00    -0.157 A  
HETATM   39  O   UNL     1     -12.659  13.396  69.582  1.00  0.00    -0.102 OA 
HETATM   40  C   UNL     1     -10.516  13.414  67.872  1.00  0.00    -0.243 A  
HETATM   41  O   UNL     1     -11.648  14.711  71.016  1.00  0.00    -0.295 OA 
HETATM   42  C   UNL     1     -10.511  14.121  69.081  1.00  0.00    -0.129 A  
HETATM   43  C   UNL     1      -9.400  14.885  69.453  1.00  0.00    -0.054 A  
HETATM   44  N   UNL     1     -11.693  14.073  69.955  1.00  0.00    -0.296 N  
HETATM   45  C   UNL     1      -8.272  14.211  67.418  1.00  0.00    -0.207 A  
ENDBRANCH  12  37
ENDBRANCH   3   5
ENDBRANCH   2   3
TORSDOF 11
ENDMDL
MODEL      183
REMARK 921   NORMALIZED FREE ENERGY PREDICTED BY IDOCK:   -1.82 KCAL/MOL
REMARK 922        TOTAL FREE ENERGY PREDICTED BY IDOCK:   -4.86 KCAL/MOL
REMARK 923 INTER-LIGAND FREE ENERGY PREDICTED BY IDOCK:   -8.19 KCAL/MOL
REMARK 924 INTRA-LIGAND FREE ENERGY PREDICTED BY IDOCK:    3.33 KCAL/MOL
REMARK 927      BINDING AFFINITY PREDICTED BY RF-SCORE:    0.00 PKD
ROOT
HETATM    1  C   UNL     1      -5.383  11.460  65.948  1.00  0.00     0.092 C  
HETATM    2  O   UNL     1      -5.133  11.167  67.325  1.00  0.00    -0.039 OA 
ENDROOT
BRANCH   2   3
HETATM    3  C   UNL     1      -6.246  11.224  68.099  1.00  0.00    -0.049 C  
HETATM    4  O   UNL     1      -6.245  11.372  69.314  1.00  0.00    -0.057 OA 
BRANCH   3   5
HETATM    5  C   UNL     1      -7.469  11.041  67.273  1.00  0.00    -0.107 C  
HETATM    6  C   UNL     1      -7.518  10.113  66.281  1.00  0.00    -0.112 C  
HETATM    7  N   UNL     1      -8.660  10.003  65.502  1.00  0.00    -0.144 NA 
HETATM    8  C   UNL     1      -6.431   9.145  65.889  1.00  0.00    -0.061 C  
HETATM    9  C   UNL     1      -9.704  10.903  65.510  1.00  0.00    -0.233 C  
HETATM   10  C   UNL     1     -10.716  10.758  64.398  1.00  0.00    -0.120 C  
HETATM   11  C   UNL     1      -9.753  11.856  66.468  1.00  0.00    -0.226 C  
HETATM   12  C   UNL     1      -8.668  11.961  67.546  1.00  0.00    -0.163 C  
BRANCH  11  13
HETATM   13  C   UNL     1     -10.785  12.911  66.385  1.00  0.00    -0.270 C  
HETATM   14  O   UNL     1     -10.584  14.018  65.908  1.00  0.00    -0.288 OA 
BRANCH  13  15
HETATM   15  O   UNL     1     -11.958  12.493  66.929  1.00  0.00    -0.507 OA 
BRANCH  15  16
HETATM   16  C   UNL     1     -12.246  13.117  68.198  1.00  0.00    -0.028 C  
BRANCH  16  17
HETATM   17  C   UNL     1     -11.854  12.160  69.336  1.00  0.00    -0.309 C  
BRANCH  17  18
HETATM   18  N   UNL     1     -12.347  10.777  69.228  1.00  0.00    -0.343 NA 
HETATM   19  C   UNL     1     -10.109   9.543  69.158  1.00  0.00    -0.195 C  
HETATM   20  C   UNL     1     -11.440   9.903  68.449  1.00  0.00     0.143 C  
HETATM   21  N   UNL     1     -10.284   8.907  70.489  1.00  0.00    -0.193 NA 
HETATM   22  C   UNL     1     -12.495  10.207  70.592  1.00  0.00    -0.284 C  
HETATM   23  C   UNL     1     -11.161   9.809  71.281  1.00  0.00    -0.347 C  
BRANCH  21  24
HETATM   24  C   UNL     1     -10.843   7.524  70.377  1.00  0.00    -0.244 C  
BRANCH  24  25
HETATM   25  C   UNL     1     -10.365   6.774  69.122  1.00  0.00    -0.213 A  
HETATM   26  C   UNL     1      -9.022   6.354  69.031  1.00  0.00    -0.128 A  
HETATM   27  C   UNL     1     -11.228   6.442  68.066  1.00  0.00    -0.260 A  
HETATM   28  C   UNL     1      -8.564   5.638  67.923  1.00  0.00    -0.101 A  
HETATM   29  C   UNL     1      -9.432   5.340  66.876  1.00  0.00    -0.138 A  
HETATM   30  C   UNL     1     -10.762   5.744  66.947  1.00  0.00    -0.381 A  
ENDBRANCH  24  25
BRANCH  24  31
HETATM   31  C   UNL     1     -10.643   6.709  71.664  1.00  0.00    -0.245 A  
HETATM   32  C   UNL     1     -10.528   5.324  74.109  1.00  0.00    -0.319 A  
HETATM   33  C   UNL     1      -9.750   6.462  73.916  1.00  0.00    -0.228 A  
HETATM   34  C   UNL     1     -11.405   5.545  71.870  1.00  0.00    -0.141 A  
HETATM   35  C   UNL     1      -9.810   7.153  72.705  1.00  0.00    -0.197 A  
HETATM   36  C   UNL     1     -11.355   4.864  73.087  1.00  0.00    -0.395 A  
ENDBRANCH  24  31
ENDBRANCH  21  24
ENDBRANCH  17  18
ENDBRANCH  16  17
ENDBRANCH  15  16
ENDBRANCH  13  15
ENDBRANCH  11  13
BRANCH  12  37
HETATM   37  C   UNL     1      -8.257  13.427  67.761  1.00  0.00    -0.172 A  
HETATM   38  C   UNL     1      -6.757  15.291  67.332  1.00  0.00    -0.157 A  
HETATM   39  O   UNL     1     -10.777  16.092  69.705  1.00  0.00    -0.277 OA 
HETATM   40  C   UNL     1      -9.132  14.303  68.434  1.00  0.00    -0.194 A  
HETATM   41  O   UNL     1      -9.415  17.767  69.315  1.00  0.00    -0.067 OA 
HETATM   42  C   UNL     1      -8.812  15.662  68.545  1.00  0.00    -0.187 A  
HETATM   43  C   UNL     1      -7.630  16.162  67.987  1.00  0.00    -0.140 A  
HETATM   44  N   UNL     1      -9.736  16.572  69.237  1.00  0.00    -0.231 N  
HETATM   45  C   UNL     1      -7.062  13.932  67.230  1.00  0.00     0.061 A  
ENDBRANCH  12  37
ENDBRANCH   3   5
ENDBRANCH   2   3
TORSDOF 11
ENDMDL
MODEL      184
REMARK 921   NORMALIZED FREE ENERGY PREDICTED BY IDOCK:   -1.81 KCAL/MOL
REMARK 922        TOTAL FREE ENERGY PREDICTED BY IDOCK:   -4.83 KCAL/MOL
REMARK 923 INTER-LIGAND FREE ENERGY PREDICTED BY IDOCK:   -6.22 KCAL/MOL
REMARK 924 INTRA-LIGAND FREE ENERGY PREDICTED BY IDOCK:    1.39 KCAL/MOL
REMARK 927      BINDING AFFINITY PREDICTED BY RF-SCORE:    0.00 PKD
ROOT
HETATM    1  C   UNL     1      -8.114  15.674  69.766  1.00  0.00     0.054 C  
HETATM    2  O   UNL     1      -8.652  14.626  68.954  1.00  0.00    -0.166 OA 
ENDROOT
BRANCH   2   3
HETATM    3  C   UNL     1      -9.000  15.036  67.707  1.00  0.00    -0.179 C  
HETATM    4  O   UNL     1      -9.019  16.202  67.336  1.00  0.00    -0.188 OA 
BRANCH   3   5
HETATM    5  C   UNL     1      -9.396  13.876  66.866  1.00  0.00    -0.265 C  
HETATM    6  C   UNL     1     -10.700  13.626  66.577  1.00  0.00    -0.284 C  
HETATM    7  N   UNL     1     -11.033  12.507  65.827  1.00  0.00    -0.283 NA 
HETATM    8  C   UNL     1     -11.896  14.442  66.998  1.00  0.00    -0.437 C  
HETATM    9  C   UNL     1     -10.160  11.491  65.505  1.00  0.00    -0.243 C  
HETATM   10  C   UNL     1     -10.779  10.240  64.927  1.00  0.00     0.424 C  
HETATM   11  C   UNL     1      -8.838  11.650  65.740  1.00  0.00    -0.004 C  
HETATM   12  C   UNL     1      -8.288  12.939  66.362  1.00  0.00     0.427 C  
BRANCH  11  13
HETATM   13  C   UNL     1      -7.925  10.506  65.538  1.00  0.00    -0.145 C  
HETATM   14  O   UNL     1      -6.757  10.500  65.899  1.00  0.00    -0.119 OA 
BRANCH  13  15
HETATM   15  O   UNL     1      -8.548   9.491  64.884  1.00  0.00    -0.149 OA 
BRANCH  15  16
HETATM   16  C   UNL     1      -7.641   8.455  64.454  1.00  0.00    -0.115 C  
BRANCH  16  17
HETATM   17  C   UNL     1      -7.278   7.565  65.654  1.00  0.00    -0.066 C  
BRANCH  17  18
HETATM   18  N   UNL     1      -8.327   6.647  66.129  1.00  0.00    -0.123 NA 
HETATM   19  C   UNL     1      -7.487   6.254  68.512  1.00  0.00    -0.088 C  
HETATM   20  C   UNL     1      -7.826   5.665  67.117  1.00  0.00    -0.101 C  
HETATM   21  N   UNL     1      -8.614   6.978  69.154  1.00  0.00    -0.132 NA 
HETATM   22  C   UNL     1      -9.416   7.438  66.759  1.00  0.00    -0.176 C  
HETATM   23  C   UNL     1      -9.085   7.991  68.173  1.00  0.00    -0.134 C  
BRANCH  21  24
HETATM   24  C   UNL     1      -9.704   6.047  69.579  1.00  0.00    -0.147 C  
BRANCH  24  25
HETATM   25  C   UNL     1      -9.181   4.737  70.193  1.00  0.00    -0.195 A  
HETATM   26  C   UNL     1      -8.380   4.782  71.351  1.00  0.00    -0.108 A  
HETATM   27  C   UNL     1      -9.509   3.474  69.672  1.00  0.00    -0.235 A  
HETATM   28  C   UNL     1      -7.919   3.609  71.956  1.00  0.00    -0.067 A  
HETATM   29  C   UNL     1      -8.236   2.370  71.409  1.00  0.00    -0.065 A  
HETATM   30  C   UNL     1      -9.029   2.303  70.266  1.00  0.00    -0.155 A  
ENDBRANCH  24  25
BRANCH  24  31
HETATM   31  C   UNL     1     -10.748   6.740  70.469  1.00  0.00    -0.277 A  
HETATM   32  C   UNL     1     -12.587   7.817  72.304  1.00  0.00    -0.186 A  
HETATM   33  C   UNL     1     -13.035   7.013  71.260  1.00  0.00    -0.357 A  
HETATM   34  C   UNL     1     -10.317   7.573  71.518  1.00  0.00    -0.216 A  
HETATM   35  C   UNL     1     -12.122   6.473  70.351  1.00  0.00    -0.172 A  
HETATM   36  C   UNL     1     -11.230   8.099  72.433  1.00  0.00    -0.452 A  
ENDBRANCH  24  31
ENDBRANCH  21  24
ENDBRANCH  17  18
ENDBRANCH  16  17
ENDBRANCH  15  16
ENDBRANCH  13  15
ENDBRANCH  11  13
BRANCH  12  37
HETATM   37  C   UNL     1      -7.244  12.616  67.444  1.00  0.00    -0.138 A  
HETATM   38  C   UNL     1      -5.127  13.073  68.548  1.00  0.00    -0.065 A  
HETATM   39  O   UNL     1      -8.070   9.901  70.473  1.00  0.00    -0.230 OA 
HETATM   40  C   UNL     1      -7.553  11.681  68.453  1.00  0.00    -0.126 A  
HETATM   41  O   UNL     1      -6.157  10.319  71.461  1.00  0.00    -0.313 OA 
HETATM   42  C   UNL     1      -6.649  11.456  69.498  1.00  0.00    -0.129 A  
HETATM   43  C   UNL     1      -5.439  12.157  69.555  1.00  0.00    -0.074 A  
HETATM   44  N   UNL     1      -6.984  10.490  70.554  1.00  0.00     0.053 N  
HETATM   45  C   UNL     1      -6.016  13.292  67.495  1.00  0.00    -0.073 A  
ENDBRANCH  12  37
ENDBRANCH   3   5
ENDBRANCH   2   3
TORSDOF 11
ENDMDL
MODEL      185
REMARK 921   NORMALIZED FREE ENERGY PREDICTED BY IDOCK:   -1.77 KCAL/MOL
REMARK 922        TOTAL FREE ENERGY PREDICTED BY IDOCK:   -4.77 KCAL/MOL
REMARK 923 INTER-LIGAND FREE ENERGY PREDICTED BY IDOCK:   -4.71 KCAL/MOL
REMARK 924 INTRA-LIGAND FREE ENERGY PREDICTED BY IDOCK:   -0.06 KCAL/MOL
REMARK 927      BINDING AFFINITY PREDICTED BY RF-SCORE:    0.00 PKD
ROOT
HETATM    1  C   UNL     1     -10.751  16.679  70.476  1.00  0.00     0.258 C  
HETATM    2  O   UNL     1     -10.852  17.052  69.099  1.00  0.00    -0.288 OA 
ENDROOT
BRANCH   2   3
HETATM    3  C   UNL     1      -9.696  17.547  68.589  1.00  0.00    -0.319 C  
HETATM    4  O   UNL     1      -9.582  18.640  68.049  1.00  0.00    -0.295 OA 
BRANCH   3   5
HETATM    5  C   UNL     1      -8.593  16.561  68.737  1.00  0.00    -0.262 C  
HETATM    6  C   UNL     1      -7.348  16.946  69.121  1.00  0.00    -0.197 C  
HETATM    7  N   UNL     1      -6.334  16.003  69.204  1.00  0.00    -0.141 NA 
HETATM    8  C   UNL     1      -6.898  18.341  69.475  1.00  0.00    -0.057 C  
HETATM    9  C   UNL     1      -6.424  14.711  68.732  1.00  0.00    -0.088 C  
HETATM   10  C   UNL     1      -5.130  13.936  68.665  1.00  0.00    -0.089 C  
HETATM   11  C   UNL     1      -7.625  14.229  68.340  1.00  0.00    -0.124 C  
HETATM   12  C   UNL     1      -8.891  15.091  68.405  1.00  0.00    -0.178 C  
BRANCH  11  13
HETATM   13  C   UNL     1      -7.694  12.903  67.692  1.00  0.00    -0.162 C  
HETATM   14  O   UNL     1      -7.471  12.717  66.504  1.00  0.00     0.441 OA 
BRANCH  13  15
HETATM   15  O   UNL     1      -8.060  11.941  68.580  1.00  0.00    -0.144 OA 
BRANCH  15  16
HETATM   16  C   UNL     1      -8.888  10.916  67.993  1.00  0.00    -0.135 C  
BRANCH  16  17
HETATM   17  C   UNL     1      -8.994   9.730  68.965  1.00  0.00    -0.154 C  
BRANCH  17  18
HETATM   18  N   UNL     1      -9.535   8.476  68.411  1.00  0.00    -0.135 NA 
HETATM   19  C   UNL     1      -7.597   7.833  66.872  1.00  0.00    -0.099 C  
HETATM   20  C   UNL     1      -9.091   8.225  67.021  1.00  0.00    -0.145 C  
HETATM   21  N   UNL     1      -7.197   6.650  67.675  1.00  0.00    -0.088 NA 
HETATM   22  C   UNL     1      -9.095   7.340  69.261  1.00  0.00    -0.138 C  
HETATM   23  C   UNL     1      -7.608   6.926  69.077  1.00  0.00    -0.104 C  
BRANCH  21  24
HETATM   24  C   UNL     1      -7.799   5.387  67.144  1.00  0.00    -0.101 C  
BRANCH  24  25
HETATM   25  C   UNL     1      -7.917   5.367  65.610  1.00  0.00    -0.107 A  
HETATM   26  C   UNL     1      -6.889   5.928  64.826  1.00  0.00    -0.047 A  
HETATM   27  C   UNL     1      -8.995   4.765  64.943  1.00  0.00    -0.151 A  
HETATM   28  C   UNL     1      -6.945   5.893  63.430  1.00  0.00    -0.045 A  
HETATM   29  C   UNL     1      -8.036   5.312  62.790  1.00  0.00    -0.097 A  
HETATM   30  C   UNL     1      -9.061   4.750  63.546  1.00  0.00    -0.026 A  
ENDBRANCH  24  25
BRANCH  24  31
HETATM   31  C   UNL     1      -7.105   4.134  67.699  1.00  0.00    -0.063 A  
HETATM   32  C   UNL     1      -6.060   1.688  68.615  1.00  0.00    -0.024 A  
HETATM   33  C   UNL     1      -6.646   2.575  69.514  1.00  0.00    -0.033 A  
HETATM   34  C   UNL     1      -6.490   3.234  66.809  1.00  0.00    -0.037 A  
HETATM   35  C   UNL     1      -7.169   3.787  69.060  1.00  0.00    -0.050 A  
HETATM   36  C   UNL     1      -5.981   2.017  67.264  1.00  0.00    -0.020 A  
ENDBRANCH  24  31
ENDBRANCH  21  24
ENDBRANCH  17  18
ENDBRANCH  16  17
ENDBRANCH  15  16
ENDBRANCH  13  15
ENDBRANCH  11  13
BRANCH  12  37
HETATM   37  C   UNL     1      -9.725  14.927  67.124  1.00  0.00    -0.229 A  
HETATM   38  C   UNL     1     -10.113  15.407  64.773  1.00  0.00     0.158 A  
HETATM   39  O   UNL     1     -12.788  12.133  66.907  1.00  0.00     1.146 OA 
HETATM   40  C   UNL     1     -10.765  13.975  67.087  1.00  0.00    -0.283 A  
HETATM   41  O   UNL     1     -13.130  12.575  64.786  1.00  0.00    -0.853 OA 
HETATM   42  C   UNL     1     -11.463  13.749  65.894  1.00  0.00    -0.322 A  
HETATM   43  C   UNL     1     -11.133  14.455  64.732  1.00  0.00    -0.402 A  
HETATM   44  N   UNL     1     -12.537  12.745  65.861  1.00  0.00    -0.089 N  
HETATM   45  C   UNL     1      -9.422  15.650  65.961  1.00  0.00    -0.390 A  
ENDBRANCH  12  37
ENDBRANCH   3   5
ENDBRANCH   2   3
TORSDOF 11
ENDMDL
MODEL      186
REMARK 921   NORMALIZED FREE ENERGY PREDICTED BY IDOCK:   -1.67 KCAL/MOL
REMARK 922        TOTAL FREE ENERGY PREDICTED BY IDOCK:   -4.60 KCAL/MOL
REMARK 923 INTER-LIGAND FREE ENERGY PREDICTED BY IDOCK:   -8.40 KCAL/MOL
REMARK 924 INTRA-LIGAND FREE ENERGY PREDICTED BY IDOCK:    3.80 KCAL/MOL
REMARK 927      BINDING AFFINITY PREDICTED BY RF-SCORE:    0.00 PKD
ROOT
HETATM    1  C   UNL     1      -7.150  15.876  66.785  1.00  0.00     0.020 C  
HETATM    2  O   UNL     1      -8.337  16.078  67.557  1.00  0.00    -0.153 OA 
ENDROOT
BRANCH   2   3
HETATM    3  C   UNL     1      -9.464  15.651  66.932  1.00  0.00    -0.229 C  
HETATM    4  O   UNL     1      -9.680  15.758  65.732  1.00  0.00    -0.324 OA 
BRANCH   3   5
HETATM    5  C   UNL     1     -10.421  15.074  67.913  1.00  0.00    -0.247 C  
HETATM    6  C   UNL     1     -10.989  15.840  68.880  1.00  0.00    -0.283 C  
HETATM    7  N   UNL     1     -11.841  15.255  69.805  1.00  0.00    -0.311 NA 
HETATM    8  C   UNL     1     -10.793  17.319  69.099  1.00  0.00     0.017 C  
HETATM    9  C   UNL     1     -12.017  13.897  69.960  1.00  0.00    -0.336 C  
HETATM   10  C   UNL     1     -12.767  13.460  71.197  1.00  0.00    -0.411 C  
HETATM   11  C   UNL     1     -11.502  13.051  69.040  1.00  0.00    -0.353 C  
HETATM   12  C   UNL     1     -10.722  13.570  67.827  1.00  0.00    -0.262 C  
BRANCH  11  13
HETATM   13  C   UNL     1     -11.559  11.595  69.287  1.00  0.00    -0.320 C  
HETATM   14  O   UNL     1     -11.228  10.756  68.461  1.00  0.00    -0.239 OA 
BRANCH  13  15
HETATM   15  O   UNL     1     -12.046  11.326  70.526  1.00  0.00    -0.341 OA 
BRANCH  15  16
HETATM   16  C   UNL     1     -13.041  10.281  70.527  1.00  0.00    -0.138 C  
BRANCH  16  17
HETATM   17  C   UNL     1     -12.534   9.096  71.365  1.00  0.00    -0.328 C  
BRANCH  17  18
HETATM   18  N   UNL     1     -11.348   8.390  70.851  1.00  0.00    -0.266 NA 
HETATM   19  C   UNL     1      -9.805   8.644  72.873  1.00  0.00     0.103 C  
HETATM   20  C   UNL     1     -10.079   8.942  71.376  1.00  0.00    -0.309 C  
HETATM   21  N   UNL     1      -9.823   7.199  73.216  1.00  0.00    -0.208 NA 
HETATM   22  C   UNL     1     -11.433   6.957  71.232  1.00  0.00    -0.296 C  
HETATM   23  C   UNL     1     -11.118   6.659  72.724  1.00  0.00    -0.249 C  
BRANCH  21  24
HETATM   24  C   UNL     1      -8.648   6.475  72.640  1.00  0.00    -0.124 C  
BRANCH  24  25
HETATM   25  C   UNL     1      -9.019   5.123  72.006  1.00  0.00    -0.145 A  
HETATM   26  C   UNL     1      -9.161   5.025  70.608  1.00  0.00    -0.195 A  
HETATM   27  C   UNL     1      -9.178   3.951  72.764  1.00  0.00    -0.137 A  
HETATM   28  C   UNL     1      -9.460   3.804  69.996  1.00  0.00    -0.264 A  
HETATM   29  C   UNL     1      -9.637   2.661  70.770  1.00  0.00    -0.181 A  
HETATM   30  C   UNL     1      -9.498   2.735  72.153  1.00  0.00    -0.185 A  
ENDBRANCH  24  25
BRANCH  24  31
HETATM   31  C   UNL     1      -7.823   7.362  71.696  1.00  0.00    -0.087 A  
HETATM   32  C   UNL     1      -6.147   8.755  69.917  1.00  0.00    -0.034 A  
HETATM   33  C   UNL     1      -6.018   8.946  71.290  1.00  0.00    -0.054 A  
HETATM   34  C   UNL     1      -7.953   7.199  70.304  1.00  0.00    -0.116 A  
HETATM   35  C   UNL     1      -6.846   8.252  72.174  1.00  0.00    -0.089 A  
HETATM   36  C   UNL     1      -7.114   7.883  69.424  1.00  0.00    -0.064 A  
ENDBRANCH  24  31
ENDBRANCH  21  24
ENDBRANCH  17  18
ENDBRANCH  16  17
ENDBRANCH  15  16
ENDBRANCH  13  15
ENDBRANCH  11  13
BRANCH  12  37
HETATM   37  C   UNL     1      -9.461  12.723  67.591  1.00  0.00    -0.190 A  
HETATM   38  C   UNL     1      -7.373  11.764  68.388  1.00  0.00    -0.094 A  
HETATM   39  O   UNL     1      -9.034  10.427  64.159  1.00  0.00    -0.196 OA 
HETATM   40  C   UNL     1      -9.343  11.962  66.410  1.00  0.00    -0.233 A  
HETATM   41  O   UNL     1      -7.151   9.570  64.887  1.00  0.00    -0.098 OA 
HETATM   42  C   UNL     1      -8.245  11.110  66.233  1.00  0.00    -0.153 A  
HETATM   43  C   UNL     1      -7.264  11.000  67.224  1.00  0.00    -0.102 A  
HETATM   44  N   UNL     1      -8.137  10.311  65.004  1.00  0.00    -0.146 N  
HETATM   45  C   UNL     1      -8.456  12.627  68.566  1.00  0.00    -0.051 A  
ENDBRANCH  12  37
ENDBRANCH   3   5
ENDBRANCH   2   3
TORSDOF 11
ENDMDL
MODEL      187
REMARK 921   NORMALIZED FREE ENERGY PREDICTED BY IDOCK:   -1.62 KCAL/MOL
REMARK 922        TOTAL FREE ENERGY PREDICTED BY IDOCK:   -4.53 KCAL/MOL
REMARK 923 INTER-LIGAND FREE ENERGY PREDICTED BY IDOCK:   -8.01 KCAL/MOL
REMARK 924 INTRA-LIGAND FREE ENERGY PREDICTED BY IDOCK:    3.48 KCAL/MOL
REMARK 927      BINDING AFFINITY PREDICTED BY RF-SCORE:    0.00 PKD
ROOT
HETATM    1  C   UNL     1     -10.001   6.404  69.125  1.00  0.00    -0.149 C  
HETATM    2  O   UNL     1     -10.665   6.947  70.269  1.00  0.00    -0.223 OA 
ENDROOT
BRANCH   2   3
HETATM    3  C   UNL     1      -9.978   7.956  70.862  1.00  0.00    -0.182 C  
HETATM    4  O   UNL     1      -8.782   7.927  71.122  1.00  0.00    -0.130 OA 
BRANCH   3   5
HETATM    5  C   UNL     1     -10.886   9.086  71.192  1.00  0.00    -0.364 C  
HETATM    6  C   UNL     1     -11.961   8.914  72.004  1.00  0.00    -0.369 C  
HETATM    7  N   UNL     1     -12.811   9.982  72.251  1.00  0.00    -0.308 NA 
HETATM    8  C   UNL     1     -12.381   7.643  72.698  1.00  0.00     0.016 C  
HETATM    9  C   UNL     1     -12.777  11.183  71.576  1.00  0.00    -0.394 C  
HETATM   10  C   UNL     1     -13.954  12.104  71.798  1.00  0.00     0.708 C  
HETATM   11  C   UNL     1     -11.738  11.455  70.754  1.00  0.00    -0.068 C  
HETATM   12  C   UNL     1     -10.596  10.453  70.554  1.00  0.00     0.001 C  
BRANCH  11  13
HETATM   13  C   UNL     1     -11.780  12.672  69.916  1.00  0.00    -0.250 C  
HETATM   14  O   UNL     1     -11.296  12.738  68.795  1.00  0.00    -0.249 OA 
BRANCH  13  15
HETATM   15  O   UNL     1     -12.395  13.695  70.566  1.00  0.00    -0.337 OA 
BRANCH  15  16
HETATM   16  C   UNL     1     -11.502  14.439  71.420  1.00  0.00     0.253 C  
BRANCH  16  17
HETATM   17  C   UNL     1     -10.986  15.674  70.663  1.00  0.00    -0.340 C  
BRANCH  17  18
HETATM   18  N   UNL     1     -10.474  15.442  69.302  1.00  0.00    -0.236 NA 
HETATM   19  C   UNL     1     -10.017  17.861  68.612  1.00  0.00    -0.387 C  
HETATM   20  C   UNL     1     -10.801  16.544  68.370  1.00  0.00    -0.348 C  
HETATM   21  N   UNL     1      -8.541  17.700  68.590  1.00  0.00    -0.287 NA 
HETATM   22  C   UNL     1      -8.997  15.293  69.358  1.00  0.00    -0.225 C  
HETATM   23  C   UNL     1      -8.215  16.620  69.559  1.00  0.00     0.322 C  
BRANCH  21  24
HETATM   24  C   UNL     1      -8.033  17.403  67.215  1.00  0.00    -0.200 C  
BRANCH  24  25
HETATM   25  C   UNL     1      -9.088  16.751  66.305  1.00  0.00    -0.320 A  
HETATM   26  C   UNL     1      -9.085  15.353  66.126  1.00  0.00    -0.339 A  
HETATM   27  C   UNL     1     -10.099  17.490  65.671  1.00  0.00    -0.007 A  
HETATM   28  C   UNL     1     -10.051  14.724  65.337  1.00  0.00    -0.406 A  
HETATM   29  C   UNL     1     -11.030  15.480  64.698  1.00  0.00    -0.341 A  
HETATM   30  C   UNL     1     -11.052  16.862  64.863  1.00  0.00     0.029 A  
ENDBRANCH  24  25
BRANCH  24  31
HETATM   31  C   UNL     1      -7.366  18.624  66.565  1.00  0.00    -0.263 A  
HETATM   32  C   UNL     1      -5.892  20.756  65.470  1.00  0.00    -0.265 A  
HETATM   33  C   UNL     1      -6.626  20.944  66.638  1.00  0.00    -0.350 A  
HETATM   34  C   UNL     1      -6.636  18.459  65.373  1.00  0.00    -0.220 A  
HETATM   35  C   UNL     1      -7.354  19.885  67.185  1.00  0.00    -0.279 A  
HETATM   36  C   UNL     1      -5.898  19.515  64.837  1.00  0.00    -0.278 A  
ENDBRANCH  24  31
ENDBRANCH  21  24
ENDBRANCH  17  18
ENDBRANCH  16  17
ENDBRANCH  15  16
ENDBRANCH  13  15
ENDBRANCH  11  13
BRANCH  12  37
HETATM   37  C   UNL     1     -10.221  10.349  69.067  1.00  0.00    -0.233 A  
HETATM   38  C   UNL     1     -10.852  10.036  66.740  1.00  0.00    -0.091 A  
HETATM   39  O   UNL     1      -6.404  11.312  67.749  1.00  0.00    -0.053 OA 
HETATM   40  C   UNL     1      -8.913  10.674  68.654  1.00  0.00    -0.170 A  
HETATM   41  O   UNL     1      -6.983  11.025  65.653  1.00  0.00    -0.006 OA 
HETATM   42  C   UNL     1      -8.591  10.680  67.291  1.00  0.00    -0.126 A  
HETATM   43  C   UNL     1      -9.560  10.371  66.330  1.00  0.00    -0.230 A  
HETATM   44  N   UNL     1      -7.228  11.033  66.868  1.00  0.00    -0.125 N  
HETATM   45  C   UNL     1     -11.177  10.013  68.097  1.00  0.00    -0.192 A  
ENDBRANCH  12  37
ENDBRANCH   3   5
ENDBRANCH   2   3
TORSDOF 11
ENDMDL
MODEL      188
REMARK 921   NORMALIZED FREE ENERGY PREDICTED BY IDOCK:   -1.46 KCAL/MOL
REMARK 922        TOTAL FREE ENERGY PREDICTED BY IDOCK:   -4.27 KCAL/MOL
REMARK 923 INTER-LIGAND FREE ENERGY PREDICTED BY IDOCK:   -6.63 KCAL/MOL
REMARK 924 INTRA-LIGAND FREE ENERGY PREDICTED BY IDOCK:    2.37 KCAL/MOL
REMARK 927      BINDING AFFINITY PREDICTED BY RF-SCORE:    0.00 PKD
ROOT
HETATM    1  C   UNL     1      -7.281  16.731  68.666  1.00  0.00    -0.207 C  
HETATM    2  O   UNL     1      -7.496  15.605  67.811  1.00  0.00    -0.124 OA 
ENDROOT
BRANCH   2   3
HETATM    3  C   UNL     1      -8.269  14.642  68.373  1.00  0.00    -0.154 C  
HETATM    4  O   UNL     1      -8.147  14.229  69.519  1.00  0.00     0.157 OA 
BRANCH   3   5
HETATM    5  C   UNL     1      -9.259  14.125  67.392  1.00  0.00    -0.204 C  
HETATM    6  C   UNL     1     -10.344  14.860  67.030  1.00  0.00    -0.264 C  
HETATM    7  N   UNL     1     -11.270  14.325  66.146  1.00  0.00    -0.325 NA 
HETATM    8  C   UNL     1     -10.696  16.249  67.497  1.00  0.00    -0.300 C  
HETATM    9  C   UNL     1     -11.297  13.008  65.742  1.00  0.00    -0.301 C  
HETATM   10  C   UNL     1     -12.539  12.564  65.005  1.00  0.00    -0.424 C  
HETATM   11  C   UNL     1     -10.256  12.198  66.041  1.00  0.00    -0.265 C  
HETATM   12  C   UNL     1      -9.044  12.714  66.825  1.00  0.00    -0.214 C  
BRANCH  11  13
HETATM   13  C   UNL     1     -10.356  10.754  65.744  1.00  0.00    -0.230 C  
HETATM   14  O   UNL     1     -10.898   9.947  66.484  1.00  0.00    -0.061 OA 
BRANCH  13  15
HETATM   15  O   UNL     1      -9.747  10.453  64.566  1.00  0.00    -0.281 OA 
BRANCH  15  16
HETATM   16  C   UNL     1      -8.393   9.987  64.734  1.00  0.00    -0.163 C  
BRANCH  16  17
HETATM   17  C   UNL     1      -8.294   8.528  64.258  1.00  0.00    -0.105 C  
BRANCH  17  18
HETATM   18  N   UNL     1      -7.637   7.582  65.177  1.00  0.00    -0.089 NA 
HETATM   19  C   UNL     1      -9.680   6.811  66.508  1.00  0.00    -0.125 C  
HETATM   20  C   UNL     1      -8.298   7.516  66.500  1.00  0.00    -0.126 C  
HETATM   21  N   UNL     1      -9.658   5.429  65.965  1.00  0.00    -0.153 NA 
HETATM   22  C   UNL     1      -7.655   6.226  64.571  1.00  0.00    -0.099 C  
HETATM   23  C   UNL     1      -9.032   5.509  64.619  1.00  0.00     0.137 C  
BRANCH  21  24
HETATM   24  C   UNL     1      -8.937   4.485  66.873  1.00  0.00    -0.115 C  
BRANCH  24  25
HETATM   25  C   UNL     1      -7.671   3.881  66.240  1.00  0.00    -0.089 A  
HETATM   26  C   UNL     1      -6.402   4.268  66.715  1.00  0.00    -0.037 A  
HETATM   27  C   UNL     1      -7.723   2.909  65.227  1.00  0.00    -0.081 A  
HETATM   28  C   UNL     1      -5.234   3.711  66.189  1.00  0.00    -0.009 A  
HETATM   29  C   UNL     1      -5.308   2.768  65.168  1.00  0.00    -0.009 A  
HETATM   30  C   UNL     1      -6.552   2.369  64.687  1.00  0.00    -0.031 A  
ENDBRANCH  24  25
BRANCH  24  31
HETATM   31  C   UNL     1      -8.670   5.097  68.257  1.00  0.00    -0.104 A  
HETATM   32  C   UNL     1      -8.263   6.471  70.677  1.00  0.00    -0.125 A  
HETATM   33  C   UNL     1      -7.173   6.106  69.891  1.00  0.00    -0.074 A  
HETATM   34  C   UNL     1      -9.757   5.454  69.075  1.00  0.00    -0.208 A  
HETATM   35  C   UNL     1      -7.374   5.428  68.687  1.00  0.00    -0.075 A  
HETATM   36  C   UNL     1      -9.554   6.144  70.271  1.00  0.00    -0.188 A  
ENDBRANCH  24  31
ENDBRANCH  21  24
ENDBRANCH  17  18
ENDBRANCH  16  17
ENDBRANCH  15  16
ENDBRANCH  13  15
ENDBRANCH  11  13
BRANCH  12  37
HETATM   37  C   UNL     1      -8.621  11.699  67.899  1.00  0.00    -0.150 A  
HETATM   38  C   UNL     1      -6.892  10.511  69.128  1.00  0.00    -0.074 A  
HETATM   39  O   UNL     1     -11.390  10.118  70.557  1.00  0.00    -0.291 OA 
HETATM   40  C   UNL     1      -9.589  11.174  68.780  1.00  0.00    -0.180 A  
HETATM   41  O   UNL     1      -9.823   9.049  71.657  1.00  0.00    -0.306 OA 
HETATM   42  C   UNL     1      -9.197  10.327  69.825  1.00  0.00    -0.066 A  
HETATM   43  C   UNL     1      -7.849  10.002  70.009  1.00  0.00    -0.172 A  
HETATM   44  N   UNL     1     -10.211   9.794  70.747  1.00  0.00    -0.250 N  
HETATM   45  C   UNL     1      -7.276  11.344  68.075  1.00  0.00    -0.084 A  
ENDBRANCH  12  37
ENDBRANCH   3   5
ENDBRANCH   2   3
TORSDOF 11
ENDMDL
MODEL      189
REMARK 921   NORMALIZED FREE ENERGY PREDICTED BY IDOCK:   -1.44 KCAL/MOL
REMARK 922        TOTAL FREE ENERGY PREDICTED BY IDOCK:   -4.22 KCAL/MOL
REMARK 923 INTER-LIGAND FREE ENERGY PREDICTED BY IDOCK:   -5.92 KCAL/MOL
REMARK 924 INTRA-LIGAND FREE ENERGY PREDICTED BY IDOCK:    1.70 KCAL/MOL
REMARK 927      BINDING AFFINITY PREDICTED BY RF-SCORE:    0.00 PKD
ROOT
HETATM    1  C   UNL     1     -11.737  15.995  67.585  1.00  0.00     0.223 C  
HETATM    2  O   UNL     1     -11.902  16.023  66.165  1.00  0.00     0.658 OA 
ENDROOT
BRANCH   2   3
HETATM    3  C   UNL     1     -10.817  15.568  65.488  1.00  0.00    -0.361 C  
HETATM    4  O   UNL     1     -10.462  15.971  64.388  1.00  0.00    -0.218 OA 
BRANCH   3   5
HETATM    5  C   UNL     1     -10.143  14.482  66.247  1.00  0.00    -0.308 C  
HETATM    6  C   UNL     1     -10.823  13.380  66.657  1.00  0.00    -0.282 C  
HETATM    7  N   UNL     1     -10.169  12.410  67.403  1.00  0.00    -0.207 NA 
HETATM    8  C   UNL     1     -12.275  13.063  66.405  1.00  0.00    -0.350 C  
HETATM    9  C   UNL     1      -8.912  12.556  67.949  1.00  0.00    -0.188 C  
HETATM   10  C   UNL     1      -8.497  11.505  68.952  1.00  0.00     0.011 C  
HETATM   11  C   UNL     1      -8.151  13.614  67.592  1.00  0.00    -0.179 C  
HETATM   12  C   UNL     1      -8.656  14.660  66.591  1.00  0.00    -0.129 C  
BRANCH  11  13
HETATM   13  C   UNL     1      -6.871  13.851  68.292  1.00  0.00    -0.108 C  
HETATM   14  O   UNL     1      -6.793  14.159  69.472  1.00  0.00    -0.125 OA 
BRANCH  13  15
HETATM   15  O   UNL     1      -5.816  13.710  67.447  1.00  0.00    -0.352 OA 
BRANCH  15  16
HETATM   16  C   UNL     1      -5.267  12.375  67.449  1.00  0.00    -0.092 C  
BRANCH  16  17
HETATM   17  C   UNL     1      -5.974  11.533  66.374  1.00  0.00    -0.039 C  
BRANCH  17  18
HETATM   18  N   UNL     1      -5.453  10.172  66.161  1.00  0.00    -0.049 NA 
HETATM   19  C   UNL     1      -6.894   8.908  67.853  1.00  0.00    -0.070 C  
HETATM   20  C   UNL     1      -5.480   9.349  67.391  1.00  0.00    -0.037 C  
HETATM   21  N   UNL     1      -7.666   8.169  66.821  1.00  0.00    -0.094 NA 
HETATM   22  C   UNL     1      -6.271   9.496  65.122  1.00  0.00    -0.073 C  
HETATM   23  C   UNL     1      -7.670   9.020  65.602  1.00  0.00    -0.091 C  
BRANCH  21  24
HETATM   24  C   UNL     1      -7.095   6.810  66.565  1.00  0.00    -0.071 C  
BRANCH  24  25
HETATM   25  C   UNL     1      -7.817   5.693  67.338  1.00  0.00    -0.101 A  
HETATM   26  C   UNL     1      -7.709   5.636  68.742  1.00  0.00    -0.089 A  
HETATM   27  C   UNL     1      -8.629   4.739  66.704  1.00  0.00    -0.108 A  
HETATM   28  C   UNL     1      -8.382   4.657  69.478  1.00  0.00    -0.080 A  
HETATM   29  C   UNL     1      -9.162   3.707  68.826  1.00  0.00    -0.222 A  
HETATM   30  C   UNL     1      -9.284   3.746  67.440  1.00  0.00    -0.212 A  
ENDBRANCH  24  25
BRANCH  24  31
HETATM   31  C   UNL     1      -6.971   6.505  65.064  1.00  0.00    -0.051 A  
HETATM   32  C   UNL     1      -6.842   5.680  62.378  1.00  0.00    -0.032 A  
HETATM   33  C   UNL     1      -5.677   5.771  63.136  1.00  0.00    -0.017 A  
HETATM   34  C   UNL     1      -8.135   6.428  64.277  1.00  0.00    -0.063 A  
HETATM   35  C   UNL     1      -5.741   6.176  64.471  1.00  0.00    -0.022 A  
HETATM   36  C   UNL     1      -8.070   6.009  62.947  1.00  0.00    -0.091 A  
ENDBRANCH  24  31
ENDBRANCH  21  24
ENDBRANCH  17  18
ENDBRANCH  16  17
ENDBRANCH  15  16
ENDBRANCH  13  15
ENDBRANCH  11  13
BRANCH  12  37
HETATM   37  C   UNL     1      -8.323  16.080  67.077  1.00  0.00    -0.251 A  
HETATM   38  C   UNL     1      -8.201  17.738  68.851  1.00  0.00    -0.147 A  
HETATM   39  O   UNL     1      -6.290  18.753  64.638  1.00  0.00    -0.493 OA 
HETATM   40  C   UNL     1      -7.640  16.966  66.220  1.00  0.00    -0.312 A  
HETATM   41  O   UNL     1      -6.187  20.243  66.244  1.00  0.00    -0.180 OA 
HETATM   42  C   UNL     1      -7.243  18.225  66.688  1.00  0.00    -0.216 A  
HETATM   43  C   UNL     1      -7.512  18.611  68.006  1.00  0.00    -0.268 A  
HETATM   44  N   UNL     1      -6.520  19.139  65.791  1.00  0.00    -0.223 N  
HETATM   45  C   UNL     1      -8.613  16.487  68.387  1.00  0.00    -0.213 A  
ENDBRANCH  12  37
ENDBRANCH   3   5
ENDBRANCH   2   3
TORSDOF 11
ENDMDL
MODEL      190
REMARK 921   NORMALIZED FREE ENERGY PREDICTED BY IDOCK:   -1.40 KCAL/MOL
REMARK 922        TOTAL FREE ENERGY PREDICTED BY IDOCK:   -4.16 KCAL/MOL
REMARK 923 INTER-LIGAND FREE ENERGY PREDICTED BY IDOCK:   -6.60 KCAL/MOL
REMARK 924 INTRA-LIGAND FREE ENERGY PREDICTED BY IDOCK:    2.43 KCAL/MOL
REMARK 927      BINDING AFFINITY PREDICTED BY RF-SCORE:    0.00 PKD
ROOT
HETATM    1  C   UNL     1      -6.487   6.458  69.838  1.00  0.00    -0.047 C  
HETATM    2  O   UNL     1      -6.072   7.256  70.951  1.00  0.00    -0.035 OA 
ENDROOT
BRANCH   2   3
HETATM    3  C   UNL     1      -6.377   8.572  70.813  1.00  0.00    -0.039 C  
HETATM    4  O   UNL     1      -5.583   9.440  70.476  1.00  0.00    -0.033 OA 
BRANCH   3   5
HETATM    5  C   UNL     1      -7.799   8.821  71.168  1.00  0.00    -0.161 C  
HETATM    6  C   UNL     1      -8.321   8.380  72.343  1.00  0.00    -0.155 C  
HETATM    7  N   UNL     1      -9.664   8.592  72.618  1.00  0.00    -0.258 NA 
HETATM    8  C   UNL     1      -7.595   7.640  73.438  1.00  0.00    -0.135 C  
HETATM    9  C   UNL     1     -10.589   9.046  71.703  1.00  0.00    -0.364 C  
HETATM   10  C   UNL     1     -12.039   8.943  72.116  1.00  0.00    -0.430 C  
HETATM   11  C   UNL     1     -10.167   9.520  70.509  1.00  0.00    -0.349 C  
HETATM   12  C   UNL     1      -8.678   9.560  70.148  1.00  0.00    -0.258 C  
BRANCH  11  13
HETATM   13  C   UNL     1     -11.165   9.861  69.474  1.00  0.00    -0.177 C  
HETATM   14  O   UNL     1     -11.873   9.034  68.917  1.00  0.00     0.951 OA 
BRANCH  13  15
HETATM   15  O   UNL     1     -11.165  11.195  69.213  1.00  0.00    -0.225 OA 
BRANCH  15  16
HETATM   16  C   UNL     1     -12.106  11.569  68.185  1.00  0.00     0.038 C  
BRANCH  16  17
HETATM   17  C   UNL     1     -11.575  12.800  67.433  1.00  0.00    -0.356 C  
BRANCH  17  18
HETATM   18  N   UNL     1     -11.519  14.059  68.196  1.00  0.00    -0.290 NA 
HETATM   19  C   UNL     1      -8.983  14.361  68.311  1.00  0.00    -0.187 C  
HETATM   20  C   UNL     1     -10.322  14.151  69.063  1.00  0.00    -0.150 C  
HETATM   21  N   UNL     1      -8.966  15.552  67.423  1.00  0.00    -0.188 NA 
HETATM   22  C   UNL     1     -11.503  15.202  67.247  1.00  0.00    -0.279 C  
HETATM   23  C   UNL     1     -10.146  15.432  66.527  1.00  0.00    -0.271 C  
BRANCH  21  24
HETATM   24  C   UNL     1      -8.971  16.828  68.203  1.00  0.00    -0.224 C  
BRANCH  24  25
HETATM   25  C   UNL     1      -7.631  17.120  68.901  1.00  0.00    -0.234 A  
HETATM   26  C   UNL     1      -7.290  18.448  69.227  1.00  0.00    -0.066 A  
HETATM   27  C   UNL     1      -6.739  16.103  69.278  1.00  0.00    -0.198 A  
HETATM   28  C   UNL     1      -6.099  18.744  69.895  1.00  0.00    -0.228 A  
HETATM   29  C   UNL     1      -5.218  17.722  70.237  1.00  0.00    -0.244 A  
HETATM   30  C   UNL     1      -5.537  16.403  69.926  1.00  0.00    -0.185 A  
ENDBRANCH  24  25
BRANCH  24  31
HETATM   31  C   UNL     1      -9.473  18.017  67.369  1.00  0.00    -0.262 A  
HETATM   32  C   UNL     1     -10.399  20.345  66.090  1.00  0.00    -0.232 A  
HETATM   33  C   UNL     1     -11.274  19.290  66.336  1.00  0.00     0.200 A  
HETATM   34  C   UNL     1      -8.599  19.085  67.093  1.00  0.00    -0.298 A  
HETATM   35  C   UNL     1     -10.816  18.136  66.975  1.00  0.00    -0.162 A  
HETATM   36  C   UNL     1      -9.062  20.243  66.467  1.00  0.00    -0.354 A  
ENDBRANCH  24  31
ENDBRANCH  21  24
ENDBRANCH  17  18
ENDBRANCH  16  17
ENDBRANCH  15  16
ENDBRANCH  13  15
ENDBRANCH  11  13
BRANCH  12  37
HETATM   37  C   UNL     1      -8.456   9.072  68.707  1.00  0.00    -0.131 A  
HETATM   38  C   UNL     1      -7.159   9.060  66.650  1.00  0.00    -0.081 A  
HETATM   39  O   UNL     1     -10.725   5.979  67.121  1.00  0.00    -0.266 OA 
HETATM   40  C   UNL     1      -9.251   8.026  68.196  1.00  0.00    -0.134 A  
HETATM   41  O   UNL     1      -9.550   5.978  65.269  1.00  0.00     0.337 OA 
HETATM   42  C   UNL     1      -8.989   7.507  66.921  1.00  0.00    -0.135 A  
HETATM   43  C   UNL     1      -7.938   8.015  66.150  1.00  0.00    -0.103 A  
HETATM   44  N   UNL     1      -9.814   6.408  66.401  1.00  0.00    -0.113 N  
HETATM   45  C   UNL     1      -7.423   9.593  67.913  1.00  0.00    -0.083 A  
ENDBRANCH  12  37
ENDBRANCH   3   5
ENDBRANCH   2   3
TORSDOF 11
ENDMDL
MODEL      191
REMARK 921   NORMALIZED FREE ENERGY PREDICTED BY IDOCK:   -1.39 KCAL/MOL
REMARK 922        TOTAL FREE ENERGY PREDICTED BY IDOCK:   -4.15 KCAL/MOL
REMARK 923 INTER-LIGAND FREE ENERGY PREDICTED BY IDOCK:   -7.97 KCAL/MOL
REMARK 924 INTRA-LIGAND FREE ENERGY PREDICTED BY IDOCK:    3.82 KCAL/MOL
REMARK 927      BINDING AFFINITY PREDICTED BY RF-SCORE:    0.00 PKD
ROOT
HETATM    1  C   UNL     1     -10.815  15.529  68.782  1.00  0.00    -0.256 C  
HETATM    2  O   UNL     1      -9.758  14.736  68.233  1.00  0.00    -0.207 OA 
ENDROOT
BRANCH   2   3
HETATM    3  C   UNL     1     -10.038  13.408  68.211  1.00  0.00    -0.247 C  
HETATM    4  O   UNL     1     -11.029  12.895  68.713  1.00  0.00    -0.244 OA 
BRANCH   3   5
HETATM    5  C   UNL     1      -8.952  12.656  67.529  1.00  0.00    -0.187 C  
HETATM    6  C   UNL     1      -7.644  12.882  67.822  1.00  0.00    -0.141 C  
HETATM    7  N   UNL     1      -6.658  12.193  67.131  1.00  0.00    -0.147 NA 
HETATM    8  C   UNL     1      -7.096  13.846  68.844  1.00  0.00    -0.110 C  
HETATM    9  C   UNL     1      -6.880  11.423  66.009  1.00  0.00     0.241 C  
HETATM   10  C   UNL     1      -5.649  10.988  65.248  1.00  0.00     0.070 C  
HETATM   11  C   UNL     1      -8.148  11.129  65.644  1.00  0.00     0.085 C  
HETATM   12  C   UNL     1      -9.349  11.637  66.450  1.00  0.00    -0.224 C  
BRANCH  11  13
HETATM   13  C   UNL     1      -8.387  10.436  64.361  1.00  0.00    -0.142 C  
HETATM   14  O   UNL     1      -8.573  11.018  63.302  1.00  0.00    -0.107 OA 
BRANCH  13  15
HETATM   15  O   UNL     1      -8.398   9.087  64.526  1.00  0.00    -0.158 OA 
BRANCH  15  16
HETATM   16  C   UNL     1      -9.271   8.656  65.591  1.00  0.00    -0.139 C  
BRANCH  16  17
HETATM   17  C   UNL     1      -8.684   7.397  66.252  1.00  0.00    -0.149 C  
BRANCH  17  18
HETATM   18  N   UNL     1      -9.343   6.938  67.486  1.00  0.00    -0.122 NA 
HETATM   19  C   UNL     1      -7.294   6.101  68.764  1.00  0.00    -0.086 C  
HETATM   20  C   UNL     1      -8.660   5.780  68.105  1.00  0.00    -0.108 C  
HETATM   21  N   UNL     1      -7.354   7.168  69.795  1.00  0.00    -0.082 NA 
HETATM   22  C   UNL     1      -9.365   8.053  68.468  1.00  0.00    -0.142 C  
HETATM   23  C   UNL     1      -8.003   8.343  69.155  1.00  0.00    -0.110 C  
BRANCH  21  24
HETATM   24  C   UNL     1      -8.078   6.716  71.023  1.00  0.00    -0.119 C  
BRANCH  24  25
HETATM   25  C   UNL     1      -9.559   7.133  71.043  1.00  0.00    -0.158 A  
HETATM   26  C   UNL     1     -10.520   6.319  70.412  1.00  0.00    -0.277 A  
HETATM   27  C   UNL     1     -10.012   8.282  71.713  1.00  0.00    -0.284 A  
HETATM   28  C   UNL     1     -11.878   6.648  70.444  1.00  0.00    -0.407 A  
HETATM   29  C   UNL     1     -12.301   7.804  71.093  1.00  0.00    -0.268 A  
HETATM   30  C   UNL     1     -11.368   8.621  71.725  1.00  0.00    -0.393 A  
ENDBRANCH  24  25
BRANCH  24  31
HETATM   31  C   UNL     1      -7.883   5.217  71.296  1.00  0.00    -0.107 A  
HETATM   32  C   UNL     1      -7.367   2.464  71.555  1.00  0.00    -0.036 A  
HETATM   33  C   UNL     1      -8.609   2.900  71.102  1.00  0.00    -0.105 A  
HETATM   34  C   UNL     1      -6.642   4.758  71.774  1.00  0.00    -0.031 A  
HETATM   35  C   UNL     1      -8.865   4.267  70.968  1.00  0.00    -0.148 A  
HETATM   36  C   UNL     1      -6.384   3.391  71.892  1.00  0.00    -0.015 A  
ENDBRANCH  24  31
ENDBRANCH  21  24
ENDBRANCH  17  18
ENDBRANCH  16  17
ENDBRANCH  15  16
ENDBRANCH  13  15
ENDBRANCH  11  13
BRANCH  12  37
HETATM   37  C   UNL     1     -10.448  12.161  65.512  1.00  0.00    -0.300 A  
HETATM   38  C   UNL     1     -12.453  11.795  64.186  1.00  0.00    -0.252 A  
HETATM   39  O   UNL     1     -10.892  16.225  64.795  1.00  0.00    -0.671 OA 
HETATM   40  C   UNL     1     -10.565  13.547  65.282  1.00  0.00    -0.335 A  
HETATM   41  O   UNL     1     -12.698  15.884  63.598  1.00  0.00    -0.383 OA 
HETATM   42  C   UNL     1     -11.625  14.040  64.511  1.00  0.00    -0.391 A  
HETATM   43  C   UNL     1     -12.577  13.169  63.970  1.00  0.00    -0.249 A  
HETATM   44  N   UNL     1     -11.747  15.488  64.287  1.00  0.00    -0.303 N  
HETATM   45  C   UNL     1     -11.391  11.293  64.941  1.00  0.00    -0.023 A  
ENDBRANCH  12  37
ENDBRANCH   3   5
ENDBRANCH   2   3
TORSDOF 11
ENDMDL
MODEL      192
REMARK 921   NORMALIZED FREE ENERGY PREDICTED BY IDOCK:   -1.32 KCAL/MOL
REMARK 922        TOTAL FREE ENERGY PREDICTED BY IDOCK:   -4.03 KCAL/MOL
REMARK 923 INTER-LIGAND FREE ENERGY PREDICTED BY IDOCK:   -7.17 KCAL/MOL
REMARK 924 INTRA-LIGAND FREE ENERGY PREDICTED BY IDOCK:    3.14 KCAL/MOL
REMARK 927      BINDING AFFINITY PREDICTED BY RF-SCORE:    0.00 PKD
ROOT
HETATM    1  C   UNL     1     -10.638  16.236  64.866  1.00  0.00    -0.133 C  
HETATM    2  O   UNL     1     -11.160  15.836  66.136  1.00  0.00    -0.226 OA 
ENDROOT
BRANCH   2   3
HETATM    3  C   UNL     1     -10.650  16.544  67.175  1.00  0.00    -0.270 C  
HETATM    4  O   UNL     1     -11.245  17.432  67.773  1.00  0.00    -0.135 OA 
BRANCH   3   5
HETATM    5  C   UNL     1      -9.253  16.124  67.462  1.00  0.00    -0.210 C  
HETATM    6  C   UNL     1      -8.193  16.786  66.928  1.00  0.00    -0.210 C  
HETATM    7  N   UNL     1      -6.906  16.334  67.182  1.00  0.00    -0.194 NA 
HETATM    8  C   UNL     1      -8.236  18.002  66.039  1.00  0.00    -0.090 C  
HETATM    9  C   UNL     1      -6.601  15.130  67.779  1.00  0.00    -0.165 C  
HETATM   10  C   UNL     1      -5.153  14.703  67.712  1.00  0.00     0.004 C  
HETATM   11  C   UNL     1      -7.586  14.404  68.353  1.00  0.00    -0.122 C  
HETATM   12  C   UNL     1      -9.040  14.889  68.351  1.00  0.00    -0.185 C  
BRANCH  11  13
HETATM   13  C   UNL     1      -7.285  13.047  68.855  1.00  0.00    -0.047 C  
HETATM   14  O   UNL     1      -6.890  12.817  69.989  1.00  0.00     0.221 OA 
BRANCH  13  15
HETATM   15  O   UNL     1      -7.477  12.112  67.887  1.00  0.00    -0.099 OA 
BRANCH  15  16
HETATM   16  C   UNL     1      -7.719  10.792  68.419  1.00  0.00    -0.113 C  
BRANCH  16  17
HETATM   17  C   UNL     1      -7.777   9.781  67.262  1.00  0.00    -0.095 C  
BRANCH  17  18
HETATM   18  N   UNL     1      -8.730   8.668  67.413  1.00  0.00    -0.133 NA 
HETATM   19  C   UNL     1      -7.362   6.801  66.327  1.00  0.00    -0.073 C  
HETATM   20  C   UNL     1      -8.639   7.682  66.313  1.00  0.00    -0.144 C  
HETATM   21  N   UNL     1      -7.155   6.055  67.595  1.00  0.00    -0.072 NA 
HETATM   22  C   UNL     1      -8.462   7.970  68.697  1.00  0.00    -0.128 C  
HETATM   23  C   UNL     1      -7.206   7.057  68.693  1.00  0.00    -0.094 C  
BRANCH  21  24
HETATM   24  C   UNL     1      -8.164   4.966  67.773  1.00  0.00    -0.101 C  
BRANCH  24  25
HETATM   25  C   UNL     1      -9.154   5.235  68.919  1.00  0.00    -0.136 A  
HETATM   26  C   UNL     1     -10.419   5.784  68.631  1.00  0.00    -0.298 A  
HETATM   27  C   UNL     1      -8.870   4.909  70.255  1.00  0.00    -0.134 A  
HETATM   28  C   UNL     1     -11.357   6.006  69.644  1.00  0.00    -0.328 A  
HETATM   29  C   UNL     1     -11.044   5.698  70.965  1.00  0.00    -0.202 A  
HETATM   30  C   UNL     1      -9.800   5.152  71.270  1.00  0.00    -0.239 A  
ENDBRANCH  24  25
BRANCH  24  31
HETATM   31  C   UNL     1      -8.869   4.605  66.456  1.00  0.00    -0.111 A  
HETATM   32  C   UNL     1     -10.299   3.738  64.194  1.00  0.00    -0.260 A  
HETATM   33  C   UNL     1      -8.958   3.393  64.346  1.00  0.00    -0.123 A  
HETATM   34  C   UNL     1     -10.218   4.961  66.275  1.00  0.00    -0.312 A  
HETATM   35  C   UNL     1      -8.249   3.818  65.470  1.00  0.00    -0.101 A  
HETATM   36  C   UNL     1     -10.928   4.523  65.157  1.00  0.00    -0.017 A  
ENDBRANCH  24  31
ENDBRANCH  21  24
ENDBRANCH  17  18
ENDBRANCH  16  17
ENDBRANCH  15  16
ENDBRANCH  13  15
ENDBRANCH  11  13
BRANCH  12  37
HETATM   37  C   UNL     1      -9.996  13.735  68.006  1.00  0.00    -0.246 A  
HETATM   38  C   UNL     1     -10.797  12.037  66.462  1.00  0.00    -0.314 A  
HETATM   39  O   UNL     1     -12.440  12.043  70.904  1.00  0.00    -0.369 OA 
HETATM   40  C   UNL     1     -10.820  13.190  69.012  1.00  0.00    -0.202 A  
HETATM   41  O   UNL     1     -13.158  10.517  69.502  1.00  0.00     0.043 OA 
HETATM   42  C   UNL     1     -11.619  12.074  68.732  1.00  0.00    -0.311 A  
HETATM   43  C   UNL     1     -11.603  11.488  67.462  1.00  0.00    -0.322 A  
HETATM   44  N   UNL     1     -12.466  11.504  69.790  1.00  0.00    -0.126 N  
HETATM   45  C   UNL     1     -10.009  13.158  66.728  1.00  0.00    -0.250 A  
ENDBRANCH  12  37
ENDBRANCH   3   5
ENDBRANCH   2   3
TORSDOF 11
ENDMDL
MODEL      193
REMARK 921   NORMALIZED FREE ENERGY PREDICTED BY IDOCK:   -1.29 KCAL/MOL
REMARK 922        TOTAL FREE ENERGY PREDICTED BY IDOCK:   -3.98 KCAL/MOL
REMARK 923 INTER-LIGAND FREE ENERGY PREDICTED BY IDOCK:   -7.20 KCAL/MOL
REMARK 924 INTRA-LIGAND FREE ENERGY PREDICTED BY IDOCK:    3.23 KCAL/MOL
REMARK 927      BINDING AFFINITY PREDICTED BY RF-SCORE:    0.00 PKD
ROOT
HETATM    1  C   UNL     1     -12.973  11.170  71.558  1.00  0.00    -0.437 C  
HETATM    2  O   UNL     1     -12.968  10.135  70.571  1.00  0.00    -0.285 OA 
ENDROOT
BRANCH   2   3
HETATM    3  C   UNL     1     -12.120   9.117  70.863  1.00  0.00    -0.214 C  
HETATM    4  O   UNL     1     -12.452   8.059  71.382  1.00  0.00    -0.311 OA 
BRANCH   3   5
HETATM    5  C   UNL     1     -10.723   9.478  70.504  1.00  0.00    -0.359 C  
HETATM    6  C   UNL     1     -10.428  10.053  69.309  1.00  0.00    -0.225 C  
HETATM    7  N   UNL     1      -9.106  10.333  68.992  1.00  0.00    -0.173 NA 
HETATM    8  C   UNL     1     -11.398  10.434  68.220  1.00  0.00    -0.292 C  
HETATM    9  C   UNL     1      -8.017   9.892  69.712  1.00  0.00    -0.174 C  
HETATM   10  C   UNL     1      -6.669  10.067  69.052  1.00  0.00    -0.053 C  
HETATM   11  C   UNL     1      -8.207   9.319  70.922  1.00  0.00    -0.179 C  
HETATM   12  C   UNL     1      -9.611   9.146  71.511  1.00  0.00    -0.278 C  
BRANCH  11  13
HETATM   13  C   UNL     1      -7.056   8.710  71.621  1.00  0.00    -0.092 C  
HETATM   14  O   UNL     1      -6.821   8.878  72.809  1.00  0.00    -0.318 OA 
BRANCH  13  15
HETATM   15  O   UNL     1      -6.297   7.975  70.768  1.00  0.00    -0.036 OA 
BRANCH  15  16
HETATM   16  C   UNL     1      -6.348   6.560  71.044  1.00  0.00    -0.048 C  
BRANCH  16  17
HETATM   17  C   UNL     1      -6.074   5.778  69.748  1.00  0.00    -0.025 C  
BRANCH  17  18
HETATM   18  N   UNL     1      -7.033   5.977  68.648  1.00  0.00    -0.073 NA 
HETATM   19  C   UNL     1      -5.466   7.013  66.914  1.00  0.00    -0.018 C  
HETATM   20  C   UNL     1      -6.717   7.161  67.819  1.00  0.00    -0.064 C  
HETATM   21  N   UNL     1      -5.516   5.845  65.998  1.00  0.00    -0.009 NA 
HETATM   22  C   UNL     1      -7.027   4.774  67.776  1.00  0.00    -0.061 C  
HETATM   23  C   UNL     1      -5.791   4.652  66.843  1.00  0.00    -0.026 C  
BRANCH  21  24
HETATM   24  C   UNL     1      -6.535   6.025  64.919  1.00  0.00    -0.038 C  
BRANCH  24  25
HETATM   25  C   UNL     1      -7.637   4.951  64.937  1.00  0.00    -0.077 A  
HETATM   26  C   UNL     1      -7.361   3.662  64.441  1.00  0.00    -0.067 A  
HETATM   27  C   UNL     1      -8.911   5.186  65.479  1.00  0.00    -0.156 A  
HETATM   28  C   UNL     1      -8.327   2.652  64.477  1.00  0.00    -0.087 A  
HETATM   29  C   UNL     1      -9.591   2.914  64.996  1.00  0.00    -0.049 A  
HETATM   30  C   UNL     1      -9.884   4.181  65.495  1.00  0.00    -0.210 A  
ENDBRANCH  24  25
BRANCH  24  31
HETATM   31  C   UNL     1      -7.103   7.452  64.887  1.00  0.00    -0.060 A  
HETATM   32  C   UNL     1      -7.967  10.124  65.050  1.00  0.00    -0.146 A  
HETATM   33  C   UNL     1      -8.771   9.101  65.543  1.00  0.00    -0.210 A  
HETATM   34  C   UNL     1      -6.313   8.498  64.374  1.00  0.00    -0.067 A  
HETATM   35  C   UNL     1      -8.342   7.775  65.467  1.00  0.00    -0.151 A  
HETATM   36  C   UNL     1      -6.739   9.824  64.465  1.00  0.00    -0.118 A  
ENDBRANCH  24  31
ENDBRANCH  21  24
ENDBRANCH  17  18
ENDBRANCH  16  17
ENDBRANCH  15  16
ENDBRANCH  13  15
ENDBRANCH  11  13
BRANCH  12  37
HETATM   37  C   UNL     1      -9.769   7.749  72.133  1.00  0.00    -0.240 A  
HETATM   38  C   UNL     1     -10.292   6.321  74.030  1.00  0.00    -0.322 A  
HETATM   39  O   UNL     1      -9.688   4.334  69.774  1.00  0.00    -0.200 OA 
HETATM   40  C   UNL     1      -9.727   6.609  71.305  1.00  0.00    -0.183 A  
HETATM   41  O   UNL     1     -10.158   3.055  71.493  1.00  0.00    -0.117 OA 
HETATM   42  C   UNL     1      -9.971   5.341  71.847  1.00  0.00    -0.187 A  
HETATM   43  C   UNL     1     -10.264   5.194  73.207  1.00  0.00    -0.217 A  
HETATM   44  N   UNL     1      -9.937   4.159  70.974  1.00  0.00    -0.172 N  
HETATM   45  C   UNL     1     -10.036   7.587  73.501  1.00  0.00    -0.378 A  
ENDBRANCH  12  37
ENDBRANCH   3   5
ENDBRANCH   2   3
TORSDOF 11
ENDMDL
MODEL      194
REMARK 921   NORMALIZED FREE ENERGY PREDICTED BY IDOCK:   -1.20 KCAL/MOL
REMARK 922        TOTAL FREE ENERGY PREDICTED BY IDOCK:   -3.84 KCAL/MOL
REMARK 923 INTER-LIGAND FREE ENERGY PREDICTED BY IDOCK:   -7.50 KCAL/MOL
REMARK 924 INTRA-LIGAND FREE ENERGY PREDICTED BY IDOCK:    3.66 KCAL/MOL
REMARK 927      BINDING AFFINITY PREDICTED BY RF-SCORE:    0.00 PKD
ROOT
HETATM    1  C   UNL     1     -10.532   7.535  68.872  1.00  0.00    -0.203 C  
HETATM    2  O   UNL     1     -11.417   8.047  69.873  1.00  0.00    -0.035 OA 
ENDROOT
BRANCH   2   3
HETATM    3  C   UNL     1     -10.789   8.801  70.811  1.00  0.00    -0.234 C  
HETATM    4  O   UNL     1      -9.736   8.500  71.358  1.00  0.00    -0.180 OA 
BRANCH   3   5
HETATM    5  C   UNL     1     -11.579  10.023  71.116  1.00  0.00    -0.460 C  
HETATM    6  C   UNL     1     -12.669   9.976  71.925  1.00  0.00    -0.398 C  
HETATM    7  N   UNL     1     -13.407  11.129  72.148  1.00  0.00    -0.354 NA 
HETATM    8  C   UNL     1     -13.219   8.767  72.639  1.00  0.00    -0.331 C  
HETATM    9  C   UNL     1     -13.249  12.308  71.451  1.00  0.00    -0.086 C  
HETATM   10  C   UNL     1     -14.327  13.348  71.650  1.00  0.00     0.522 C  
HETATM   11  C   UNL     1     -12.185  12.458  70.631  1.00  0.00    -0.368 C  
HETATM   12  C   UNL     1     -11.149  11.342  70.455  1.00  0.00     0.278 C  
BRANCH  11  13
HETATM   13  C   UNL     1     -12.099  13.657  69.771  1.00  0.00    -0.334 C  
HETATM   14  O   UNL     1     -11.710  13.631  68.612  1.00  0.00    -0.308 OA 
BRANCH  13  15
HETATM   15  O   UNL     1     -12.481  14.773  70.445  1.00  0.00    -0.322 OA 
BRANCH  15  16
HETATM   16  C   UNL     1     -11.482  15.240  71.375  1.00  0.00    -0.389 C  
BRANCH  16  17
HETATM   17  C   UNL     1     -10.790  16.484  70.796  1.00  0.00     0.253 C  
BRANCH  17  18
HETATM   18  N   UNL     1     -10.996  16.739  69.360  1.00  0.00    -0.252 NA 
HETATM   19  C   UNL     1      -9.413  18.724  69.059  1.00  0.00    -0.217 C  
HETATM   20  C   UNL     1     -10.861  18.170  69.006  1.00  0.00     0.661 C  
HETATM   21  N   UNL     1      -8.447  17.977  68.215  1.00  0.00    -0.280 NA 
HETATM   22  C   UNL     1      -9.997  15.964  68.581  1.00  0.00    -0.214 C  
HETATM   23  C   UNL     1      -8.557  16.546  68.604  1.00  0.00    -0.243 C  
BRANCH  21  24
HETATM   24  C   UNL     1      -8.699  18.191  66.756  1.00  0.00    -0.263 C  
BRANCH  24  25
HETATM   25  C   UNL     1      -7.467  18.710  65.996  1.00  0.00    -0.265 A  
HETATM   26  C   UNL     1      -6.266  17.973  66.029  1.00  0.00    -0.277 A  
HETATM   27  C   UNL     1      -7.497  19.879  65.218  1.00  0.00     0.034 A  
HETATM   28  C   UNL     1      -5.140  18.397  65.318  1.00  0.00    -0.204 A  
HETATM   29  C   UNL     1      -5.185  19.572  64.574  1.00  0.00    -0.214 A  
HETATM   30  C   UNL     1      -6.362  20.314  64.526  1.00  0.00    -0.316 A  
ENDBRANCH  24  25
BRANCH  24  31
HETATM   31  C   UNL     1      -9.329  16.959  66.088  1.00  0.00    -0.268 A  
HETATM   32  C   UNL     1     -10.655  14.685  65.095  1.00  0.00    -0.441 A  
HETATM   33  C   UNL     1      -9.379  14.566  65.640  1.00  0.00     0.088 A  
HETATM   34  C   UNL     1     -10.609  17.064  65.514  1.00  0.00    -0.184 A  
HETATM   35  C   UNL     1      -8.722  15.693  66.138  1.00  0.00    -0.241 A  
HETATM   36  C   UNL     1     -11.270  15.933  65.031  1.00  0.00    -0.296 A  
ENDBRANCH  24  31
ENDBRANCH  21  24
ENDBRANCH  17  18
ENDBRANCH  16  17
ENDBRANCH  15  16
ENDBRANCH  13  15
ENDBRANCH  11  13
BRANCH  12  37
HETATM   37  C   UNL     1     -10.781  11.172  68.972  1.00  0.00    -0.265 A  
HETATM   38  C   UNL     1     -11.425  11.041  66.631  1.00  0.00     0.159 A  
HETATM   39  O   UNL     1      -6.822  11.248  67.727  1.00  0.00    -0.069 OA 
HETATM   40  C   UNL     1      -9.426  11.193  68.584  1.00  0.00    -0.196 A  
HETATM   41  O   UNL     1      -7.414  11.128  65.618  1.00  0.00     0.051 OA 
HETATM   42  C   UNL     1      -9.087  11.141  67.226  1.00  0.00    -0.150 A  
HETATM   43  C   UNL     1     -10.083  11.076  66.246  1.00  0.00    -0.282 A  
HETATM   44  N   UNL     1      -7.672  11.176  66.829  1.00  0.00    -0.147 N  
HETATM   45  C   UNL     1     -11.772  11.078  67.983  1.00  0.00    -0.257 A  
ENDBRANCH  12  37
ENDBRANCH   3   5
ENDBRANCH   2   3
TORSDOF 11
ENDMDL
MODEL      195
REMARK 921   NORMALIZED FREE ENERGY PREDICTED BY IDOCK:   -1.12 KCAL/MOL
REMARK 922        TOTAL FREE ENERGY PREDICTED BY IDOCK:   -3.71 KCAL/MOL
REMARK 923 INTER-LIGAND FREE ENERGY PREDICTED BY IDOCK:   -7.53 KCAL/MOL
REMARK 924 INTRA-LIGAND FREE ENERGY PREDICTED BY IDOCK:    3.82 KCAL/MOL
REMARK 927      BINDING AFFINITY PREDICTED BY RF-SCORE:    0.00 PKD
ROOT
HETATM    1  C   UNL     1      -6.168   6.486  68.718  1.00  0.00    -0.030 C  
HETATM    2  O   UNL     1      -5.592   7.702  69.203  1.00  0.00    -0.024 OA 
ENDROOT
BRANCH   2   3
HETATM    3  C   UNL     1      -5.908   8.785  68.448  1.00  0.00    -0.042 C  
HETATM    4  O   UNL     1      -5.162   9.309  67.632  1.00  0.00    -0.037 OA 
BRANCH   3   5
HETATM    5  C   UNL     1      -7.273   9.274  68.779  1.00  0.00    -0.074 C  
HETATM    6  C   UNL     1      -7.745   9.241  70.053  1.00  0.00    -0.104 C  
HETATM    7  N   UNL     1      -9.040   9.663  70.315  1.00  0.00    -0.246 NA 
HETATM    8  C   UNL     1      -7.010   8.768  71.282  1.00  0.00    -0.088 C  
HETATM    9  C   UNL     1      -9.985   9.937  69.350  1.00  0.00    -0.212 C  
HETATM   10  C   UNL     1     -11.404  10.110  69.840  1.00  0.00    -0.335 C  
HETATM   11  C   UNL     1      -9.611  10.006  68.053  1.00  0.00    -0.154 C  
HETATM   12  C   UNL     1      -8.154   9.785  67.629  1.00  0.00    -0.113 C  
BRANCH  11  13
HETATM   13  C   UNL     1     -10.647  10.146  67.009  1.00  0.00    -0.225 C  
HETATM   14  O   UNL     1     -11.135   9.199  66.409  1.00  0.00     0.439 OA 
BRANCH  13  15
HETATM   15  O   UNL     1     -10.955  11.452  66.794  1.00  0.00    -0.275 OA 
BRANCH  15  16
HETATM   16  C   UNL     1     -10.535  11.926  65.498  1.00  0.00    -0.268 C  
BRANCH  16  17
HETATM   17  C   UNL     1      -9.733  13.226  65.667  1.00  0.00    -0.083 C  
BRANCH  17  18
HETATM   18  N   UNL     1     -10.401  14.318  66.397  1.00  0.00    -0.280 NA 
HETATM   19  C   UNL     1      -8.797  14.537  68.375  1.00  0.00    -0.180 C  
HETATM   20  C   UNL     1     -10.226  14.218  67.863  1.00  0.00    -0.237 C  
HETATM   21  N   UNL     1      -8.291  15.872  67.969  1.00  0.00    -0.158 NA 
HETATM   22  C   UNL     1      -9.845  15.618  65.941  1.00  0.00    -0.350 C  
HETATM   23  C   UNL     1      -8.430  15.950  66.490  1.00  0.00    -0.313 C  
BRANCH  21  24
HETATM   24  C   UNL     1      -9.015  16.979  68.667  1.00  0.00    -0.267 C  
BRANCH  24  25
HETATM   25  C   UNL     1      -9.292  18.191  67.760  1.00  0.00    -0.268 A  
HETATM   26  C   UNL     1      -8.259  19.110  67.490  1.00  0.00    -0.310 A  
HETATM   27  C   UNL     1     -10.535  18.402  67.141  1.00  0.00    -0.434 A  
HETATM   28  C   UNL     1      -8.466  20.200  66.641  1.00  0.00    -0.343 A  
HETATM   29  C   UNL     1      -9.713  20.403  66.057  1.00  0.00    -0.252 A  
HETATM   30  C   UNL     1     -10.747  19.506  66.309  1.00  0.00    -0.530 A  
ENDBRANCH  24  25
BRANCH  24  31
HETATM   31  C   UNL     1     -10.275  16.484  69.392  1.00  0.00    -0.264 A  
HETATM   32  C   UNL     1     -12.487  15.308  70.672  1.00  0.00    -0.458 A  
HETATM   33  C   UNL     1     -12.623  15.834  69.390  1.00  0.00     0.264 A  
HETATM   34  C   UNL     1     -10.163  15.966  70.696  1.00  0.00     0.451 A  
HETATM   35  C   UNL     1     -11.524  16.414  68.752  1.00  0.00    -0.222 A  
HETATM   36  C   UNL     1     -11.259  15.375  71.326  1.00  0.00    -0.407 A  
ENDBRANCH  24  31
ENDBRANCH  21  24
ENDBRANCH  17  18
ENDBRANCH  16  17
ENDBRANCH  15  16
ENDBRANCH  13  15
ENDBRANCH  11  13
BRANCH  12  37
HETATM   37  C   UNL     1      -8.083   8.889  66.382  1.00  0.00    -0.110 A  
HETATM   38  C   UNL     1      -7.432   8.530  64.067  1.00  0.00    -0.116 A  
HETATM   39  O   UNL     1      -9.055   4.859  66.581  1.00  0.00    -0.116 OA 
HETATM   40  C   UNL     1      -8.429   7.527  66.482  1.00  0.00    -0.131 A  
HETATM   41  O   UNL     1      -8.468   4.545  64.491  1.00  0.00    -0.116 OA 
HETATM   42  C   UNL     1      -8.271   6.682  65.376  1.00  0.00    -0.138 A  
HETATM   43  C   UNL     1      -7.763   7.177  64.170  1.00  0.00    -0.120 A  
HETATM   44  N   UNL     1      -8.623   5.259  65.493  1.00  0.00    -0.141 N  
HETATM   45  C   UNL     1      -7.601   9.382  65.160  1.00  0.00    -0.108 A  
ENDBRANCH  12  37
ENDBRANCH   3   5
ENDBRANCH   2   3
TORSDOF 11
ENDMDL
MODEL      196
REMARK 921   NORMALIZED FREE ENERGY PREDICTED BY IDOCK:   -1.03 KCAL/MOL
REMARK 922        TOTAL FREE ENERGY PREDICTED BY IDOCK:   -3.55 KCAL/MOL
REMARK 923 INTER-LIGAND FREE ENERGY PREDICTED BY IDOCK:   -5.74 KCAL/MOL
REMARK 924 INTRA-LIGAND FREE ENERGY PREDICTED BY IDOCK:    2.19 KCAL/MOL
REMARK 927      BINDING AFFINITY PREDICTED BY RF-SCORE:    0.00 PKD
ROOT
HETATM    1  C   UNL     1     -11.061  15.449  65.390  1.00  0.00    -0.326 C  
HETATM    2  O   UNL     1     -10.883  14.504  66.448  1.00  0.00    -0.306 OA 
ENDROOT
BRANCH   2   3
HETATM    3  C   UNL     1     -10.710  15.082  67.663  1.00  0.00    -0.274 C  
HETATM    4  O   UNL     1     -11.561  15.734  68.253  1.00  0.00    -0.361 OA 
BRANCH   3   5
HETATM    5  C   UNL     1      -9.329  14.850  68.162  1.00  0.00    -0.193 C  
HETATM    6  C   UNL     1      -8.372  15.810  68.065  1.00  0.00    -0.152 C  
HETATM    7  N   UNL     1      -7.083  15.539  68.500  1.00  0.00    -0.112 NA 
HETATM    8  C   UNL     1      -8.535  17.200  67.503  1.00  0.00    -0.206 C  
HETATM    9  C   UNL     1      -6.621  14.289  68.851  1.00  0.00    -0.096 C  
HETATM   10  C   UNL     1      -5.126  14.159  69.026  1.00  0.00    -0.075 C  
HETATM   11  C   UNL     1      -7.498  13.270  68.988  1.00  0.00     0.077 C  
HETATM   12  C   UNL     1      -9.000  13.473  68.759  1.00  0.00     0.098 C  
BRANCH  11  13
HETATM   13  C   UNL     1      -6.986  11.902  69.212  1.00  0.00    -0.046 C  
HETATM   14  O   UNL     1      -7.060  11.319  70.285  1.00  0.00     0.028 OA 
BRANCH  13  15
HETATM   15  O   UNL     1      -6.408  11.404  68.088  1.00  0.00    -0.049 OA 
BRANCH  15  16
HETATM   16  C   UNL     1      -6.103   9.997  68.186  1.00  0.00    -0.049 C  
BRANCH  16  17
HETATM   17  C   UNL     1      -6.628   9.274  66.935  1.00  0.00    -0.068 C  
BRANCH  17  18
HETATM   18  N   UNL     1      -7.823   8.434  67.117  1.00  0.00    -0.100 NA 
HETATM   19  C   UNL     1      -7.013   6.303  65.961  1.00  0.00    -0.065 C  
HETATM   20  C   UNL     1      -8.027   7.476  66.007  1.00  0.00    -0.113 C  
HETATM   21  N   UNL     1      -6.950   5.507  67.213  1.00  0.00    -0.064 NA 
HETATM   22  C   UNL     1      -7.690   7.668  68.384  1.00  0.00    -0.119 C  
HETATM   23  C   UNL     1      -6.704   6.469  68.319  1.00  0.00    -0.068 C  
BRANCH  21  24
HETATM   24  C   UNL     1      -8.193   4.702  67.425  1.00  0.00    -0.101 C  
BRANCH  24  25
HETATM   25  C   UNL     1      -9.281   5.458  68.208  1.00  0.00    -0.125 A  
HETATM   26  C   UNL     1      -9.215   5.512  69.615  1.00  0.00    -0.163 A  
HETATM   27  C   UNL     1     -10.327   6.148  67.575  1.00  0.00    -0.259 A  
HETATM   28  C   UNL     1     -10.164   6.222  70.355  1.00  0.00    -0.248 A  
HETATM   29  C   UNL     1     -11.206   6.878  69.707  1.00  0.00    -0.315 A  
HETATM   30  C   UNL     1     -11.289   6.839  68.318  1.00  0.00    -0.022 A  
ENDBRANCH  24  25
BRANCH  24  31
HETATM   31  C   UNL     1      -8.723   4.094  66.117  1.00  0.00    -0.115 A  
HETATM   32  C   UNL     1      -9.557   3.193  63.586  1.00  0.00    -0.119 A  
HETATM   33  C   UNL     1     -10.449   3.869  64.413  1.00  0.00    -0.238 A  
HETATM   34  C   UNL     1      -7.842   3.390  65.276  1.00  0.00    -0.082 A  
HETATM   35  C   UNL     1     -10.035   4.321  65.668  1.00  0.00    -0.233 A  
HETATM   36  C   UNL     1      -8.254   2.952  64.017  1.00  0.00    -0.083 A  
ENDBRANCH  24  31
ENDBRANCH  21  24
ENDBRANCH  17  18
ENDBRANCH  16  17
ENDBRANCH  15  16
ENDBRANCH  13  15
ENDBRANCH  11  13
BRANCH  12  37
HETATM   37  C   UNL     1      -9.585  12.313  67.938  1.00  0.00    -0.203 A  
HETATM   38  C   UNL     1     -11.315  10.648  67.557  1.00  0.00    -0.241 A  
HETATM   39  O   UNL     1      -7.998  11.296  64.240  1.00  0.00     0.557 OA 
HETATM   40  C   UNL     1      -9.016  11.987  66.690  1.00  0.00    -0.204 A  
HETATM   41  O   UNL     1      -9.562   9.795  63.907  1.00  0.00    -0.175 OA 
HETATM   42  C   UNL     1      -9.604  11.000  65.890  1.00  0.00    -0.218 A  
HETATM   43  C   UNL     1     -10.760  10.335  66.315  1.00  0.00    -0.070 A  
HETATM   44  N   UNL     1      -9.012  10.675  64.584  1.00  0.00    -0.196 N  
HETATM   45  C   UNL     1     -10.727  11.621  68.368  1.00  0.00    -0.248 A  
ENDBRANCH  12  37
ENDBRANCH   3   5
ENDBRANCH   2   3
TORSDOF 11
ENDMDL
MODEL      197
REMARK 921   NORMALIZED FREE ENERGY PREDICTED BY IDOCK:   -1.03 KCAL/MOL
REMARK 922        TOTAL FREE ENERGY PREDICTED BY IDOCK:   -3.55 KCAL/MOL
REMARK 923 INTER-LIGAND FREE ENERGY PREDICTED BY IDOCK:   -4.83 KCAL/MOL
REMARK 924 INTRA-LIGAND FREE ENERGY PREDICTED BY IDOCK:    1.28 KCAL/MOL
REMARK 927      BINDING AFFINITY PREDICTED BY RF-SCORE:    0.00 PKD
ROOT
HETATM    1  C   UNL     1     -13.107  14.507  70.118  1.00  0.00     0.137 C  
HETATM    2  O   UNL     1     -12.021  14.534  69.188  1.00  0.00    -0.313 OA 
ENDROOT
BRANCH   2   3
HETATM    3  C   UNL     1     -12.043  13.504  68.304  1.00  0.00    -0.260 C  
HETATM    4  O   UNL     1     -12.874  13.364  67.417  1.00  0.00     0.450 OA 
BRANCH   3   5
HETATM    5  C   UNL     1     -10.943  12.545  68.589  1.00  0.00    -0.291 C  
HETATM    6  C   UNL     1     -11.055  11.613  69.572  1.00  0.00    -0.164 C  
HETATM    7  N   UNL     1      -9.989  10.767  69.838  1.00  0.00     0.140 NA 
HETATM    8  C   UNL     1     -12.245  11.376  70.467  1.00  0.00    -0.478 C  
HETATM    9  C   UNL     1      -8.721  10.915  69.317  1.00  0.00     0.029 C  
HETATM   10  C   UNL     1      -7.642  10.063  69.942  1.00  0.00    -0.177 C  
HETATM   11  C   UNL     1      -8.511  11.807  68.323  1.00  0.00    -0.161 C  
HETATM   12  C   UNL     1      -9.653  12.662  67.763  1.00  0.00    -0.197 C  
BRANCH  11  13
HETATM   13  C   UNL     1      -7.129  12.074  67.874  1.00  0.00    -0.097 C  
HETATM   14  O   UNL     1      -6.363  12.831  68.453  1.00  0.00    -0.068 OA 
BRANCH  13  15
HETATM   15  O   UNL     1      -6.844  11.394  66.732  1.00  0.00    -0.132 OA 
BRANCH  15  16
HETATM   16  C   UNL     1      -8.003  10.769  66.144  1.00  0.00    -0.157 C  
BRANCH  16  17
HETATM   17  C   UNL     1      -7.630   9.356  65.664  1.00  0.00    -0.095 C  
BRANCH  17  18
HETATM   18  N   UNL     1      -8.731   8.381  65.582  1.00  0.00    -0.173 NA 
HETATM   19  C   UNL     1      -7.372   6.255  65.170  1.00  0.00    -0.077 C  
HETATM   20  C   UNL     1      -8.437   7.260  64.660  1.00  0.00     0.155 C  
HETATM   21  N   UNL     1      -7.687   5.656  66.492  1.00  0.00    -0.099 NA 
HETATM   22  C   UNL     1      -8.988   7.824  66.936  1.00  0.00    -0.134 C  
HETATM   23  C   UNL     1      -7.940   6.787  67.424  1.00  0.00    -0.114 C  
BRANCH  21  24
HETATM   24  C   UNL     1      -8.846   4.713  66.415  1.00  0.00    -0.112 C  
BRANCH  24  25
HETATM   25  C   UNL     1      -8.772   3.756  65.212  1.00  0.00    -0.116 A  
HETATM   26  C   UNL     1      -9.822   3.736  64.273  1.00  0.00    -0.186 A  
HETATM   27  C   UNL     1      -7.667   2.922  64.977  1.00  0.00    -0.081 A  
HETATM   28  C   UNL     1      -9.769   2.907  63.149  1.00  0.00    -0.095 A  
HETATM   29  C   UNL     1      -8.675   2.070  62.949  1.00  0.00    -0.077 A  
HETATM   30  C   UNL     1      -7.626   2.076  63.864  1.00  0.00    -0.060 A  
ENDBRANCH  24  25
BRANCH  24  31
HETATM   31  C   UNL     1      -9.086   3.976  67.741  1.00  0.00    -0.175 A  
HETATM   32  C   UNL     1      -9.286   2.756  70.268  1.00  0.00    -0.210 A  
HETATM   33  C   UNL     1      -8.833   2.023  69.174  1.00  0.00    -0.138 A  
HETATM   34  C   UNL     1      -9.562   4.694  68.854  1.00  0.00    -0.233 A  
HETATM   35  C   UNL     1      -8.729   2.629  67.920  1.00  0.00    -0.138 A  
HETATM   36  C   UNL     1      -9.652   4.090  70.108  1.00  0.00    -0.270 A  
ENDBRANCH  24  31
ENDBRANCH  21  24
ENDBRANCH  17  18
ENDBRANCH  16  17
ENDBRANCH  15  16
ENDBRANCH  13  15
ENDBRANCH  11  13
BRANCH  12  37
HETATM   37  C   UNL     1      -9.197  14.118  67.574  1.00  0.00    -0.192 A  
HETATM   38  C   UNL     1      -8.147  15.852  66.231  1.00  0.00    -0.052 A  
HETATM   39  O   UNL     1     -10.352  17.085  70.237  1.00  0.00     0.260 OA 
HETATM   40  C   UNL     1      -9.599  15.100  68.502  1.00  0.00    -0.214 A  
HETATM   41  O   UNL     1      -9.400  18.641  69.020  1.00  0.00    -0.263 OA 
HETATM   42  C   UNL     1      -9.274  16.444  68.283  1.00  0.00    -0.207 A  
HETATM   43  C   UNL     1      -8.557  16.826  67.144  1.00  0.00    -0.217 A  
HETATM   44  N   UNL     1      -9.708  17.463  69.250  1.00  0.00    -0.083 N  
HETATM   45  C   UNL     1      -8.454  14.508  66.450  1.00  0.00     0.299 A  
ENDBRANCH  12  37
ENDBRANCH   3   5
ENDBRANCH   2   3
TORSDOF 11
ENDMDL
MODEL      198
REMARK 921   NORMALIZED FREE ENERGY PREDICTED BY IDOCK:   -0.84 KCAL/MOL
REMARK 922        TOTAL FREE ENERGY PREDICTED BY IDOCK:   -3.24 KCAL/MOL
REMARK 923 INTER-LIGAND FREE ENERGY PREDICTED BY IDOCK:   -7.05 KCAL/MOL
REMARK 924 INTRA-LIGAND FREE ENERGY PREDICTED BY IDOCK:    3.81 KCAL/MOL
REMARK 927      BINDING AFFINITY PREDICTED BY RF-SCORE:    0.00 PKD
ROOT
HETATM    1  C   UNL     1      -5.381  14.834  67.981  1.00  0.00    -0.115 C  
HETATM    2  O   UNL     1      -6.475  14.089  68.523  1.00  0.00    -0.080 OA 
ENDROOT
BRANCH   2   3
HETATM    3  C   UNL     1      -7.419  13.770  67.601  1.00  0.00    -0.178 C  
HETATM    4  O   UNL     1      -7.986  14.576  66.876  1.00  0.00    -0.115 OA 
BRANCH   3   5
HETATM    5  C   UNL     1      -7.699  12.310  67.621  1.00  0.00    -0.144 C  
HETATM    6  C   UNL     1      -6.891  11.427  66.978  1.00  0.00    -0.137 C  
HETATM    7  N   UNL     1      -7.212  10.077  66.981  1.00  0.00    -0.089 NA 
HETATM    8  C   UNL     1      -5.632  11.741  66.210  1.00  0.00     0.277 C  
HETATM    9  C   UNL     1      -8.410   9.557  67.421  1.00  0.00    -0.125 C  
HETATM   10  C   UNL     1      -8.669   8.107  67.084  1.00  0.00    -0.130 C  
HETATM   11  C   UNL     1      -9.277  10.354  68.086  1.00  0.00    -0.145 C  
HETATM   12  C   UNL     1      -8.956  11.828  68.360  1.00  0.00    -0.168 C  
BRANCH  11  13
HETATM   13  C   UNL     1     -10.620   9.838  68.420  1.00  0.00    -0.226 C  
HETATM   14  O   UNL     1     -11.566   9.863  67.646  1.00  0.00     0.019 OA 
BRANCH  13  15
HETATM   15  O   UNL     1     -10.663   9.368  69.694  1.00  0.00    -0.225 OA 
BRANCH  15  16
HETATM   16  C   UNL     1     -11.120   8.002  69.776  1.00  0.00    -0.064 C  
BRANCH  16  17
HETATM   17  C   UNL     1     -11.801   7.774  71.136  1.00  0.00    -0.291 C  
BRANCH  17  18
HETATM   18  N   UNL     1     -11.014   7.052  72.150  1.00  0.00    -0.228 NA 
HETATM   19  C   UNL     1     -10.508   4.916  70.840  1.00  0.00    -0.092 C  
HETATM   20  C   UNL     1     -11.181   5.584  72.068  1.00  0.00    -0.156 C  
HETATM   21  N   UNL     1      -9.055   5.193  70.720  1.00  0.00    -0.133 NA 
HETATM   22  C   UNL     1      -9.575   7.375  71.968  1.00  0.00    -0.150 C  
HETATM   23  C   UNL     1      -8.897   6.671  70.761  1.00  0.00    -0.147 C  
BRANCH  21  24
HETATM   24  C   UNL     1      -8.266   4.508  71.790  1.00  0.00    -0.103 C  
BRANCH  24  25
HETATM   25  C   UNL     1      -7.428   5.476  72.643  1.00  0.00    -0.097 A  
HETATM   26  C   UNL     1      -6.136   5.842  72.215  1.00  0.00    -0.040 A  
HETATM   27  C   UNL     1      -7.917   6.059  73.823  1.00  0.00    -0.101 A  
HETATM   28  C   UNL     1      -5.364   6.748  72.946  1.00  0.00    -0.038 A  
HETATM   29  C   UNL     1      -5.859   7.295  74.126  1.00  0.00    -0.065 A  
HETATM   30  C   UNL     1      -7.134   6.949  74.565  1.00  0.00    -0.099 A  
ENDBRANCH  24  25
BRANCH  24  31
HETATM   31  C   UNL     1      -9.133   3.569  72.642  1.00  0.00    -0.128 A  
HETATM   32  C   UNL     1     -10.941   1.918  74.027  1.00  0.00    -0.245 A  
HETATM   33  C   UNL     1     -10.575   3.151  74.560  1.00  0.00    -0.168 A  
HETATM   34  C   UNL     1      -9.498   2.311  72.130  1.00  0.00    -0.175 A  
HETATM   35  C   UNL     1      -9.682   3.973  73.871  1.00  0.00    -0.146 A  
HETATM   36  C   UNL     1     -10.403   1.497  72.814  1.00  0.00    -0.207 A  
ENDBRANCH  24  31
ENDBRANCH  21  24
ENDBRANCH  17  18
ENDBRANCH  16  17
ENDBRANCH  15  16
ENDBRANCH  13  15
ENDBRANCH  11  13
BRANCH  12  37
HETATM   37  C   UNL     1     -10.185  12.710  68.084  1.00  0.00    -0.240 A  
HETATM   38  C   UNL     1     -11.833  14.338  68.820  1.00  0.00    -0.377 A  
HETATM   39  O   UNL     1     -11.655  13.183  64.231  1.00  0.00    -0.354 OA 
HETATM   40  C   UNL     1     -10.665  12.841  66.764  1.00  0.00    -0.278 A  
HETATM   41  O   UNL     1     -13.140  14.650  64.906  1.00  0.00    -0.419 OA 
HETATM   42  C   UNL     1     -11.719  13.721  66.488  1.00  0.00    -0.385 A  
HETATM   43  C   UNL     1     -12.299  14.479  67.511  1.00  0.00     0.019 A  
HETATM   44  N   UNL     1     -12.205  13.861  65.108  1.00  0.00    -0.403 N  
HETATM   45  C   UNL     1     -10.792  13.453  69.106  1.00  0.00    -0.156 A  
ENDBRANCH  12  37
ENDBRANCH   3   5
ENDBRANCH   2   3
TORSDOF 11
ENDMDL
MODEL      199
REMARK 921   NORMALIZED FREE ENERGY PREDICTED BY IDOCK:   -0.82 KCAL/MOL
REMARK 922        TOTAL FREE ENERGY PREDICTED BY IDOCK:   -3.20 KCAL/MOL
REMARK 923 INTER-LIGAND FREE ENERGY PREDICTED BY IDOCK:   -3.43 KCAL/MOL
REMARK 924 INTRA-LIGAND FREE ENERGY PREDICTED BY IDOCK:    0.23 KCAL/MOL
REMARK 927      BINDING AFFINITY PREDICTED BY RF-SCORE:    0.00 PKD
ROOT
HETATM    1  C   UNL     1     -13.455  13.709  70.728  1.00  0.00     0.246 C  
HETATM    2  O   UNL     1     -12.754  13.726  69.481  1.00  0.00    -0.065 OA 
ENDROOT
BRANCH   2   3
HETATM    3  C   UNL     1     -12.152  14.913  69.218  1.00  0.00    -0.251 C  
HETATM    4  O   UNL     1     -12.732  15.921  68.836  1.00  0.00     0.429 OA 
BRANCH   3   5
HETATM    5  C   UNL     1     -10.682  14.811  69.418  1.00  0.00    -0.250 C  
HETATM    6  C   UNL     1     -10.114  15.076  70.624  1.00  0.00     0.551 C  
HETATM    7  N   UNL     1      -8.734  15.015  70.759  1.00  0.00     1.673 NA 
HETATM    8  C   UNL     1     -10.823  15.460  71.897  1.00  0.00     0.196 C  
HETATM    9  C   UNL     1      -7.848  14.900  69.709  1.00  0.00     0.045 C  
HETATM   10  C   UNL     1      -6.392  15.130  70.040  1.00  0.00    -0.153 C  
HETATM   11  C   UNL     1      -8.316  14.622  68.471  1.00  0.00    -0.162 C  
HETATM   12  C   UNL     1      -9.814  14.435  68.208  1.00  0.00    -0.229 C  
BRANCH  11  13
HETATM   13  C   UNL     1      -7.385  14.651  67.324  1.00  0.00    -0.090 C  
HETATM   14  O   UNL     1      -7.495  15.424  66.383  1.00  0.00     0.174 OA 
BRANCH  13  15
HETATM   15  O   UNL     1      -6.424  13.699  67.448  1.00  0.00    -0.278 OA 
BRANCH  15  16
HETATM   16  C   UNL     1      -6.824  12.420  66.913  1.00  0.00     0.131 C  
BRANCH  16  17
HETATM   17  C   UNL     1      -7.765  11.724  67.909  1.00  0.00    -0.125 C  
BRANCH  17  18
HETATM   18  N   UNL     1      -7.225  10.541  68.603  1.00  0.00    -0.083 NA 
HETATM   19  C   UNL     1      -9.404   9.569  69.522  1.00  0.00    -0.190 C  
HETATM   20  C   UNL     1      -8.005  10.177  69.807  1.00  0.00    -0.161 C  
HETATM   21  N   UNL     1      -9.377   8.371  68.645  1.00  0.00    -0.143 NA 
HETATM   22  C   UNL     1      -7.231   9.386  67.668  1.00  0.00    -0.083 C  
HETATM   23  C   UNL     1      -8.629   8.756  67.419  1.00  0.00    -0.126 C  
BRANCH  21  24
HETATM   24  C   UNL     1      -8.771   7.189  69.333  1.00  0.00    -0.134 C  
BRANCH  24  25
HETATM   25  C   UNL     1      -9.445   6.856  70.676  1.00  0.00    -0.165 A  
HETATM   26  C   UNL     1      -8.800   7.195  71.882  1.00  0.00    -0.131 A  
HETATM   27  C   UNL     1     -10.716   6.264  70.757  1.00  0.00    -0.312 A  
HETATM   28  C   UNL     1      -9.400   6.942  73.118  1.00  0.00    -0.167 A  
HETATM   29  C   UNL     1     -10.650   6.331  73.174  1.00  0.00    -0.273 A  
HETATM   30  C   UNL     1     -11.306   5.991  71.995  1.00  0.00    -0.345 A  
ENDBRANCH  24  25
BRANCH  24  31
HETATM   31  C   UNL     1      -8.665   5.968  68.407  1.00  0.00    -0.113 A  
HETATM   32  C   UNL     1      -8.444   3.918  66.494  1.00  0.00    -0.105 A  
HETATM   33  C   UNL     1      -9.686   4.233  67.038  1.00  0.00    -0.237 A  
HETATM   34  C   UNL     1      -7.414   5.621  67.863  1.00  0.00    -0.077 A  
HETATM   35  C   UNL     1      -9.798   5.253  67.984  1.00  0.00    -0.193 A  
HETATM   36  C   UNL     1      -7.308   4.611  66.906  1.00  0.00    -0.081 A  
ENDBRANCH  24  31
ENDBRANCH  21  24
ENDBRANCH  17  18
ENDBRANCH  16  17
ENDBRANCH  15  16
ENDBRANCH  13  15
ENDBRANCH  11  13
BRANCH  12  37
HETATM   37  C   UNL     1     -10.234  15.168  66.923  1.00  0.00    -0.259 A  
HETATM   38  C   UNL     1     -11.243  15.157  64.711  1.00  0.00    -0.396 A  
HETATM   39  O   UNL     1     -10.107  19.310  66.684  1.00  0.00    -0.339 OA 
HETATM   40  C   UNL     1     -10.170  16.575  66.872  1.00  0.00    -0.296 A  
HETATM   41  O   UNL     1     -11.016  19.289  64.688  1.00  0.00     0.100 OA 
HETATM   42  C   UNL     1     -10.645  17.256  65.744  1.00  0.00    -0.194 A  
HETATM   43  C   UNL     1     -11.192  16.552  64.666  1.00  0.00    -0.123 A  
HETATM   44  N   UNL     1     -10.586  18.725  65.704  1.00  0.00    -0.328 N  
HETATM   45  C   UNL     1     -10.758  14.470  65.825  1.00  0.00    -0.320 A  
ENDBRANCH  12  37
ENDBRANCH   3   5
ENDBRANCH   2   3
TORSDOF 11
ENDMDL
MODEL      200
REMARK 921   NORMALIZED FREE ENERGY PREDICTED BY IDOCK:   -0.80 KCAL/MOL
REMARK 922        TOTAL FREE ENERGY PREDICTED BY IDOCK:   -3.17 KCAL/MOL
REMARK 923 INTER-LIGAND FREE ENERGY PREDICTED BY IDOCK:   -4.23 KCAL/MOL
REMARK 924 INTRA-LIGAND FREE ENERGY PREDICTED BY IDOCK:    1.06 KCAL/MOL
REMARK 927      BINDING AFFINITY PREDICTED BY RF-SCORE:    0.00 PKD
ROOT
HETATM    1  C   UNL     1     -13.350  13.917  70.899  1.00  0.00    -0.068 C  
HETATM    2  O   UNL     1     -12.505  13.548  69.805  1.00  0.00    -0.235 OA 
ENDROOT
BRANCH   2   3
HETATM    3  C   UNL     1     -12.000  14.613  69.132  1.00  0.00    -0.294 C  
HETATM    4  O   UNL     1     -12.651  15.349  68.403  1.00  0.00     0.378 OA 
BRANCH   3   5
HETATM    5  C   UNL     1     -10.538  14.736  69.368  1.00  0.00    -0.229 C  
HETATM    6  C   UNL     1     -10.044  15.051  70.594  1.00  0.00     0.551 C  
HETATM    7  N   UNL     1      -8.676  15.203  70.764  1.00  0.00     1.627 NA 
HETATM    8  C   UNL     1     -10.833  15.283  71.858  1.00  0.00     0.230 C  
HETATM    9  C   UNL     1      -7.760  15.259  69.735  1.00  0.00    -0.079 C  
HETATM   10  C   UNL     1      -6.366  15.705  70.110  1.00  0.00    -0.056 C  
HETATM   11  C   UNL     1      -8.151  14.948  68.479  1.00  0.00    -0.147 C  
HETATM   12  C   UNL     1      -9.595  14.536  68.171  1.00  0.00    -0.212 C  
BRANCH  11  13
HETATM   13  C   UNL     1      -7.211  15.156  67.358  1.00  0.00    -0.199 C  
HETATM   14  O   UNL     1      -7.213  16.152  66.649  1.00  0.00    -0.192 OA 
BRANCH  13  15
HETATM   15  O   UNL     1      -6.378  14.092  67.212  1.00  0.00    -0.295 OA 
BRANCH  15  16
HETATM   16  C   UNL     1      -6.939  12.862  67.716  1.00  0.00    -0.138 C  
BRANCH  16  17
HETATM   17  C   UNL     1      -6.677  11.732  66.707  1.00  0.00    -0.048 C  
BRANCH  17  18
HETATM   18  N   UNL     1      -7.788  10.796  66.469  1.00  0.00    -0.139 NA 
HETATM   19  C   UNL     1      -7.199   9.005  68.196  1.00  0.00    -0.079 C  
HETATM   20  C   UNL     1      -7.411   9.384  66.707  1.00  0.00    -0.086 C  
HETATM   21  N   UNL     1      -8.368   9.293  69.067  1.00  0.00    -0.120 NA 
HETATM   22  C   UNL     1      -8.916  11.142  67.372  1.00  0.00    -0.139 C  
HETATM   23  C   UNL     1      -8.716  10.723  68.855  1.00  0.00    -0.152 C  
BRANCH  21  24
HETATM   24  C   UNL     1      -9.516   8.379  68.778  1.00  0.00    -0.147 C  
BRANCH  24  25
HETATM   25  C   UNL     1      -9.102   7.099  68.031  1.00  0.00    -0.132 A  
HETATM   26  C   UNL     1      -9.500   6.916  66.691  1.00  0.00    -0.209 A  
HETATM   27  C   UNL     1      -8.293   6.111  68.615  1.00  0.00    -0.114 A  
HETATM   28  C   UNL     1      -9.110   5.784  65.971  1.00  0.00    -0.163 A  
HETATM   29  C   UNL     1      -8.328   4.805  66.578  1.00  0.00    -0.107 A  
HETATM   30  C   UNL     1      -7.922   4.968  67.900  1.00  0.00    -0.094 A  
ENDBRANCH  24  25
BRANCH  24  31
HETATM   31  C   UNL     1     -10.355   8.085  70.031  1.00  0.00    -0.218 A  
HETATM   32  C   UNL     1     -12.096   7.715  72.210  1.00  0.00    -0.297 A  
HETATM   33  C   UNL     1     -11.006   8.573  72.327  1.00  0.00    -0.426 A  
HETATM   34  C   UNL     1     -11.449   7.205  69.939  1.00  0.00    -0.154 A  
HETATM   35  C   UNL     1     -10.144   8.761  71.245  1.00  0.00    -0.336 A  
HETATM   36  C   UNL     1     -12.317   7.030  71.018  1.00  0.00    -0.402 A  
ENDBRANCH  24  31
ENDBRANCH  21  24
ENDBRANCH  17  18
ENDBRANCH  16  17
ENDBRANCH  15  16
ENDBRANCH  13  15
ENDBRANCH  11  13
BRANCH  12  37
HETATM   37  C   UNL     1     -10.097  15.231  66.895  1.00  0.00    -0.257 A  
HETATM   38  C   UNL     1     -11.049  15.127  64.660  1.00  0.00    -0.338 A  
HETATM   39  O   UNL     1     -10.598  19.349  66.757  1.00  0.00    -0.430 OA 
HETATM   40  C   UNL     1     -10.246  16.633  66.879  1.00  0.00    -0.291 A  
HETATM   41  O   UNL     1     -11.454  19.244  64.741  1.00  0.00     0.582 OA 
HETATM   42  C   UNL     1     -10.798  17.264  65.757  1.00  0.00    -0.023 A  
HETATM   43  C   UNL     1     -11.210  16.514  64.650  1.00  0.00    -0.123 A  
HETATM   44  N   UNL     1     -10.962  18.725  65.753  1.00  0.00    -0.095 N  
HETATM   45  C   UNL     1     -10.486  14.491  65.769  1.00  0.00    -0.335 A  
ENDBRANCH  12  37
ENDBRANCH   3   5
ENDBRANCH   2   3
TORSDOF 11
ENDMDL
MODEL      201
REMARK 921   NORMALIZED FREE ENERGY PREDICTED BY IDOCK:   -0.77 KCAL/MOL
REMARK 922        TOTAL FREE ENERGY PREDICTED BY IDOCK:   -3.13 KCAL/MOL
REMARK 923 INTER-LIGAND FREE ENERGY PREDICTED BY IDOCK:   -4.93 KCAL/MOL
REMARK 924 INTRA-LIGAND FREE ENERGY PREDICTED BY IDOCK:    1.80 KCAL/MOL
REMARK 927      BINDING AFFINITY PREDICTED BY RF-SCORE:    0.00 PKD
ROOT
HETATM    1  C   UNL     1     -10.666   6.150  71.702  1.00  0.00    -0.245 C  
HETATM    2  O   UNL     1      -9.613   6.854  71.038  1.00  0.00    -0.170 OA 
ENDROOT
BRANCH   2   3
HETATM    3  C   UNL     1      -9.415   8.107  71.521  1.00  0.00    -0.171 C  
HETATM    4  O   UNL     1     -10.077   8.625  72.410  1.00  0.00    -0.307 OA 
BRANCH   3   5
HETATM    5  C   UNL     1      -8.308   8.781  70.792  1.00  0.00    -0.185 C  
HETATM    6  C   UNL     1      -7.069   8.897  71.340  1.00  0.00    -0.082 C  
HETATM    7  N   UNL     1      -6.075   9.573  70.648  1.00  0.00    -0.063 NA 
HETATM    8  C   UNL     1      -6.615   8.371  72.678  1.00  0.00    -0.104 C  
HETATM    9  C   UNL     1      -6.284  10.328  69.514  1.00  0.00    -0.051 C  
HETATM   10  C   UNL     1      -5.133  11.204  69.077  1.00  0.00    -0.041 C  
HETATM   11  C   UNL     1      -7.480  10.269  68.886  1.00  0.00    -0.094 C  
HETATM   12  C   UNL     1      -8.613   9.381  69.411  1.00  0.00    -0.148 C  
BRANCH  11  13
HETATM   13  C   UNL     1      -7.753  11.192  67.765  1.00  0.00    -0.112 C  
HETATM   14  O   UNL     1      -7.817  12.406  67.888  1.00  0.00    -0.122 OA 
BRANCH  13  15
HETATM   15  O   UNL     1      -7.947  10.510  66.605  1.00  0.00    -0.116 OA 
BRANCH  15  16
HETATM   16  C   UNL     1      -6.797  10.541  65.734  1.00  0.00    -0.127 C  
BRANCH  16  17
HETATM   17  C   UNL     1      -6.314   9.104  65.478  1.00  0.00    -0.067 C  
BRANCH  17  18
HETATM   18  N   UNL     1      -7.361   8.085  65.293  1.00  0.00    -0.068 NA 
HETATM   19  C   UNL     1      -5.935   5.976  65.531  1.00  0.00    -0.025 C  
HETATM   20  C   UNL     1      -6.856   6.854  64.644  1.00  0.00    -0.046 C  
HETATM   21  N   UNL     1      -6.548   5.566  66.820  1.00  0.00    -0.054 NA 
HETATM   22  C   UNL     1      -7.925   7.723  66.619  1.00  0.00    -0.107 C  
HETATM   23  C   UNL     1      -7.016   6.810  67.486  1.00  0.00    -0.083 C  
BRANCH  21  24
HETATM   24  C   UNL     1      -7.652   4.577  66.622  1.00  0.00    -0.086 C  
BRANCH  24  25
HETATM   25  C   UNL     1      -7.535   3.790  65.305  1.00  0.00    -0.077 A  
HETATM   26  C   UNL     1      -8.620   3.771  64.406  1.00  0.00    -0.102 A  
HETATM   27  C   UNL     1      -6.361   3.117  64.929  1.00  0.00    -0.024 A  
HETATM   28  C   UNL     1      -8.533   3.098  63.184  1.00  0.00    -0.085 A  
HETATM   29  C   UNL     1      -7.368   2.417  62.843  1.00  0.00    -0.041 A  
HETATM   30  C   UNL     1      -6.284   2.425  63.716  1.00  0.00    -0.014 A  
ENDBRANCH  24  25
BRANCH  24  31
HETATM   31  C   UNL     1      -7.840   3.662  67.842  1.00  0.00    -0.069 A  
HETATM   32  C   UNL     1      -8.467   1.988  70.014  1.00  0.00    -0.085 A  
HETATM   33  C   UNL     1      -8.178   3.333  70.231  1.00  0.00    -0.066 A  
HETATM   34  C   UNL     1      -8.114   2.295  67.644  1.00  0.00    -0.068 A  
HETATM   35  C   UNL     1      -7.872   4.165  69.153  1.00  0.00    -0.057 A  
HETATM   36  C   UNL     1      -8.434   1.469  68.722  1.00  0.00    -0.079 A  
ENDBRANCH  24  31
ENDBRANCH  21  24
ENDBRANCH  17  18
ENDBRANCH  16  17
ENDBRANCH  15  16
ENDBRANCH  13  15
ENDBRANCH  11  13
BRANCH  12  37
HETATM   37  C   UNL     1      -9.954  10.133  69.372  1.00  0.00    -0.247 A  
HETATM   38  C   UNL     1     -12.358  10.196  69.727  1.00  0.00     0.084 A  
HETATM   39  O   UNL     1     -10.092  14.226  68.701  1.00  0.00    -0.233 OA 
HETATM   40  C   UNL     1      -9.966  11.522  69.132  1.00  0.00     0.050 A  
HETATM   41  O   UNL     1     -12.261  14.273  69.020  1.00  0.00    -0.311 OA 
HETATM   42  C   UNL     1     -11.172  12.231  69.195  1.00  0.00    -0.242 A  
HETATM   43  C   UNL     1     -12.368  11.575  69.502  1.00  0.00    -0.190 A  
HETATM   44  N   UNL     1     -11.174  13.682  68.956  1.00  0.00    -0.263 N  
HETATM   45  C   UNL     1     -11.163   9.479  69.651  1.00  0.00    -0.138 A  
ENDBRANCH  12  37
ENDBRANCH   3   5
ENDBRANCH   2   3
TORSDOF 11
ENDMDL
MODEL      202
REMARK 921   NORMALIZED FREE ENERGY PREDICTED BY IDOCK:   -0.75 KCAL/MOL
REMARK 922        TOTAL FREE ENERGY PREDICTED BY IDOCK:   -3.10 KCAL/MOL
REMARK 923 INTER-LIGAND FREE ENERGY PREDICTED BY IDOCK:   -7.43 KCAL/MOL
REMARK 924 INTRA-LIGAND FREE ENERGY PREDICTED BY IDOCK:    4.33 KCAL/MOL
REMARK 927      BINDING AFFINITY PREDICTED BY RF-SCORE:    0.00 PKD
ROOT
HETATM    1  C   UNL     1      -5.460  11.328  65.489  1.00  0.00     0.241 C  
HETATM    2  O   UNL     1      -5.225  11.412  66.898  1.00  0.00    -0.072 OA 
ENDROOT
BRANCH   2   3
HETATM    3  C   UNL     1      -6.305  11.842  67.599  1.00  0.00    -0.082 C  
HETATM    4  O   UNL     1      -6.365  12.902  68.208  1.00  0.00    -0.071 OA 
BRANCH   3   5
HETATM    5  C   UNL     1      -7.391  10.828  67.562  1.00  0.00    -0.092 C  
HETATM    6  C   UNL     1      -7.170   9.573  67.089  1.00  0.00    -0.087 C  
HETATM    7  N   UNL     1      -8.221   8.669  67.028  1.00  0.00    -0.106 NA 
HETATM    8  C   UNL     1      -5.866   9.010  66.584  1.00  0.00    -0.055 C  
HETATM    9  C   UNL     1      -9.546   8.993  67.223  1.00  0.00    -0.159 C  
HETATM   10  C   UNL     1     -10.553   7.934  66.840  1.00  0.00    -0.333 C  
HETATM   11  C   UNL     1      -9.868  10.214  67.706  1.00  0.00    -0.190 C  
HETATM   12  C   UNL     1      -8.789  11.251  68.039  1.00  0.00    -0.148 C  
BRANCH  11  13
HETATM   13  C   UNL     1     -11.289  10.614  67.769  1.00  0.00    -0.244 C  
HETATM   14  O   UNL     1     -11.781  11.479  67.057  1.00  0.00    -0.556 OA 
BRANCH  13  15
HETATM   15  O   UNL     1     -11.953   9.919  68.729  1.00  0.00     0.244 OA 
BRANCH  15  16
HETATM   16  C   UNL     1     -11.973  10.595  70.003  1.00  0.00    -0.329 C  
BRANCH  16  17
HETATM   17  C   UNL     1     -10.810  10.084  70.869  1.00  0.00    -0.206 C  
BRANCH  17  18
HETATM   18  N   UNL     1     -11.020   8.796  71.553  1.00  0.00    -0.281 NA 
HETATM   19  C   UNL     1     -10.056   7.224  69.783  1.00  0.00    -0.194 C  
HETATM   20  C   UNL     1     -11.283   7.683  70.613  1.00  0.00    -0.266 C  
HETATM   21  N   UNL     1      -8.883   6.829  70.603  1.00  0.00    -0.150 NA 
HETATM   22  C   UNL     1      -9.810   8.466  72.350  1.00  0.00    -0.308 C  
HETATM   23  C   UNL     1      -8.597   7.968  71.516  1.00  0.00    -0.128 C  
BRANCH  21  24
HETATM   24  C   UNL     1      -9.124   5.553  71.344  1.00  0.00    -0.143 C  
BRANCH  24  25
HETATM   25  C   UNL     1      -9.221   4.324  70.423  1.00  0.00    -0.191 A  
HETATM   26  C   UNL     1      -9.288   3.034  70.988  1.00  0.00    -0.214 A  
HETATM   27  C   UNL     1      -9.295   4.432  69.025  1.00  0.00    -0.219 A  
HETATM   28  C   UNL     1      -9.414   1.900  70.182  1.00  0.00    -0.138 A  
HETATM   29  C   UNL     1      -9.461   2.029  68.797  1.00  0.00    -0.192 A  
HETATM   30  C   UNL     1      -9.399   3.294  68.219  1.00  0.00    -0.242 A  
ENDBRANCH  24  25
BRANCH  24  31
HETATM   31  C   UNL     1      -8.127   5.350  72.495  1.00  0.00    -0.103 A  
HETATM   32  C   UNL     1      -6.163   4.794  74.430  1.00  0.00    -0.052 A  
HETATM   33  C   UNL     1      -7.432   4.233  74.545  1.00  0.00    -0.076 A  
HETATM   34  C   UNL     1      -6.845   5.924  72.408  1.00  0.00    -0.074 A  
HETATM   35  C   UNL     1      -8.406   4.505  73.583  1.00  0.00    -0.101 A  
HETATM   36  C   UNL     1      -5.869   5.640  73.364  1.00  0.00    -0.039 A  
ENDBRANCH  24  31
ENDBRANCH  21  24
ENDBRANCH  17  18
ENDBRANCH  16  17
ENDBRANCH  15  16
ENDBRANCH  13  15
ENDBRANCH  11  13
BRANCH  12  37
HETATM   37  C   UNL     1      -9.197  12.642  67.527  1.00  0.00    -0.190 A  
HETATM   38  C   UNL     1      -9.924  14.109  65.730  1.00  0.00    -0.331 A  
HETATM   39  O   UNL     1      -9.869  15.779  70.161  1.00  0.00    -0.166 OA 
HETATM   40  C   UNL     1      -9.408  13.688  68.448  1.00  0.00    -0.181 A  
HETATM   41  O   UNL     1     -10.522  17.094  68.532  1.00  0.00    -0.336 OA 
HETATM   42  C   UNL     1      -9.877  14.930  68.001  1.00  0.00    -0.216 A  
HETATM   43  C   UNL     1     -10.146  15.141  66.644  1.00  0.00    -0.271 A  
HETATM   44  N   UNL     1     -10.107  16.011  68.969  1.00  0.00    -0.225 N  
HETATM   45  C   UNL     1      -9.442  12.873  66.166  1.00  0.00    -0.161 A  
ENDBRANCH  12  37
ENDBRANCH   3   5
ENDBRANCH   2   3
TORSDOF 11
ENDMDL
MODEL      203
REMARK 921   NORMALIZED FREE ENERGY PREDICTED BY IDOCK:   -0.68 KCAL/MOL
REMARK 922        TOTAL FREE ENERGY PREDICTED BY IDOCK:   -2.98 KCAL/MOL
REMARK 923 INTER-LIGAND FREE ENERGY PREDICTED BY IDOCK:   -7.49 KCAL/MOL
REMARK 924 INTRA-LIGAND FREE ENERGY PREDICTED BY IDOCK:    4.50 KCAL/MOL
REMARK 927      BINDING AFFINITY PREDICTED BY RF-SCORE:    0.00 PKD
ROOT
HETATM    1  C   UNL     1      -9.908  18.126  68.068  1.00  0.00    -0.325 C  
HETATM    2  O   UNL     1     -10.760  17.794  66.968  1.00  0.00    -0.301 OA 
ENDROOT
BRANCH   2   3
HETATM    3  C   UNL     1     -10.159  17.009  66.038  1.00  0.00    -0.302 C  
HETATM    4  O   UNL     1     -10.497  16.935  64.864  1.00  0.00    -0.600 OA 
BRANCH   3   5
HETATM    5  C   UNL     1      -9.058  16.220  66.651  1.00  0.00    -0.278 C  
HETATM    6  C   UNL     1      -7.760  16.598  66.518  1.00  0.00    -0.302 C  
HETATM    7  N   UNL     1      -6.757  15.809  67.065  1.00  0.00    -0.281 NA 
HETATM    8  C   UNL     1      -7.238  17.819  65.804  1.00  0.00    -0.154 C  
HETATM    9  C   UNL     1      -6.947  14.543  67.575  1.00  0.00    -0.164 C  
HETATM   10  C   UNL     1      -5.694  13.749  67.864  1.00  0.00    -0.116 C  
HETATM   11  C   UNL     1      -8.204  14.081  67.759  1.00  0.00    -0.169 C  
HETATM   12  C   UNL     1      -9.427  14.936  67.410  1.00  0.00    -0.206 C  
BRANCH  11  13
HETATM   13  C   UNL     1      -8.404  12.673  68.159  1.00  0.00    -0.175 C  
HETATM   14  O   UNL     1      -9.181  12.323  69.037  1.00  0.00     0.174 OA 
BRANCH  13  15
HETATM   15  O   UNL     1      -7.599  11.841  67.447  1.00  0.00    -0.125 OA 
BRANCH  15  16
HETATM   16  C   UNL     1      -8.161  10.524  67.275  1.00  0.00    -0.119 C  
BRANCH  16  17
HETATM   17  C   UNL     1      -7.362   9.515  68.117  1.00  0.00    -0.078 C  
BRANCH  17  18
HETATM   18  N   UNL     1      -8.004   8.212  68.362  1.00  0.00    -0.121 NA 
HETATM   19  C   UNL     1      -6.446   7.317  70.180  1.00  0.00    -0.042 C  
HETATM   20  C   UNL     1      -7.038   7.162  68.755  1.00  0.00    -0.088 C  
HETATM   21  N   UNL     1      -7.468   7.390  71.256  1.00  0.00    -0.080 NA 
HETATM   22  C   UNL     1      -9.008   8.361  69.446  1.00  0.00    -0.153 C  
HETATM   23  C   UNL     1      -8.411   8.475  70.876  1.00  0.00    -0.146 C  
BRANCH  21  24
HETATM   24  C   UNL     1      -8.160   6.080  71.458  1.00  0.00    -0.114 C  
BRANCH  24  25
HETATM   25  C   UNL     1      -8.833   5.545  70.182  1.00  0.00    -0.147 A  
HETATM   26  C   UNL     1     -10.066   6.087  69.766  1.00  0.00    -0.246 A  
HETATM   27  C   UNL     1      -8.245   4.560  69.373  1.00  0.00    -0.071 A  
HETATM   28  C   UNL     1     -10.686   5.651  68.592  1.00  0.00    -0.249 A  
HETATM   29  C   UNL     1     -10.097   4.655  67.819  1.00  0.00    -0.097 A  
HETATM   30  C   UNL     1      -8.878   4.109  68.211  1.00  0.00    -0.133 A  
ENDBRANCH  24  25
BRANCH  24  31
HETATM   31  C   UNL     1      -7.250   5.038  72.126  1.00  0.00    -0.088 A  
HETATM   32  C   UNL     1      -5.361   3.273  73.234  1.00  0.00     0.000 A  
HETATM   33  C   UNL     1      -6.100   2.891  72.118  1.00  0.00    -0.013 A  
HETATM   34  C   UNL     1      -6.509   5.398  73.266  1.00  0.00    -0.066 A  
HETATM   35  C   UNL     1      -7.035   3.767  71.564  1.00  0.00    -0.031 A  
HETATM   36  C   UNL     1      -5.565   4.525  73.809  1.00  0.00    -0.009 A  
ENDBRANCH  24  31
ENDBRANCH  21  24
ENDBRANCH  17  18
ENDBRANCH  16  17
ENDBRANCH  15  16
ENDBRANCH  13  15
ENDBRANCH  11  13
BRANCH  12  37
HETATM   37  C   UNL     1     -10.485  14.095  66.677  1.00  0.00    -0.278 A  
HETATM   38  C   UNL     1     -12.768  13.288  66.452  1.00  0.00     0.153 A  
HETATM   39  O   UNL     1      -9.669  12.370  62.990  1.00  0.00    -0.159 OA 
HETATM   40  C   UNL     1     -10.172  13.514  65.431  1.00  0.00    -0.316 A  
HETATM   41  O   UNL     1     -11.730  11.645  62.798  1.00  0.00     0.224 OA 
HETATM   42  C   UNL     1     -11.159  12.832  64.709  1.00  0.00    -0.302 A  
HETATM   43  C   UNL     1     -12.461  12.726  65.211  1.00  0.00    -0.528 A  
HETATM   44  N   UNL     1     -10.828  12.241  63.404  1.00  0.00    -0.445 N  
HETATM   45  C   UNL     1     -11.785  13.958  67.184  1.00  0.00    -0.419 A  
ENDBRANCH  12  37
ENDBRANCH   3   5
ENDBRANCH   2   3
TORSDOF 11
ENDMDL
MODEL      204
REMARK 921   NORMALIZED FREE ENERGY PREDICTED BY IDOCK:   -0.64 KCAL/MOL
REMARK 922        TOTAL FREE ENERGY PREDICTED BY IDOCK:   -2.91 KCAL/MOL
REMARK 923 INTER-LIGAND FREE ENERGY PREDICTED BY IDOCK:   -6.07 KCAL/MOL
REMARK 924 INTRA-LIGAND FREE ENERGY PREDICTED BY IDOCK:    3.16 KCAL/MOL
REMARK 927      BINDING AFFINITY PREDICTED BY RF-SCORE:    0.00 PKD
ROOT
HETATM    1  C   UNL     1     -11.500  17.257  66.942  1.00  0.00     1.045 C  
HETATM    2  O   UNL     1     -11.019  17.895  68.129  1.00  0.00    -0.242 OA 
ENDROOT
BRANCH   2   3
HETATM    3  C   UNL     1     -10.653  17.020  69.100  1.00  0.00    -0.303 C  
HETATM    4  O   UNL     1     -10.133  17.334  70.162  1.00  0.00     0.467 OA 
BRANCH   3   5
HETATM    5  C   UNL     1     -10.932  15.622  68.678  1.00  0.00    -0.294 C  
HETATM    6  C   UNL     1     -11.825  14.847  69.349  1.00  0.00    -0.324 C  
HETATM    7  N   UNL     1     -12.023  13.532  68.953  1.00  0.00    -0.349 NA 
HETATM    8  C   UNL     1     -12.661  15.247  70.538  1.00  0.00    -0.450 C  
HETATM    9  C   UNL     1     -11.237  12.860  68.042  1.00  0.00    -0.268 C  
HETATM   10  C   UNL     1     -11.446  11.366  67.958  1.00  0.00    -0.377 C  
HETATM   11  C   UNL     1     -10.328  13.547  67.314  1.00  0.00    -0.241 C  
HETATM   12  C   UNL     1     -10.151  15.060  67.481  1.00  0.00    -0.228 C  
BRANCH  11  13
HETATM   13  C   UNL     1      -9.383  12.805  66.453  1.00  0.00    -0.194 C  
HETATM   14  O   UNL     1      -9.623  12.496  65.295  1.00  0.00    -0.114 OA 
BRANCH  13  15
HETATM   15  O   UNL     1      -8.244  12.497  67.127  1.00  0.00    -0.180 OA 
BRANCH  15  16
HETATM   16  C   UNL     1      -8.475  11.643  68.266  1.00  0.00    -0.160 C  
BRANCH  16  17
HETATM   17  C   UNL     1      -8.326  10.174  67.839  1.00  0.00    -0.117 C  
BRANCH  17  18
HETATM   18  N   UNL     1      -9.021   9.176  68.671  1.00  0.00    -0.136 NA 
HETATM   19  C   UNL     1      -7.765   7.075  67.934  1.00  0.00    -0.113 C  
HETATM   20  C   UNL     1      -9.107   7.848  68.023  1.00  0.00    -0.132 C  
HETATM   21  N   UNL     1      -7.094   6.874  69.244  1.00  0.00    -0.081 NA 
HETATM   22  C   UNL     1      -8.295   9.028  69.959  1.00  0.00    -0.142 C  
HETATM   23  C   UNL     1      -6.973   8.217  69.871  1.00  0.00    -0.048 C  
BRANCH  21  24
HETATM   24  C   UNL     1      -7.837   5.907  70.109  1.00  0.00    -0.100 C  
BRANCH  24  25
HETATM   25  C   UNL     1      -7.759   4.455  69.605  1.00  0.00    -0.054 A  
HETATM   26  C   UNL     1      -6.558   3.976  69.045  1.00  0.00    -0.041 A  
HETATM   27  C   UNL     1      -8.831   3.556  69.721  1.00  0.00    -0.151 A  
HETATM   28  C   UNL     1      -6.441   2.653  68.612  1.00  0.00    -0.029 A  
HETATM   29  C   UNL     1      -7.525   1.786  68.715  1.00  0.00    -0.043 A  
HETATM   30  C   UNL     1      -8.720   2.239  69.267  1.00  0.00    -0.130 A  
ENDBRANCH  24  25
BRANCH  24  31
HETATM   31  C   UNL     1      -7.454   6.038  71.591  1.00  0.00    -0.094 A  
HETATM   32  C   UNL     1      -6.754   6.564  74.264  1.00  0.00    -0.081 A  
HETATM   33  C   UNL     1      -5.787   6.123  73.365  1.00  0.00    -0.053 A  
HETATM   34  C   UNL     1      -8.421   6.464  72.520  1.00  0.00    -0.123 A  
HETATM   35  C   UNL     1      -6.132   5.866  72.037  1.00  0.00    -0.040 A  
HETATM   36  C   UNL     1      -8.070   6.734  73.843  1.00  0.00    -0.127 A  
ENDBRANCH  24  31
ENDBRANCH  21  24
ENDBRANCH  17  18
ENDBRANCH  16  17
ENDBRANCH  15  16
ENDBRANCH  13  15
ENDBRANCH  11  13
BRANCH  12  37
HETATM   37  C   UNL     1      -8.659  15.430  67.517  1.00  0.00    -0.187 A  
HETATM   38  C   UNL     1      -6.365  14.922  68.142  1.00  0.00    -0.142 A  
HETATM   39  O   UNL     1      -7.198  18.647  65.338  1.00  0.00    -0.520 OA 
HETATM   40  C   UNL     1      -8.197  16.535  66.773  1.00  0.00    -0.279 A  
HETATM   41  O   UNL     1      -5.132  18.181  65.909  1.00  0.00    -0.149 OA 
HETATM   42  C   UNL     1      -6.826  16.818  66.719  1.00  0.00    -0.230 A  
HETATM   43  C   UNL     1      -5.906  16.008  67.394  1.00  0.00    -0.140 A  
HETATM   44  N   UNL     1      -6.352  17.964  65.930  1.00  0.00    -0.252 N  
HETATM   45  C   UNL     1      -7.731  14.642  68.213  1.00  0.00    -0.123 A  
ENDBRANCH  12  37
ENDBRANCH   3   5
ENDBRANCH   2   3
TORSDOF 11
ENDMDL
MODEL      205
REMARK 921   NORMALIZED FREE ENERGY PREDICTED BY IDOCK:   -0.64 KCAL/MOL
REMARK 922        TOTAL FREE ENERGY PREDICTED BY IDOCK:   -2.91 KCAL/MOL
REMARK 923 INTER-LIGAND FREE ENERGY PREDICTED BY IDOCK:   -5.44 KCAL/MOL
REMARK 924 INTRA-LIGAND FREE ENERGY PREDICTED BY IDOCK:    2.53 KCAL/MOL
REMARK 927      BINDING AFFINITY PREDICTED BY RF-SCORE:    0.00 PKD
ROOT
HETATM    1  C   UNL     1     -10.764  17.540  68.581  1.00  0.00    -0.201 C  
HETATM    2  O   UNL     1     -10.199  16.234  68.441  1.00  0.00    -0.233 OA 
ENDROOT
BRANCH   2   3
HETATM    3  C   UNL     1      -9.834  15.939  67.167  1.00  0.00    -0.231 C  
HETATM    4  O   UNL     1      -9.749  16.756  66.259  1.00  0.00    -0.270 OA 
BRANCH   3   5
HETATM    5  C   UNL     1      -9.592  14.480  67.015  1.00  0.00    -0.250 C  
HETATM    6  C   UNL     1     -10.622  13.593  66.983  1.00  0.00    -0.274 C  
HETATM    7  N   UNL     1     -10.353  12.236  66.886  1.00  0.00    -0.216 NA 
HETATM    8  C   UNL     1     -12.094  13.908  67.057  1.00  0.00    -0.451 C  
HETATM    9  C   UNL     1      -9.103  11.672  67.020  1.00  0.00    -0.179 C  
HETATM   10  C   UNL     1      -9.063  10.168  67.160  1.00  0.00    -0.149 C  
HETATM   11  C   UNL     1      -8.012  12.471  67.046  1.00  0.00    -0.086 C  
HETATM   12  C   UNL     1      -8.137  13.995  66.933  1.00  0.00     0.095 C  
BRANCH  11  13
HETATM   13  C   UNL     1      -6.691  11.881  67.344  1.00  0.00    -0.126 C  
HETATM   14  O   UNL     1      -5.650  12.257  66.825  1.00  0.00    -0.319 OA 
BRANCH  13  15
HETATM   15  O   UNL     1      -6.799  10.862  68.236  1.00  0.00    -0.065 OA 
BRANCH  15  16
HETATM   16  C   UNL     1      -5.541  10.516  68.852  1.00  0.00    -0.041 C  
BRANCH  16  17
HETATM   17  C   UNL     1      -5.798   9.583  70.047  1.00  0.00    -0.036 C  
BRANCH  17  18
HETATM   18  N   UNL     1      -7.006   8.744  69.973  1.00  0.00    -0.042 NA 
HETATM   19  C   UNL     1      -5.913   6.435  70.071  1.00  0.00    -0.022 C  
HETATM   20  C   UNL     1      -6.770   7.457  69.280  1.00  0.00    -0.041 C  
HETATM   21  N   UNL     1      -6.449   6.108  71.417  1.00  0.00    -0.048 NA 
HETATM   22  C   UNL     1      -7.483   8.457  71.351  1.00  0.00    -0.094 C  
HETATM   23  C   UNL     1      -6.645   7.402  72.124  1.00  0.00    -0.051 C  
BRANCH  21  24
HETATM   24  C   UNL     1      -7.710   5.308  71.336  1.00  0.00    -0.106 C  
BRANCH  24  25
HETATM   25  C   UNL     1      -8.188   5.070  69.893  1.00  0.00    -0.074 A  
HETATM   26  C   UNL     1      -7.733   3.939  69.186  1.00  0.00    -0.053 A  
HETATM   27  C   UNL     1      -9.108   5.916  69.253  1.00  0.00    -0.128 A  
HETATM   28  C   UNL     1      -8.176   3.673  67.888  1.00  0.00    -0.089 A  
HETATM   29  C   UNL     1      -9.070   4.538  67.265  1.00  0.00    -0.138 A  
HETATM   30  C   UNL     1      -9.534   5.660  67.946  1.00  0.00    -0.120 A  
ENDBRANCH  24  25
BRANCH  24  31
HETATM   31  C   UNL     1      -7.628   4.008  72.152  1.00  0.00    -0.070 A  
HETATM   32  C   UNL     1      -7.766   1.649  73.677  1.00  0.00    -0.040 A  
HETATM   33  C   UNL     1      -7.305   2.827  74.257  1.00  0.00    -0.042 A  
HETATM   34  C   UNL     1      -8.071   2.803  71.577  1.00  0.00    -0.058 A  
HETATM   35  C   UNL     1      -7.241   4.000  73.503  1.00  0.00    -0.069 A  
HETATM   36  C   UNL     1      -8.147   1.635  72.337  1.00  0.00    -0.045 A  
ENDBRANCH  24  31
ENDBRANCH  21  24
ENDBRANCH  17  18
ENDBRANCH  16  17
ENDBRANCH  15  16
ENDBRANCH  13  15
ENDBRANCH  11  13
BRANCH  12  37
HETATM   37  C   UNL     1      -7.220  14.691  67.952  1.00  0.00    -0.171 A  
HETATM   38  C   UNL     1      -6.035  16.665  68.734  1.00  0.00    -0.141 A  
HETATM   39  O   UNL     1      -6.203  12.845  71.528  1.00  0.00     0.258 OA 
HETATM   40  C   UNL     1      -6.886  14.032  69.152  1.00  0.00    -0.112 A  
HETATM   41  O   UNL     1      -5.135  14.630  72.223  1.00  0.00    -0.181 OA 
HETATM   42  C   UNL     1      -6.135  14.697  70.130  1.00  0.00    -0.158 A  
HETATM   43  C   UNL     1      -5.716  16.017  69.929  1.00  0.00    -0.161 A  
HETATM   44  N   UNL     1      -5.802  14.007  71.384  1.00  0.00    -0.231 N  
HETATM   45  C   UNL     1      -6.771  16.004  67.748  1.00  0.00    -0.175 A  
ENDBRANCH  12  37
ENDBRANCH   3   5
ENDBRANCH   2   3
TORSDOF 11
ENDMDL
MODEL      206
REMARK 921   NORMALIZED FREE ENERGY PREDICTED BY IDOCK:   -0.49 KCAL/MOL
REMARK 922        TOTAL FREE ENERGY PREDICTED BY IDOCK:   -2.66 KCAL/MOL
REMARK 923 INTER-LIGAND FREE ENERGY PREDICTED BY IDOCK:   -6.49 KCAL/MOL
REMARK 924 INTRA-LIGAND FREE ENERGY PREDICTED BY IDOCK:    3.83 KCAL/MOL
REMARK 927      BINDING AFFINITY PREDICTED BY RF-SCORE:    0.00 PKD
ROOT
HETATM    1  C   UNL     1     -10.764  17.540  68.581  1.00  0.00    -0.201 C  
HETATM    2  O   UNL     1     -10.199  16.234  68.441  1.00  0.00    -0.233 OA 
ENDROOT
BRANCH   2   3
HETATM    3  C   UNL     1      -9.834  15.939  67.167  1.00  0.00    -0.231 C  
HETATM    4  O   UNL     1      -9.749  16.756  66.259  1.00  0.00    -0.270 OA 
BRANCH   3   5
HETATM    5  C   UNL     1      -9.592  14.480  67.015  1.00  0.00    -0.250 C  
HETATM    6  C   UNL     1     -10.622  13.593  66.983  1.00  0.00    -0.274 C  
HETATM    7  N   UNL     1     -10.353  12.236  66.886  1.00  0.00    -0.216 NA 
HETATM    8  C   UNL     1     -12.094  13.908  67.057  1.00  0.00    -0.451 C  
HETATM    9  C   UNL     1      -9.103  11.672  67.020  1.00  0.00    -0.179 C  
HETATM   10  C   UNL     1      -9.063  10.168  67.160  1.00  0.00    -0.149 C  
HETATM   11  C   UNL     1      -8.012  12.471  67.046  1.00  0.00    -0.086 C  
HETATM   12  C   UNL     1      -8.137  13.995  66.933  1.00  0.00     0.095 C  
BRANCH  11  13
HETATM   13  C   UNL     1      -6.691  11.881  67.344  1.00  0.00    -0.126 C  
HETATM   14  O   UNL     1      -5.650  12.257  66.825  1.00  0.00    -0.319 OA 
BRANCH  13  15
HETATM   15  O   UNL     1      -6.799  10.862  68.236  1.00  0.00    -0.065 OA 
BRANCH  15  16
HETATM   16  C   UNL     1      -5.541  10.516  68.852  1.00  0.00    -0.041 C  
BRANCH  16  17
HETATM   17  C   UNL     1      -5.798   9.583  70.047  1.00  0.00    -0.036 C  
BRANCH  17  18
HETATM   18  N   UNL     1      -7.006   8.744  69.973  1.00  0.00    -0.042 NA 
HETATM   19  C   UNL     1      -5.913   6.435  70.071  1.00  0.00    -0.022 C  
HETATM   20  C   UNL     1      -6.770   7.457  69.280  1.00  0.00    -0.041 C  
HETATM   21  N   UNL     1      -6.449   6.108  71.417  1.00  0.00    -0.048 NA 
HETATM   22  C   UNL     1      -7.483   8.457  71.351  1.00  0.00    -0.094 C  
HETATM   23  C   UNL     1      -6.645   7.402  72.124  1.00  0.00    -0.051 C  
BRANCH  21  24
HETATM   24  C   UNL     1      -7.710   5.308  71.336  1.00  0.00    -0.106 C  
BRANCH  24  25
HETATM   25  C   UNL     1      -8.974   6.132  71.636  1.00  0.00    -0.142 A  
HETATM   26  C   UNL     1      -9.637   6.797  70.585  1.00  0.00    -0.174 A  
HETATM   27  C   UNL     1      -9.534   6.216  72.920  1.00  0.00    -0.150 A  
HETATM   28  C   UNL     1     -10.808   7.523  70.815  1.00  0.00    -0.253 A  
HETATM   29  C   UNL     1     -11.333   7.612  72.101  1.00  0.00    -0.341 A  
HETATM   30  C   UNL     1     -10.695   6.961  73.153  1.00  0.00    -0.338 A  
ENDBRANCH  24  25
BRANCH  24  31
HETATM   31  C   UNL     1      -7.817   4.521  70.021  1.00  0.00    -0.057 A  
HETATM   32  C   UNL     1      -8.172   2.888  67.758  1.00  0.00    -0.087 A  
HETATM   33  C   UNL     1      -6.961   2.874  68.444  1.00  0.00    -0.048 A  
HETATM   34  C   UNL     1      -9.026   4.538  69.302  1.00  0.00    -0.142 A  
HETATM   35  C   UNL     1      -6.785   3.680  69.570  1.00  0.00    -0.037 A  
HETATM   36  C   UNL     1      -9.204   3.720  68.185  1.00  0.00    -0.214 A  
ENDBRANCH  24  31
ENDBRANCH  21  24
ENDBRANCH  17  18
ENDBRANCH  16  17
ENDBRANCH  15  16
ENDBRANCH  13  15
ENDBRANCH  11  13
BRANCH  12  37
HETATM   37  C   UNL     1      -7.220  14.691  67.952  1.00  0.00    -0.171 A  
HETATM   38  C   UNL     1      -6.035  16.665  68.734  1.00  0.00    -0.141 A  
HETATM   39  O   UNL     1      -6.203  12.845  71.528  1.00  0.00     0.258 OA 
HETATM   40  C   UNL     1      -6.886  14.032  69.152  1.00  0.00    -0.112 A  
HETATM   41  O   UNL     1      -5.135  14.630  72.223  1.00  0.00    -0.181 OA 
HETATM   42  C   UNL     1      -6.135  14.697  70.130  1.00  0.00    -0.158 A  
HETATM   43  C   UNL     1      -5.716  16.017  69.929  1.00  0.00    -0.161 A  
HETATM   44  N   UNL     1      -5.802  14.007  71.384  1.00  0.00    -0.231 N  
HETATM   45  C   UNL     1      -6.771  16.004  67.748  1.00  0.00    -0.175 A  
ENDBRANCH  12  37
ENDBRANCH   3   5
ENDBRANCH   2   3
TORSDOF 11
ENDMDL
MODEL      207
REMARK 921   NORMALIZED FREE ENERGY PREDICTED BY IDOCK:   -0.37 KCAL/MOL
REMARK 922        TOTAL FREE ENERGY PREDICTED BY IDOCK:   -2.47 KCAL/MOL
REMARK 923 INTER-LIGAND FREE ENERGY PREDICTED BY IDOCK:   -5.68 KCAL/MOL
REMARK 924 INTRA-LIGAND FREE ENERGY PREDICTED BY IDOCK:    3.21 KCAL/MOL
REMARK 927      BINDING AFFINITY PREDICTED BY RF-SCORE:    0.00 PKD
ROOT
HETATM    1  C   UNL     1     -11.047   7.003  72.640  1.00  0.00    -0.281 C  
HETATM    2  O   UNL     1     -10.456   7.486  71.430  1.00  0.00    -0.209 OA 
ENDROOT
BRANCH   2   3
HETATM    3  C   UNL     1      -9.793   8.660  71.586  1.00  0.00    -0.281 C  
HETATM    4  O   UNL     1      -9.258   9.027  72.624  1.00  0.00    -0.200 OA 
BRANCH   3   5
HETATM    5  C   UNL     1      -9.842   9.460  70.334  1.00  0.00    -0.313 C  
HETATM    6  C   UNL     1     -11.026   9.819  69.771  1.00  0.00    -0.256 C  
HETATM    7  N   UNL     1     -11.030  10.526  68.578  1.00  0.00    -0.234 NA 
HETATM    8  C   UNL     1     -12.407   9.521  70.295  1.00  0.00     0.172 C  
HETATM    9  C   UNL     1      -9.921  10.735  67.786  1.00  0.00    -0.171 C  
HETATM   10  C   UNL     1     -10.186  11.281  66.402  1.00  0.00    -0.273 C  
HETATM   11  C   UNL     1      -8.695  10.424  68.263  1.00  0.00    -0.128 C  
HETATM   12  C   UNL     1      -8.510   9.839  69.668  1.00  0.00    -0.194 C  
BRANCH  11  13
HETATM   13  C   UNL     1      -7.528  10.503  67.361  1.00  0.00    -0.094 C  
HETATM   14  O   UNL     1      -6.953   9.523  66.910  1.00  0.00    -0.080 OA 
BRANCH  13  15
HETATM   15  O   UNL     1      -7.173  11.795  67.130  1.00  0.00    -0.132 OA 
BRANCH  15  16
HETATM   16  C   UNL     1      -6.522  12.412  68.259  1.00  0.00    -0.061 C  
BRANCH  16  17
HETATM   17  C   UNL     1      -6.571  13.940  68.102  1.00  0.00    -0.127 C  
BRANCH  17  18
HETATM   18  N   UNL     1      -7.895  14.571  68.243  1.00  0.00    -0.123 NA 
HETATM   19  C   UNL     1      -7.535  16.625  66.764  1.00  0.00    -0.254 C  
HETATM   20  C   UNL     1      -7.837  16.048  68.172  1.00  0.00    -0.141 C  
HETATM   21  N   UNL     1      -8.481  16.178  65.710  1.00  0.00    -0.072 NA 
HETATM   22  C   UNL     1      -8.784  14.080  67.158  1.00  0.00    -0.221 C  
HETATM   23  C   UNL     1      -8.503  14.692  65.758  1.00  0.00     1.706 C  
BRANCH  21  24
HETATM   24  C   UNL     1      -9.841  16.773  65.893  1.00  0.00    -0.249 C  
BRANCH  24  25
HETATM   25  C   UNL     1     -10.963  15.722  65.942  1.00  0.00    -0.191 A  
HETATM   26  C   UNL     1     -11.536  15.258  64.741  1.00  0.00    -0.322 A  
HETATM   27  C   UNL     1     -11.418  15.158  67.145  1.00  0.00    -0.254 A  
HETATM   28  C   UNL     1     -12.530  14.276  64.747  1.00  0.00    -0.390 A  
HETATM   29  C   UNL     1     -12.983  13.749  65.953  1.00  0.00    -0.240 A  
HETATM   30  C   UNL     1     -12.428  14.191  67.151  1.00  0.00    -0.038 A  
ENDBRANCH  24  25
BRANCH  24  31
HETATM   31  C   UNL     1      -9.895  17.749  67.078  1.00  0.00    -0.309 A  
HETATM   32  C   UNL     1      -9.716  19.472  69.295  1.00  0.00    -0.322 A  
HETATM   33  C   UNL     1     -10.358  18.243  69.417  1.00  0.00     0.261 A  
HETATM   34  C   UNL     1      -9.269  19.005  66.967  1.00  0.00    -0.330 A  
HETATM   35  C   UNL     1     -10.443  17.385  68.319  1.00  0.00    -0.385 A  
HETATM   36  C   UNL     1      -9.173  19.854  68.071  1.00  0.00    -0.405 A  
ENDBRANCH  24  31
ENDBRANCH  21  24
ENDBRANCH  17  18
ENDBRANCH  16  17
ENDBRANCH  15  16
ENDBRANCH  13  15
ENDBRANCH  11  13
BRANCH  12  37
HETATM   37  C   UNL     1      -7.505   8.677  69.644  1.00  0.00    -0.068 A  
HETATM   38  C   UNL     1      -5.403   7.678  70.350  1.00  0.00    -0.023 A  
HETATM   39  O   UNL     1      -8.490   5.030  67.923  1.00  0.00    -0.104 OA 
HETATM   40  C   UNL     1      -7.868   7.455  69.042  1.00  0.00    -0.120 A  
HETATM   41  O   UNL     1      -6.591   4.139  68.563  1.00  0.00    -0.043 OA 
HETATM   42  C   UNL     1      -6.997   6.359  69.105  1.00  0.00    -0.068 A  
HETATM   43  C   UNL     1      -5.769   6.463  69.766  1.00  0.00    -0.014 A  
HETATM   44  N   UNL     1      -7.389   5.084  68.486  1.00  0.00    -0.062 N  
HETATM   45  C   UNL     1      -6.258   8.779  70.280  1.00  0.00    -0.038 A  
ENDBRANCH  12  37
ENDBRANCH   3   5
ENDBRANCH   2   3
TORSDOF 11
ENDMDL
MODEL      208
REMARK 921   NORMALIZED FREE ENERGY PREDICTED BY IDOCK:   -0.36 KCAL/MOL
REMARK 922        TOTAL FREE ENERGY PREDICTED BY IDOCK:   -2.46 KCAL/MOL
REMARK 923 INTER-LIGAND FREE ENERGY PREDICTED BY IDOCK:   -3.80 KCAL/MOL
REMARK 924 INTRA-LIGAND FREE ENERGY PREDICTED BY IDOCK:    1.34 KCAL/MOL
REMARK 927      BINDING AFFINITY PREDICTED BY RF-SCORE:    0.00 PKD
ROOT
HETATM    1  C   UNL     1     -12.795  15.913  69.454  1.00  0.00     0.887 C  
HETATM    2  O   UNL     1     -11.779  16.704  68.832  1.00  0.00    -0.082 OA 
ENDROOT
BRANCH   2   3
HETATM    3  C   UNL     1     -10.961  15.988  68.020  1.00  0.00    -0.341 C  
HETATM    4  O   UNL     1     -11.241  15.637  66.881  1.00  0.00    -0.245 OA 
BRANCH   3   5
HETATM    5  C   UNL     1      -9.692  15.652  68.718  1.00  0.00    -0.212 C  
HETATM    6  C   UNL     1      -9.692  14.947  69.881  1.00  0.00     0.189 C  
HETATM    7  N   UNL     1      -8.491  14.693  70.527  1.00  0.00     1.469 NA 
HETATM    8  C   UNL     1     -10.890  14.388  70.604  1.00  0.00     0.461 C  
HETATM    9  C   UNL     1      -7.284  15.271  70.195  1.00  0.00     0.120 C  
HETATM   10  C   UNL     1      -6.161  15.080  71.187  1.00  0.00     0.254 C  
HETATM   11  C   UNL     1      -7.180  15.981  69.049  1.00  0.00    -0.182 C  
HETATM   12  C   UNL     1      -8.377  16.159  68.108  1.00  0.00    -0.166 C  
BRANCH  11  13
HETATM   13  C   UNL     1      -5.934  16.726  68.772  1.00  0.00    -0.147 C  
HETATM   14  O   UNL     1      -5.688  17.830  69.237  1.00  0.00    -0.193 OA 
BRANCH  13  15
HETATM   15  O   UNL     1      -5.128  16.036  67.923  1.00  0.00    -0.111 OA 
BRANCH  15  16
HETATM   16  C   UNL     1      -5.818  14.982  67.220  1.00  0.00     0.424 C  
BRANCH  16  17
HETATM   17  C   UNL     1      -5.420  13.624  67.821  1.00  0.00    -0.056 C  
BRANCH  17  18
HETATM   18  N   UNL     1      -5.891  12.427  67.104  1.00  0.00    -0.278 NA 
HETATM   19  C   UNL     1      -6.930  11.152  69.061  1.00  0.00    -0.101 C  
HETATM   20  C   UNL     1      -5.859  11.207  67.941  1.00  0.00    -0.042 C  
HETATM   21  N   UNL     1      -8.325  11.306  68.574  1.00  0.00    -0.150 NA 
HETATM   22  C   UNL     1      -7.288  12.652  66.649  1.00  0.00     0.590 C  
HETATM   23  C   UNL     1      -8.360  12.555  67.769  1.00  0.00    -0.170 C  
BRANCH  21  24
HETATM   24  C   UNL     1      -8.777  10.113  67.793  1.00  0.00    -0.121 C  
BRANCH  24  25
HETATM   25  C   UNL     1      -9.496   9.060  68.654  1.00  0.00    -0.149 A  
HETATM   26  C   UNL     1      -9.572   9.235  70.050  1.00  0.00    -0.235 A  
HETATM   27  C   UNL     1     -10.134   7.938  68.099  1.00  0.00    -0.228 A  
HETATM   28  C   UNL     1     -10.250   8.318  70.857  1.00  0.00    -0.224 A  
HETATM   29  C   UNL     1     -10.854   7.200  70.288  1.00  0.00    -0.271 A  
HETATM   30  C   UNL     1     -10.793   7.010  68.910  1.00  0.00    -0.203 A  
ENDBRANCH  24  25
BRANCH  24  31
HETATM   31  C   UNL     1      -9.582  10.505  66.545  1.00  0.00    -0.216 A  
HETATM   32  C   UNL     1     -10.858  11.429  64.214  1.00  0.00    -0.416 A  
HETATM   33  C   UNL     1     -11.374  11.753  65.466  1.00  0.00    -0.283 A  
HETATM   34  C   UNL     1      -9.088  10.170  65.271  1.00  0.00    -0.234 A  
HETATM   35  C   UNL     1     -10.739  11.299  66.624  1.00  0.00    -0.321 A  
HETATM   36  C   UNL     1      -9.717  10.637  64.116  1.00  0.00    -0.378 A  
ENDBRANCH  24  31
ENDBRANCH  21  24
ENDBRANCH  17  18
ENDBRANCH  16  17
ENDBRANCH  15  16
ENDBRANCH  13  15
ENDBRANCH  11  13
BRANCH  12  37
HETATM   37  C   UNL     1      -8.470  17.614  67.619  1.00  0.00    -0.224 A  
HETATM   38  C   UNL     1      -9.180  19.916  67.942  1.00  0.00    -0.423 A  
HETATM   39  O   UNL     1      -6.349  18.889  64.286  1.00  0.00    -0.392 OA 
HETATM   40  C   UNL     1      -7.744  18.012  66.478  1.00  0.00    -0.283 A  
HETATM   41  O   UNL     1      -6.997  20.963  64.585  1.00  0.00    -0.101 OA 
HETATM   42  C   UNL     1      -7.742  19.356  66.084  1.00  0.00    -0.303 A  
HETATM   43  C   UNL     1      -8.450  20.313  66.819  1.00  0.00    -0.326 A  
HETATM   44  N   UNL     1      -6.973  19.765  64.900  1.00  0.00    -0.039 N  
HETATM   45  C   UNL     1      -9.199  18.576  68.332  1.00  0.00    -0.347 A  
ENDBRANCH  12  37
ENDBRANCH   3   5
ENDBRANCH   2   3
TORSDOF 11
ENDMDL
MODEL      209
REMARK 921   NORMALIZED FREE ENERGY PREDICTED BY IDOCK:   -0.33 KCAL/MOL
REMARK 922        TOTAL FREE ENERGY PREDICTED BY IDOCK:   -2.41 KCAL/MOL
REMARK 923 INTER-LIGAND FREE ENERGY PREDICTED BY IDOCK:   -4.21 KCAL/MOL
REMARK 924 INTRA-LIGAND FREE ENERGY PREDICTED BY IDOCK:    1.80 KCAL/MOL
REMARK 927      BINDING AFFINITY PREDICTED BY RF-SCORE:    0.00 PKD
ROOT
HETATM    1  C   UNL     1     -11.212  17.283  66.909  1.00  0.00     0.512 C  
HETATM    2  O   UNL     1     -11.011  17.839  68.211  1.00  0.00    -0.234 OA 
ENDROOT
BRANCH   2   3
HETATM    3  C   UNL     1     -10.869  16.901  69.182  1.00  0.00    -0.237 C  
HETATM    4  O   UNL     1     -10.559  17.138  70.342  1.00  0.00     0.234 OA 
BRANCH   3   5
HETATM    5  C   UNL     1     -11.099  15.539  68.632  1.00  0.00    -0.297 C  
HETATM    6  C   UNL     1     -12.109  14.754  69.090  1.00  0.00    -0.243 C  
HETATM    7  N   UNL     1     -12.263  13.471  68.584  1.00  0.00    -0.254 NA 
HETATM    8  C   UNL     1     -13.130  15.109  70.140  1.00  0.00    -0.033 C  
HETATM    9  C   UNL     1     -11.345  12.829  67.781  1.00  0.00    -0.294 C  
HETATM   10  C   UNL     1     -11.566  11.350  67.569  1.00  0.00    -0.298 C  
HETATM   11  C   UNL     1     -10.310  13.529  67.264  1.00  0.00    -0.241 C  
HETATM   12  C   UNL     1     -10.133  15.024  67.553  1.00  0.00    -0.228 C  
BRANCH  11  13
HETATM   13  C   UNL     1      -9.246  12.810  66.533  1.00  0.00    -0.189 C  
HETATM   14  O   UNL     1      -9.303  12.548  65.340  1.00  0.00     0.019 OA 
BRANCH  13  15
HETATM   15  O   UNL     1      -8.227  12.465  67.364  1.00  0.00    -0.162 OA 
BRANCH  15  16
HETATM   16  C   UNL     1      -8.671  11.741  68.530  1.00  0.00    -0.118 C  
BRANCH  16  17
HETATM   17  C   UNL     1      -8.330  10.251  68.366  1.00  0.00    -0.119 C  
BRANCH  17  18
HETATM   18  N   UNL     1      -8.983   9.322  69.304  1.00  0.00    -0.142 NA 
HETATM   19  C   UNL     1      -8.906   7.189  67.896  1.00  0.00    -0.124 C  
HETATM   20  C   UNL     1      -9.760   8.265  68.617  1.00  0.00    -0.156 C  
HETATM   21  N   UNL     1      -7.926   6.504  68.777  1.00  0.00    -0.110 NA 
HETATM   22  C   UNL     1      -7.946   8.674  70.147  1.00  0.00    -0.103 C  
HETATM   23  C   UNL     1      -7.122   7.569  69.431  1.00  0.00    -0.073 C  
BRANCH  21  24
HETATM   24  C   UNL     1      -8.599   5.608  69.768  1.00  0.00    -0.121 C  
BRANCH  24  25
HETATM   25  C   UNL     1      -8.717   4.151  69.290  1.00  0.00    -0.124 A  
HETATM   26  C   UNL     1      -7.853   3.677  68.282  1.00  0.00    -0.067 A  
HETATM   27  C   UNL     1      -9.628   3.242  69.852  1.00  0.00    -0.172 A  
HETATM   28  C   UNL     1      -7.908   2.349  67.851  1.00  0.00    -0.059 A  
HETATM   29  C   UNL     1      -8.836   1.472  68.406  1.00  0.00    -0.128 A  
HETATM   30  C   UNL     1      -9.696   1.919  69.404  1.00  0.00     0.054 A  
ENDBRANCH  24  25
BRANCH  24  31
HETATM   31  C   UNL     1      -7.978   5.721  71.169  1.00  0.00    -0.112 A  
HETATM   32  C   UNL     1      -6.846   5.638  73.743  1.00  0.00    -0.081 A  
HETATM   33  C   UNL     1      -8.188   5.971  73.583  1.00  0.00    -0.112 A  
HETATM   34  C   UNL     1      -6.618   5.407  71.349  1.00  0.00    -0.040 A  
HETATM   35  C   UNL     1      -8.752   6.008  72.306  1.00  0.00    -0.131 A  
HETATM   36  C   UNL     1      -6.060   5.357  72.627  1.00  0.00    -0.028 A  
ENDBRANCH  24  31
ENDBRANCH  21  24
ENDBRANCH  17  18
ENDBRANCH  16  17
ENDBRANCH  15  16
ENDBRANCH  13  15
ENDBRANCH  11  13
BRANCH  12  37
HETATM   37  C   UNL     1      -8.663  15.345  67.868  1.00  0.00    -0.160 A  
HETATM   38  C   UNL     1      -6.556  16.410  67.287  1.00  0.00    -0.222 A  
HETATM   39  O   UNL     1      -7.031  14.478  71.585  1.00  0.00     1.041 OA 
HETATM   40  C   UNL     1      -8.138  15.029  69.137  1.00  0.00    -0.192 A  
HETATM   41  O   UNL     1      -5.134  15.439  71.050  1.00  0.00    -0.140 OA 
HETATM   42  C   UNL     1      -6.831  15.409  69.467  1.00  0.00    -0.181 A  
HETATM   43  C   UNL     1      -6.040  16.108  68.549  1.00  0.00    -0.112 A  
HETATM   44  N   UNL     1      -6.295  15.086  70.798  1.00  0.00     0.055 N  
HETATM   45  C   UNL     1      -7.853  16.022  66.944  1.00  0.00    -0.284 A  
ENDBRANCH  12  37
ENDBRANCH   3   5
ENDBRANCH   2   3
TORSDOF 11
ENDMDL
MODEL      210
REMARK 921   NORMALIZED FREE ENERGY PREDICTED BY IDOCK:   -0.32 KCAL/MOL
REMARK 922        TOTAL FREE ENERGY PREDICTED BY IDOCK:   -2.38 KCAL/MOL
REMARK 923 INTER-LIGAND FREE ENERGY PREDICTED BY IDOCK:   -5.81 KCAL/MOL
REMARK 924 INTRA-LIGAND FREE ENERGY PREDICTED BY IDOCK:    3.42 KCAL/MOL
REMARK 927      BINDING AFFINITY PREDICTED BY RF-SCORE:    0.00 PKD
ROOT
HETATM    1  C   UNL     1     -11.064  15.615  65.072  1.00  0.00    -0.389 C  
HETATM    2  O   UNL     1     -11.234  15.188  66.427  1.00  0.00    -0.339 OA 
ENDROOT
BRANCH   2   3
HETATM    3  C   UNL     1     -10.561  15.956  67.321  1.00  0.00    -0.314 C  
HETATM    4  O   UNL     1     -11.020  16.948  67.873  1.00  0.00    -0.342 OA 
BRANCH   3   5
HETATM    5  C   UNL     1      -9.176  15.451  67.508  1.00  0.00    -0.201 C  
HETATM    6  C   UNL     1      -8.128  16.001  66.839  1.00  0.00    -0.247 C  
HETATM    7  N   UNL     1      -6.856  15.472  67.005  1.00  0.00    -0.248 NA 
HETATM    8  C   UNL     1      -8.172  17.163  65.880  1.00  0.00    -0.021 C  
HETATM    9  C   UNL     1      -6.578  14.286  67.650  1.00  0.00    -0.153 C  
HETATM   10  C   UNL     1      -5.176  13.750  67.481  1.00  0.00     0.165 C  
HETATM   11  C   UNL     1      -7.552  13.669  68.356  1.00  0.00    -0.132 C  
HETATM   12  C   UNL     1      -8.964  14.259  68.453  1.00  0.00    -0.189 C  
BRANCH  11  13
HETATM   13  C   UNL     1      -7.297  12.325  68.916  1.00  0.00    -0.041 C  
HETATM   14  O   UNL     1      -6.907  12.132  70.059  1.00  0.00     0.142 OA 
BRANCH  13  15
HETATM   15  O   UNL     1      -7.527  11.356  67.992  1.00  0.00    -0.091 OA 
BRANCH  15  16
HETATM   16  C   UNL     1      -8.144  10.178  68.551  1.00  0.00    -0.106 C  
BRANCH  16  17
HETATM   17  C   UNL     1      -7.293   8.945  68.206  1.00  0.00    -0.083 C  
BRANCH  17  18
HETATM   18  N   UNL     1      -7.851   7.636  68.587  1.00  0.00    -0.118 NA 
HETATM   19  C   UNL     1      -5.831   6.157  68.071  1.00  0.00    -0.016 C  
HETATM   20  C   UNL     1      -7.309   6.523  67.776  1.00  0.00    -0.096 C  
HETATM   21  N   UNL     1      -5.560   5.828  69.493  1.00  0.00    -0.008 NA 
HETATM   22  C   UNL     1      -7.541   7.375  70.017  1.00  0.00    -0.089 C  
HETATM   23  C   UNL     1      -6.069   6.969  70.300  1.00  0.00    -0.024 C  
BRANCH  21  24
HETATM   24  C   UNL     1      -6.182   4.527  69.893  1.00  0.00    -0.026 C  
BRANCH  24  25
HETATM   25  C   UNL     1      -7.004   4.619  71.190  1.00  0.00    -0.039 A  
HETATM   26  C   UNL     1      -8.368   4.266  71.176  1.00  0.00    -0.097 A  
HETATM   27  C   UNL     1      -6.438   4.999  72.417  1.00  0.00    -0.043 A  
HETATM   28  C   UNL     1      -9.135   4.301  72.344  1.00  0.00    -0.141 A  
HETATM   29  C   UNL     1      -8.559   4.704  73.545  1.00  0.00    -0.101 A  
HETATM   30  C   UNL     1      -7.212   5.055  73.581  1.00  0.00    -0.082 A  
ENDBRANCH  24  25
BRANCH  24  31
HETATM   31  C   UNL     1      -6.966   3.879  68.741  1.00  0.00    -0.047 A  
HETATM   32  C   UNL     1      -8.462   2.476  66.816  1.00  0.00    -0.106 A  
HETATM   33  C   UNL     1      -7.071   2.468  66.759  1.00  0.00    -0.049 A  
HETATM   34  C   UNL     1      -8.372   3.893  68.770  1.00  0.00    -0.087 A  
HETATM   35  C   UNL     1      -6.327   3.160  67.717  1.00  0.00    -0.036 A  
HETATM   36  C   UNL     1      -9.113   3.189  67.820  1.00  0.00    -0.219 A  
ENDBRANCH  24  31
ENDBRANCH  21  24
ENDBRANCH  17  18
ENDBRANCH  16  17
ENDBRANCH  15  16
ENDBRANCH  13  15
ENDBRANCH  11  13
BRANCH  12  37
HETATM   37  C   UNL     1     -10.024  13.160  68.272  1.00  0.00    -0.236 A  
HETATM   38  C   UNL     1     -11.044  11.399  66.943  1.00  0.00    -0.356 A  
HETATM   39  O   UNL     1     -12.410  11.946  71.445  1.00  0.00    -0.200 OA 
HETATM   40  C   UNL     1     -10.825  12.778  69.368  1.00  0.00     0.053 A  
HETATM   41  O   UNL     1     -13.326  10.361  70.236  1.00  0.00    -0.102 OA 
HETATM   42  C   UNL     1     -11.722  11.711  69.240  1.00  0.00    -0.331 A  
HETATM   43  C   UNL     1     -11.827  11.012  68.032  1.00  0.00    -0.152 A  
HETATM   44  N   UNL     1     -12.544  11.310  70.391  1.00  0.00    -0.245 N  
HETATM   45  C   UNL     1     -10.158  12.471  67.058  1.00  0.00    -0.222 A  
ENDBRANCH  12  37
ENDBRANCH   3   5
ENDBRANCH   2   3
TORSDOF 11
ENDMDL
MODEL      211
REMARK 921   NORMALIZED FREE ENERGY PREDICTED BY IDOCK:   -0.17 KCAL/MOL
REMARK 922        TOTAL FREE ENERGY PREDICTED BY IDOCK:   -2.14 KCAL/MOL
REMARK 923 INTER-LIGAND FREE ENERGY PREDICTED BY IDOCK:   -4.50 KCAL/MOL
REMARK 924 INTRA-LIGAND FREE ENERGY PREDICTED BY IDOCK:    2.36 KCAL/MOL
REMARK 927      BINDING AFFINITY PREDICTED BY RF-SCORE:    0.00 PKD
ROOT
HETATM    1  C   UNL     1     -12.174  16.276  65.470  1.00  0.00     1.933 C  
HETATM    2  O   UNL     1     -10.831  16.743  65.622  1.00  0.00    -0.248 OA 
ENDROOT
BRANCH   2   3
HETATM    3  C   UNL     1     -10.545  17.159  66.882  1.00  0.00    -0.209 C  
HETATM    4  O   UNL     1     -11.294  17.827  67.583  1.00  0.00     0.085 OA 
BRANCH   3   5
HETATM    5  C   UNL     1      -9.179  16.728  67.280  1.00  0.00    -0.234 C  
HETATM    6  C   UNL     1      -8.073  17.356  66.801  1.00  0.00    -0.250 C  
HETATM    7  N   UNL     1      -6.815  16.895  67.159  1.00  0.00    -0.166 NA 
HETATM    8  C   UNL     1      -8.034  18.543  65.872  1.00  0.00    -0.042 C  
HETATM    9  C   UNL     1      -6.572  15.708  67.816  1.00  0.00    -0.161 C  
HETATM   10  C   UNL     1      -5.131  15.258  67.864  1.00  0.00    -0.110 C  
HETATM   11  C   UNL     1      -7.607  15.015  68.342  1.00  0.00    -0.115 C  
HETATM   12  C   UNL     1      -9.049  15.521  68.222  1.00  0.00    -0.186 C  
BRANCH  11  13
HETATM   13  C   UNL     1      -7.364  13.672  68.908  1.00  0.00    -0.060 C  
HETATM   14  O   UNL     1      -7.035  13.477  70.069  1.00  0.00     0.214 OA 
BRANCH  13  15
HETATM   15  O   UNL     1      -7.528  12.706  67.967  1.00  0.00    -0.097 OA 
BRANCH  15  16
HETATM   16  C   UNL     1      -8.314  11.590  68.434  1.00  0.00    -0.154 C  
BRANCH  16  17
HETATM   17  C   UNL     1      -7.414  10.350  68.559  1.00  0.00    -0.089 C  
BRANCH  17  18
HETATM   18  N   UNL     1      -7.613   9.293  67.552  1.00  0.00    -0.088 NA 
HETATM   19  C   UNL     1      -7.750   7.265  69.102  1.00  0.00    -0.108 C  
HETATM   20  C   UNL     1      -7.013   8.000  67.952  1.00  0.00    -0.078 C  
HETATM   21  N   UNL     1      -9.188   7.011  68.836  1.00  0.00    -0.137 NA 
HETATM   22  C   UNL     1      -9.069   9.093  67.339  1.00  0.00    -0.127 C  
HETATM   23  C   UNL     1      -9.794   8.320  68.476  1.00  0.00    -0.176 C  
BRANCH  21  24
HETATM   24  C   UNL     1      -9.384   5.981  67.769  1.00  0.00    -0.106 C  
BRANCH  24  25
HETATM   25  C   UNL     1      -8.379   6.105  66.612  1.00  0.00    -0.111 A  
HETATM   26  C   UNL     1      -7.079   5.582  66.759  1.00  0.00    -0.070 A  
HETATM   27  C   UNL     1      -8.716   6.684  65.377  1.00  0.00    -0.006 A  
HETATM   28  C   UNL     1      -6.153   5.644  65.714  1.00  0.00    -0.029 A  
HETATM   29  C   UNL     1      -6.502   6.244  64.507  1.00  0.00    -0.034 A  
HETATM   30  C   UNL     1      -7.782   6.765  64.340  1.00  0.00    -0.109 A  
ENDBRANCH  24  25
BRANCH  24  31
HETATM   31  C   UNL     1      -9.452   4.556  68.341  1.00  0.00    -0.209 A  
HETATM   32  C   UNL     1      -9.289   1.960  69.412  1.00  0.00    -0.163 A  
HETATM   33  C   UNL     1      -9.500   2.139  68.047  1.00  0.00    -0.201 A  
HETATM   34  C   UNL     1      -9.262   4.356  69.721  1.00  0.00    -0.199 A  
HETATM   35  C   UNL     1      -9.576   3.427  67.514  1.00  0.00    -0.152 A  
HETATM   36  C   UNL     1      -9.172   3.067  70.249  1.00  0.00    -0.213 A  
ENDBRANCH  24  31
ENDBRANCH  21  24
ENDBRANCH  17  18
ENDBRANCH  16  17
ENDBRANCH  15  16
ENDBRANCH  13  15
ENDBRANCH  11  13
BRANCH  12  37
HETATM   37  C   UNL     1      -9.998  14.371  67.849  1.00  0.00    -0.228 A  
HETATM   38  C   UNL     1     -11.954  13.002  68.313  1.00  0.00    -0.306 A  
HETATM   39  O   UNL     1      -9.769  12.525  64.138  1.00  0.00    -0.130 OA 
HETATM   40  C   UNL     1      -9.887  13.759  66.584  1.00  0.00    -0.286 A  
HETATM   41  O   UNL     1     -11.533  11.293  64.568  1.00  0.00    -0.133 OA 
HETATM   42  C   UNL     1     -10.811  12.780  66.197  1.00  0.00    -0.279 A  
HETATM   43  C   UNL     1     -11.852  12.406  67.055  1.00  0.00    -0.368 A  
HETATM   44  N   UNL     1     -10.696  12.156  64.871  1.00  0.00    -0.283 N  
HETATM   45  C   UNL     1     -11.028  13.968  68.712  1.00  0.00    -0.282 A  
ENDBRANCH  12  37
ENDBRANCH   3   5
ENDBRANCH   2   3
TORSDOF 11
ENDMDL
MODEL      212
REMARK 921   NORMALIZED FREE ENERGY PREDICTED BY IDOCK:   -0.04 KCAL/MOL
REMARK 922        TOTAL FREE ENERGY PREDICTED BY IDOCK:   -1.93 KCAL/MOL
REMARK 923 INTER-LIGAND FREE ENERGY PREDICTED BY IDOCK:   -5.96 KCAL/MOL
REMARK 924 INTRA-LIGAND FREE ENERGY PREDICTED BY IDOCK:    4.02 KCAL/MOL
REMARK 927      BINDING AFFINITY PREDICTED BY RF-SCORE:    0.00 PKD
ROOT
HETATM    1  C   UNL     1      -9.871  18.189  68.288  1.00  0.00    -0.351 C  
HETATM    2  O   UNL     1     -10.003  17.911  66.891  1.00  0.00    -0.304 OA 
ENDROOT
BRANCH   2   3
HETATM    3  C   UNL     1      -8.929  17.268  66.366  1.00  0.00    -0.252 C  
HETATM    4  O   UNL     1      -8.431  17.518  65.276  1.00  0.00     0.497 OA 
BRANCH   3   5
HETATM    5  C   UNL     1      -8.467  16.189  67.278  1.00  0.00    -0.203 C  
HETATM    6  C   UNL     1      -7.189  16.155  67.740  1.00  0.00    -0.138 C  
HETATM    7  N   UNL     1      -6.783  15.106  68.552  1.00  0.00    -0.104 NA 
HETATM    8  C   UNL     1      -6.095  17.154  67.460  1.00  0.00    -0.160 C  
HETATM    9  C   UNL     1      -7.516  13.962  68.781  1.00  0.00    -0.114 C  
HETATM   10  C   UNL     1      -6.785  12.829  69.463  1.00  0.00     0.032 C  
HETATM   11  C   UNL     1      -8.803  13.904  68.371  1.00  0.00    -0.177 C  
HETATM   12  C   UNL     1      -9.466  15.085  67.654  1.00  0.00    -0.195 C  
BRANCH  11  13
HETATM   13  C   UNL     1      -9.538  12.627  68.479  1.00  0.00    -0.109 C  
HETATM   14  O   UNL     1     -10.685  12.538  68.893  1.00  0.00    -0.227 OA 
BRANCH  13  15
HETATM   15  O   UNL     1      -8.765  11.581  68.084  1.00  0.00    -0.144 OA 
BRANCH  15  16
HETATM   16  C   UNL     1      -9.511  10.356  67.925  1.00  0.00    -0.138 C  
BRANCH  16  17
HETATM   17  C   UNL     1      -8.719   9.391  67.027  1.00  0.00    -0.127 C  
BRANCH  17  18
HETATM   18  N   UNL     1      -9.090   7.968  67.107  1.00  0.00    -0.134 NA 
HETATM   19  C   UNL     1      -7.904   7.111  65.012  1.00  0.00    -0.125 C  
HETATM   20  C   UNL     1      -9.234   7.337  65.776  1.00  0.00     0.129 C  
HETATM   21  N   UNL     1      -6.901   6.314  65.762  1.00  0.00    -0.052 NA 
HETATM   22  C   UNL     1      -8.045   7.236  67.868  1.00  0.00    -0.119 C  
HETATM   23  C   UNL     1      -6.729   6.977  67.082  1.00  0.00    -0.060 C  
BRANCH  21  24
HETATM   24  C   UNL     1      -7.312   4.882  65.895  1.00  0.00    -0.077 C  
BRANCH  24  25
HETATM   25  C   UNL     1      -7.697   4.490  67.332  1.00  0.00    -0.089 A  
HETATM   26  C   UNL     1      -6.695   4.076  68.233  1.00  0.00    -0.047 A  
HETATM   27  C   UNL     1      -9.014   4.572  67.811  1.00  0.00    -0.131 A  
HETATM   28  C   UNL     1      -7.004   3.750  69.556  1.00  0.00    -0.042 A  
HETATM   29  C   UNL     1      -8.321   3.815  70.002  1.00  0.00    -0.081 A  
HETATM   30  C   UNL     1      -9.326   4.224  69.129  1.00  0.00    -0.229 A  
ENDBRANCH  24  25
BRANCH  24  31
HETATM   31  C   UNL     1      -8.385   4.487  64.869  1.00  0.00    -0.121 A  
HETATM   32  C   UNL     1     -10.406   4.047  62.962  1.00  0.00    -0.139 A  
HETATM   33  C   UNL     1     -10.655   3.804  64.310  1.00  0.00    -0.241 A  
HETATM   34  C   UNL     1      -8.145   4.705  63.499  1.00  0.00    -0.097 A  
HETATM   35  C   UNL     1      -9.655   4.027  65.258  1.00  0.00    -0.185 A  
HETATM   36  C   UNL     1      -9.152   4.496  62.556  1.00  0.00    -0.127 A  
ENDBRANCH  24  31
ENDBRANCH  21  24
ENDBRANCH  17  18
ENDBRANCH  16  17
ENDBRANCH  15  16
ENDBRANCH  13  15
ENDBRANCH  11  13
BRANCH  12  37
HETATM   37  C   UNL     1     -10.292  14.595  66.453  1.00  0.00    -0.293 A  
HETATM   38  C   UNL     1     -12.181  14.836  64.941  1.00  0.00    -0.304 A  
HETATM   39  O   UNL     1      -8.889  11.569  63.982  1.00  0.00     0.183 OA 
HETATM   40  C   UNL     1      -9.791  13.559  65.640  1.00  0.00    -0.187 A  
HETATM   41  O   UNL     1     -10.598  11.793  62.626  1.00  0.00     0.151 OA 
HETATM   42  C   UNL     1     -10.488  13.176  64.487  1.00  0.00    -0.405 A  
HETATM   43  C   UNL     1     -11.677  13.819  64.128  1.00  0.00    -0.397 A  
HETATM   44  N   UNL     1      -9.951  12.102  63.637  1.00  0.00    -0.371 N  
HETATM   45  C   UNL     1     -11.501  15.214  66.100  1.00  0.00    -0.157 A  
ENDBRANCH  12  37
ENDBRANCH   3   5
ENDBRANCH   2   3
TORSDOF 11
ENDMDL
MODEL      213
REMARK 921   NORMALIZED FREE ENERGY PREDICTED BY IDOCK:    0.15 KCAL/MOL
REMARK 922        TOTAL FREE ENERGY PREDICTED BY IDOCK:   -1.62 KCAL/MOL
REMARK 923 INTER-LIGAND FREE ENERGY PREDICTED BY IDOCK:   -7.89 KCAL/MOL
REMARK 924 INTRA-LIGAND FREE ENERGY PREDICTED BY IDOCK:    6.28 KCAL/MOL
REMARK 927      BINDING AFFINITY PREDICTED BY RF-SCORE:    0.00 PKD
ROOT
HETATM    1  C   UNL     1     -12.413   7.184  72.942  1.00  0.00     0.797 C  
HETATM    2  O   UNL     1     -12.159   7.883  71.720  1.00  0.00    -0.280 OA 
ENDROOT
BRANCH   2   3
HETATM    3  C   UNL     1     -11.176   8.813  71.827  1.00  0.00    -0.340 C  
HETATM    4  O   UNL     1     -10.330   8.836  72.711  1.00  0.00    -0.074 OA 
BRANCH   3   5
HETATM    5  C   UNL     1     -11.292   9.825  70.744  1.00  0.00    -0.416 C  
HETATM    6  C   UNL     1     -12.502  10.307  70.355  1.00  0.00    -0.219 C  
HETATM    7  N   UNL     1     -12.573  11.216  69.310  1.00  0.00    -0.259 NA 
HETATM    8  C   UNL     1     -13.849   9.953  70.933  1.00  0.00     0.182 C  
HETATM    9  C   UNL     1     -11.522  11.537  68.477  1.00  0.00    -0.292 C  
HETATM   10  C   UNL     1     -11.873  12.329  67.239  1.00  0.00    -0.330 C  
HETATM   11  C   UNL     1     -10.275  11.117  68.787  1.00  0.00    -0.219 C  
HETATM   12  C   UNL     1     -10.003  10.286  70.047  1.00  0.00    -0.123 C  
BRANCH  11  13
HETATM   13  C   UNL     1      -9.180  11.329  67.819  1.00  0.00    -0.156 C  
HETATM   14  O   UNL     1      -8.318  10.496  67.579  1.00  0.00    -0.117 OA 
BRANCH  13  15
HETATM   15  O   UNL     1      -9.249  12.568  67.263  1.00  0.00    -0.177 OA 
BRANCH  15  16
HETATM   16  C   UNL     1      -8.971  13.625  68.205  1.00  0.00    -0.191 C  
BRANCH  16  17
HETATM   17  C   UNL     1      -9.083  14.983  67.493  1.00  0.00    -0.185 C  
BRANCH  17  18
HETATM   18  N   UNL     1      -7.898  15.856  67.556  1.00  0.00    -0.141 NA 
HETATM   19  C   UNL     1      -8.859  17.941  66.431  1.00  0.00    -0.228 C  
HETATM   20  C   UNL     1      -7.815  16.793  66.414  1.00  0.00    -0.318 C  
HETATM   21  N   UNL     1      -8.835  18.763  67.668  1.00  0.00    -0.278 NA 
HETATM   22  C   UNL     1      -7.944  16.645  68.814  1.00  0.00    -0.239 C  
HETATM   23  C   UNL     1      -8.961  17.819  68.810  1.00  0.00    -0.202 C  
BRANCH  21  24
HETATM   24  C   UNL     1      -7.600  19.601  67.756  1.00  0.00    -0.278 C  
BRANCH  24  25
HETATM   25  C   UNL     1      -6.745  19.294  68.998  1.00  0.00    -0.351 A  
HETATM   26  C   UNL     1      -6.763  20.180  70.093  1.00  0.00    -0.136 A  
HETATM   27  C   UNL     1      -5.970  18.128  69.112  1.00  0.00    -0.228 A  
HETATM   28  C   UNL     1      -6.028  19.912  71.251  1.00  0.00    -0.260 A  
HETATM   29  C   UNL     1      -5.248  18.762  71.332  1.00  0.00    -0.286 A  
HETATM   30  C   UNL     1      -5.218  17.872  70.262  1.00  0.00    -0.246 A  
ENDBRANCH  24  25
BRANCH  24  31
HETATM   31  C   UNL     1      -6.783  19.574  66.456  1.00  0.00    -0.197 A  
HETATM   32  C   UNL     1      -5.511  19.386  63.954  1.00  0.00    -0.312 A  
HETATM   33  C   UNL     1      -5.130  18.543  64.994  1.00  0.00    -0.199 A  
HETATM   34  C   UNL     1      -7.139  20.433  65.399  1.00  0.00    -0.209 A  
HETATM   35  C   UNL     1      -5.764  18.632  66.235  1.00  0.00    -0.185 A  
HETATM   36  C   UNL     1      -6.514  20.332  64.156  1.00  0.00    -0.131 A  
ENDBRANCH  24  31
ENDBRANCH  21  24
ENDBRANCH  17  18
ENDBRANCH  16  17
ENDBRANCH  15  16
ENDBRANCH  13  15
ENDBRANCH  11  13
BRANCH  12  37
HETATM   37  C   UNL     1      -9.048   9.123  69.733  1.00  0.00    -0.173 A  
HETATM   38  C   UNL     1      -6.932   7.971  70.063  1.00  0.00    -0.048 A  
HETATM   39  O   UNL     1     -10.315   5.852  67.515  1.00  0.00    -0.168 OA 
HETATM   40  C   UNL     1      -9.507   8.032  68.968  1.00  0.00    -0.151 A  
HETATM   41  O   UNL     1      -8.402   4.822  67.817  1.00  0.00    -0.103 OA 
HETATM   42  C   UNL     1      -8.677   6.923  68.763  1.00  0.00    -0.129 A  
HETATM   43  C   UNL     1      -7.393   6.884  69.317  1.00  0.00    -0.092 A  
HETATM   44  N   UNL     1      -9.168   5.783  67.975  1.00  0.00    -0.109 N  
HETATM   45  C   UNL     1      -7.749   9.087  70.260  1.00  0.00    -0.098 A  
ENDBRANCH  12  37
ENDBRANCH   3   5
ENDBRANCH   2   3
TORSDOF 11
ENDMDL
MODEL      214
REMARK 921   NORMALIZED FREE ENERGY PREDICTED BY IDOCK:    0.17 KCAL/MOL
REMARK 922        TOTAL FREE ENERGY PREDICTED BY IDOCK:   -1.58 KCAL/MOL
REMARK 923 INTER-LIGAND FREE ENERGY PREDICTED BY IDOCK:   -5.54 KCAL/MOL
REMARK 924 INTRA-LIGAND FREE ENERGY PREDICTED BY IDOCK:    3.96 KCAL/MOL
REMARK 927      BINDING AFFINITY PREDICTED BY RF-SCORE:    0.00 PKD
ROOT
HETATM    1  C   UNL     1     -10.153  14.862  64.843  1.00  0.00    -0.165 C  
HETATM    2  O   UNL     1     -10.794  14.333  66.007  1.00  0.00    -0.294 OA 
ENDROOT
BRANCH   2   3
HETATM    3  C   UNL     1     -11.661  13.326  65.733  1.00  0.00    -0.359 C  
HETATM    4  O   UNL     1     -12.420  13.300  64.773  1.00  0.00    -0.495 OA 
BRANCH   3   5
HETATM    5  C   UNL     1     -11.593  12.276  66.783  1.00  0.00    -0.434 C  
HETATM    6  C   UNL     1     -11.838  12.565  68.088  1.00  0.00    -0.317 C  
HETATM    7  N   UNL     1     -11.719  11.568  69.045  1.00  0.00    -0.307 NA 
HETATM    8  C   UNL     1     -12.228  13.903  68.664  1.00  0.00    -0.213 C  
HETATM    9  C   UNL     1     -11.171  10.324  68.817  1.00  0.00    -0.206 C  
HETATM   10  C   UNL     1     -10.880   9.491  70.043  1.00  0.00    -0.286 C  
HETATM   11  C   UNL     1     -10.906   9.936  67.549  1.00  0.00    -0.307 C  
HETATM   12  C   UNL     1     -11.199  10.854  66.356  1.00  0.00     0.040 C  
BRANCH  11  13
HETATM   13  C   UNL     1     -10.180   8.670  67.318  1.00  0.00    -0.268 C  
HETATM   14  O   UNL     1     -10.428   7.907  66.396  1.00  0.00    -0.125 OA 
BRANCH  13  15
HETATM   15  O   UNL     1      -9.234   8.466  68.272  1.00  0.00    -0.135 OA 
BRANCH  15  16
HETATM   16  C   UNL     1      -7.897   8.393  67.735  1.00  0.00    -0.107 C  
BRANCH  16  17
HETATM   17  C   UNL     1      -7.874   7.403  66.559  1.00  0.00    -0.098 C  
BRANCH  17  18
HETATM   18  N   UNL     1      -7.342   6.060  66.845  1.00  0.00    -0.075 NA 
HETATM   19  C   UNL     1      -9.352   5.070  68.075  1.00  0.00    -0.125 C  
HETATM   20  C   UNL     1      -7.861   5.494  68.111  1.00  0.00    -0.092 C  
HETATM   21  N   UNL     1      -9.681   4.099  67.000  1.00  0.00    -0.210 NA 
HETATM   22  C   UNL     1      -7.709   5.146  65.733  1.00  0.00    -0.091 C  
HETATM   23  C   UNL     1      -9.194   4.692  65.726  1.00  0.00    -0.147 C  
BRANCH  21  24
HETATM   24  C   UNL     1      -9.086   2.753  67.265  1.00  0.00    -0.174 C  
BRANCH  24  25
HETATM   25  C   UNL     1      -7.845   2.457  66.405  1.00  0.00    -0.076 A  
HETATM   26  C   UNL     1      -8.006   1.952  65.100  1.00  0.00    -0.074 A  
HETATM   27  C   UNL     1      -6.538   2.716  66.851  1.00  0.00    -0.036 A  
HETATM   28  C   UNL     1      -6.901   1.708  64.279  1.00  0.00    -0.031 A  
HETATM   29  C   UNL     1      -5.614   1.949  64.750  1.00  0.00    -0.009 A  
HETATM   30  C   UNL     1      -5.433   2.451  66.037  1.00  0.00    -0.016 A  
ENDBRANCH  24  25
BRANCH  24  31
HETATM   31  C   UNL     1      -8.840   2.508  68.761  1.00  0.00    -0.154 A  
HETATM   32  C   UNL     1      -8.347   2.346  71.526  1.00  0.00    -0.079 A  
HETATM   33  C   UNL     1      -7.364   1.959  70.620  1.00  0.00    -0.033 A  
HETATM   34  C   UNL     1      -9.829   2.874  69.693  1.00  0.00     0.255 A  
HETATM   35  C   UNL     1      -7.606   2.044  69.247  1.00  0.00    -0.043 A  
HETATM   36  C   UNL     1      -9.579   2.802  71.064  1.00  0.00    -0.215 A  
ENDBRANCH  24  31
ENDBRANCH  21  24
ENDBRANCH  17  18
ENDBRANCH  16  17
ENDBRANCH  15  16
ENDBRANCH  13  15
ENDBRANCH  11  13
BRANCH  12  37
HETATM   37  C   UNL     1     -10.029  10.835  65.358  1.00  0.00    -0.330 A  
HETATM   38  C   UNL     1      -9.192  10.839  63.076  1.00  0.00    -0.320 A  
HETATM   39  O   UNL     1      -6.113  11.338  66.640  1.00  0.00    -0.117 OA 
HETATM   40  C   UNL     1      -8.710  10.999  65.828  1.00  0.00    -0.179 A  
HETATM   41  O   UNL     1      -5.368  11.339  64.577  1.00  0.00    -0.033 OA 
HETATM   42  C   UNL     1      -7.650  11.084  64.917  1.00  0.00     0.493 A  
HETATM   43  C   UNL     1      -7.887  11.015  63.540  1.00  0.00     0.464 A  
HETATM   44  N   UNL     1      -6.278  11.268  65.415  1.00  0.00     0.372 N  
HETATM   45  C   UNL     1     -10.254  10.738  63.977  1.00  0.00    -0.390 A  
ENDBRANCH  12  37
ENDBRANCH   3   5
ENDBRANCH   2   3
TORSDOF 11
ENDMDL
MODEL      215
REMARK 921   NORMALIZED FREE ENERGY PREDICTED BY IDOCK:    0.29 KCAL/MOL
REMARK 922        TOTAL FREE ENERGY PREDICTED BY IDOCK:   -1.39 KCAL/MOL
REMARK 923 INTER-LIGAND FREE ENERGY PREDICTED BY IDOCK:   -2.96 KCAL/MOL
REMARK 924 INTRA-LIGAND FREE ENERGY PREDICTED BY IDOCK:    1.57 KCAL/MOL
REMARK 927      BINDING AFFINITY PREDICTED BY RF-SCORE:    0.00 PKD
ROOT
HETATM    1  C   UNL     1      -6.063   6.741  68.371  1.00  0.00    -0.026 C  
HETATM    2  O   UNL     1      -5.489   7.946  68.887  1.00  0.00    -0.025 OA 
ENDROOT
BRANCH   2   3
HETATM    3  C   UNL     1      -5.854   9.055  68.195  1.00  0.00    -0.039 C  
HETATM    4  O   UNL     1      -5.153   9.626  67.371  1.00  0.00    -0.035 OA 
BRANCH   3   5
HETATM    5  C   UNL     1      -7.209   9.508  68.608  1.00  0.00    -0.074 C  
HETATM    6  C   UNL     1      -7.573   9.543  69.917  1.00  0.00    -0.123 C  
HETATM    7  N   UNL     1      -8.862   9.928  70.259  1.00  0.00    -0.126 NA 
HETATM    8  C   UNL     1      -6.719   9.188  71.107  1.00  0.00    -0.090 C  
HETATM    9  C   UNL     1      -9.895  10.093  69.362  1.00  0.00    -0.229 C  
HETATM   10  C   UNL     1     -11.276  10.239  69.958  1.00  0.00    -0.376 C  
HETATM   11  C   UNL     1      -9.631  10.088  68.036  1.00  0.00    -0.154 C  
HETATM   12  C   UNL     1      -8.205   9.900  67.506  1.00  0.00    -0.114 C  
BRANCH  11  13
HETATM   13  C   UNL     1     -10.755  10.111  67.076  1.00  0.00    -0.196 C  
HETATM   14  O   UNL     1     -11.265   9.103  66.608  1.00  0.00     0.444 OA 
BRANCH  13  15
HETATM   15  O   UNL     1     -11.116  11.386  66.773  1.00  0.00    -0.287 OA 
BRANCH  15  16
HETATM   16  C   UNL     1     -10.747  11.773  65.433  1.00  0.00    -0.283 C  
BRANCH  16  17
HETATM   17  C   UNL     1      -9.876  13.038  65.491  1.00  0.00    -0.137 C  
BRANCH  17  18
HETATM   18  N   UNL     1     -10.390  14.151  66.307  1.00  0.00    -0.285 NA 
HETATM   19  C   UNL     1      -8.585  14.208  68.117  1.00  0.00    -0.175 C  
HETATM   20  C   UNL     1     -10.077  14.000  67.746  1.00  0.00    -0.240 C  
HETATM   21  N   UNL     1      -8.031  15.517  67.688  1.00  0.00    -0.140 NA 
HETATM   22  C   UNL     1      -9.793  15.423  65.824  1.00  0.00    -0.364 C  
HETATM   23  C   UNL     1      -8.311  15.644  66.234  1.00  0.00    -0.057 C  
BRANCH  21  24
HETATM   24  C   UNL     1      -8.603  16.650  68.479  1.00  0.00    -0.234 C  
BRANCH  24  25
HETATM   25  C   UNL     1      -7.613  17.242  69.497  1.00  0.00     0.330 A  
HETATM   26  C   UNL     1      -6.578  16.436  70.012  1.00  0.00     0.126 A  
HETATM   27  C   UNL     1      -7.664  18.584  69.908  1.00  0.00     0.992 A  
HETATM   28  C   UNL     1      -5.639  16.952  70.909  1.00  0.00     0.109 A  
HETATM   29  C   UNL     1      -5.723  18.279  71.321  1.00  0.00     0.322 A  
HETATM   30  C   UNL     1      -6.737  19.093  70.823  1.00  0.00     0.818 A  
ENDBRANCH  24  25
BRANCH  24  31
HETATM   31  C   UNL     1      -9.239  17.723  67.582  1.00  0.00    -0.249 A  
HETATM   32  C   UNL     1     -10.383  19.497  65.723  1.00  0.00    -0.471 A  
HETATM   33  C   UNL     1      -9.062  19.669  66.129  1.00  0.00    -0.380 A  
HETATM   34  C   UNL     1     -10.579  17.579  67.177  1.00  0.00    -0.264 A  
HETATM   35  C   UNL     1      -8.492  18.786  67.047  1.00  0.00    -0.289 A  
HETATM   36  C   UNL     1     -11.142  18.454  66.248  1.00  0.00     0.459 A  
ENDBRANCH  24  31
ENDBRANCH  21  24
ENDBRANCH  17  18
ENDBRANCH  16  17
ENDBRANCH  15  16
ENDBRANCH  13  15
ENDBRANCH  11  13
BRANCH  12  37
HETATM   37  C   UNL     1      -8.193   8.924  66.318  1.00  0.00    -0.111 A  
HETATM   38  C   UNL     1      -7.708   8.429  63.988  1.00  0.00    -0.139 A  
HETATM   39  O   UNL     1      -8.982   4.884  66.859  1.00  0.00    -0.110 OA 
HETATM   40  C   UNL     1      -8.475   7.560  66.535  1.00  0.00    -0.131 A  
HETATM   41  O   UNL     1      -8.544   4.449  64.754  1.00  0.00    -0.121 OA 
HETATM   42  C   UNL     1      -8.367   6.647  65.478  1.00  0.00    -0.144 A  
HETATM   43  C   UNL     1      -7.974   7.076  64.206  1.00  0.00    -0.091 A  
HETATM   44  N   UNL     1      -8.650   5.224  65.716  1.00  0.00    -0.133 N  
HETATM   45  C   UNL     1      -7.827   9.348  65.032  1.00  0.00    -0.115 A  
ENDBRANCH  12  37
ENDBRANCH   3   5
ENDBRANCH   2   3
TORSDOF 11
ENDMDL
MODEL      216
REMARK 921   NORMALIZED FREE ENERGY PREDICTED BY IDOCK:    0.48 KCAL/MOL
REMARK 922        TOTAL FREE ENERGY PREDICTED BY IDOCK:   -1.07 KCAL/MOL
REMARK 923 INTER-LIGAND FREE ENERGY PREDICTED BY IDOCK:   -4.05 KCAL/MOL
REMARK 924 INTRA-LIGAND FREE ENERGY PREDICTED BY IDOCK:    2.98 KCAL/MOL
REMARK 927      BINDING AFFINITY PREDICTED BY RF-SCORE:    0.00 PKD
ROOT
HETATM    1  C   UNL     1      -7.121  14.679  68.877  1.00  0.00    -0.117 C  
HETATM    2  O   UNL     1      -7.187  13.574  67.972  1.00  0.00    -0.094 OA 
ENDROOT
BRANCH   2   3
HETATM    3  C   UNL     1      -6.992  12.373  68.572  1.00  0.00    -0.092 C  
HETATM    4  O   UNL     1      -6.597  12.223  69.721  1.00  0.00    -0.083 OA 
BRANCH   3   5
HETATM    5  C   UNL     1      -7.285  11.261  67.630  1.00  0.00    -0.092 C  
HETATM    6  C   UNL     1      -6.460  10.984  66.586  1.00  0.00    -0.129 C  
HETATM    7  N   UNL     1      -6.792   9.969  65.702  1.00  0.00    -0.106 NA 
HETATM    8  C   UNL     1      -5.170  11.682  66.239  1.00  0.00     0.060 C  
HETATM    9  C   UNL     1      -8.011   9.326  65.667  1.00  0.00    -0.103 C  
HETATM   10  C   UNL     1      -8.268   8.454  64.460  1.00  0.00    -0.149 C  
HETATM   11  C   UNL     1      -8.896   9.525  66.669  1.00  0.00    -0.150 C  
HETATM   12  C   UNL     1      -8.575  10.454  67.845  1.00  0.00    -0.118 C  
BRANCH  11  13
HETATM   13  C   UNL     1     -10.256   8.959  66.554  1.00  0.00    -0.249 C  
HETATM   14  O   UNL     1     -11.139   9.455  65.868  1.00  0.00     1.021 OA 
BRANCH  13  15
HETATM   15  O   UNL     1     -10.392   7.847  67.323  1.00  0.00    -0.249 OA 
BRANCH  15  16
HETATM   16  C   UNL     1     -11.210   6.831  66.707  1.00  0.00     0.111 C  
BRANCH  16  17
HETATM   17  C   UNL     1     -10.411   5.521  66.615  1.00  0.00    -0.294 C  
BRANCH  17  18
HETATM   18  N   UNL     1      -8.973   5.608  66.920  1.00  0.00    -0.112 NA 
HETATM   19  C   UNL     1      -9.088   5.564  69.474  1.00  0.00    -0.120 C  
HETATM   20  C   UNL     1      -8.697   6.330  68.183  1.00  0.00    -0.115 C  
HETATM   21  N   UNL     1      -8.461   4.224  69.596  1.00  0.00    -0.067 NA 
HETATM   22  C   UNL     1      -8.416   4.235  67.029  1.00  0.00    -0.104 C  
HETATM   23  C   UNL     1      -8.776   3.488  68.343  1.00  0.00    -0.105 C  
BRANCH  21  24
HETATM   24  C   UNL     1      -6.989   4.317  69.845  1.00  0.00    -0.042 C  
BRANCH  24  25
HETATM   25  C   UNL     1      -6.491   5.763  70.013  1.00  0.00    -0.038 A  
HETATM   26  C   UNL     1      -5.682   6.097  71.118  1.00  0.00    -0.026 A  
HETATM   27  C   UNL     1      -6.771   6.772  69.078  1.00  0.00    -0.059 A  
HETATM   28  C   UNL     1      -5.182   7.392  71.281  1.00  0.00    -0.027 A  
HETATM   29  C   UNL     1      -5.492   8.382  70.354  1.00  0.00    -0.021 A  
HETATM   30  C   UNL     1      -6.289   8.073  69.254  1.00  0.00    -0.035 A  
ENDBRANCH  24  25
BRANCH  24  31
HETATM   31  C   UNL     1      -6.532   3.399  70.989  1.00  0.00    -0.026 A  
HETATM   32  C   UNL     1      -5.846   1.507  72.955  1.00  0.00    -0.004 A  
HETATM   33  C   UNL     1      -6.814   2.471  73.223  1.00  0.00    -0.027 A  
HETATM   34  C   UNL     1      -5.540   2.431  70.744  1.00  0.00    -0.013 A  
HETATM   35  C   UNL     1      -7.159   3.408  72.247  1.00  0.00    -0.042 A  
HETATM   36  C   UNL     1      -5.208   1.488  71.717  1.00  0.00     0.000 A  
ENDBRANCH  24  31
ENDBRANCH  21  24
ENDBRANCH  17  18
ENDBRANCH  16  17
ENDBRANCH  15  16
ENDBRANCH  13  15
ENDBRANCH  11  13
BRANCH  12  37
HETATM   37  C   UNL     1      -9.784  11.343  68.180  1.00  0.00    -0.194 A  
HETATM   38  C   UNL     1     -11.701  11.873  69.578  1.00  0.00    -0.410 A  
HETATM   39  O   UNL     1     -10.374  14.971  66.252  1.00  0.00    -0.275 OA 
HETATM   40  C   UNL     1      -9.960  12.565  67.499  1.00  0.00    -0.201 A  
HETATM   41  O   UNL     1     -12.103  15.439  67.517  1.00  0.00     0.051 OA 
HETATM   42  C   UNL     1     -11.001  13.427  67.868  1.00  0.00    -0.256 A  
HETATM   43  C   UNL     1     -11.867  13.089  68.913  1.00  0.00    -0.358 A  
HETATM   44  N   UNL     1     -11.169  14.705  67.161  1.00  0.00    -0.333 N  
HETATM   45  C   UNL     1     -10.675  11.001  69.208  1.00  0.00    -0.263 A  
ENDBRANCH  12  37
ENDBRANCH   3   5
ENDBRANCH   2   3
TORSDOF 11
ENDMDL
MODEL      217
REMARK 921   NORMALIZED FREE ENERGY PREDICTED BY IDOCK:    0.50 KCAL/MOL
REMARK 922        TOTAL FREE ENERGY PREDICTED BY IDOCK:   -1.05 KCAL/MOL
REMARK 923 INTER-LIGAND FREE ENERGY PREDICTED BY IDOCK:   -5.68 KCAL/MOL
REMARK 924 INTRA-LIGAND FREE ENERGY PREDICTED BY IDOCK:    4.63 KCAL/MOL
REMARK 927      BINDING AFFINITY PREDICTED BY RF-SCORE:    0.00 PKD
ROOT
HETATM    1  C   UNL     1     -11.042   9.310  71.879  1.00  0.00    -0.238 C  
HETATM    2  O   UNL     1     -10.915   8.654  70.614  1.00  0.00    -0.230 OA 
ENDROOT
BRANCH   2   3
HETATM    3  C   UNL     1      -9.653   8.684  70.116  1.00  0.00    -0.172 C  
HETATM    4  O   UNL     1      -8.691   8.121  70.621  1.00  0.00    -0.129 OA 
BRANCH   3   5
HETATM    5  C   UNL     1      -9.591   9.532  68.897  1.00  0.00    -0.156 C  
HETATM    6  C   UNL     1     -10.721   9.970  68.283  1.00  0.00    -0.240 C  
HETATM    7  N   UNL     1     -10.622  10.720  67.120  1.00  0.00    -0.241 NA 
HETATM    8  C   UNL     1     -12.144   9.723  68.717  1.00  0.00     1.229 C  
HETATM    9  C   UNL     1      -9.461  10.902  66.401  1.00  0.00    -0.187 C  
HETATM   10  C   UNL     1      -9.618  11.512  65.028  1.00  0.00    -0.222 C  
HETATM   11  C   UNL     1      -8.281  10.512  66.933  1.00  0.00    -0.123 C  
HETATM   12  C   UNL     1      -8.206   9.868  68.322  1.00  0.00    -0.109 C  
BRANCH  11  13
HETATM   13  C   UNL     1      -7.061  10.566  66.102  1.00  0.00    -0.135 C  
HETATM   14  O   UNL     1      -6.464   9.573  65.711  1.00  0.00    -0.070 OA 
BRANCH  13  15
HETATM   15  O   UNL     1      -6.687  11.851  65.861  1.00  0.00     0.563 OA 
BRANCH  15  16
HETATM   16  C   UNL     1      -5.706  12.338  66.800  1.00  0.00     0.241 C  
BRANCH  16  17
HETATM   17  C   UNL     1      -6.396  13.251  67.828  1.00  0.00    -0.159 C  
BRANCH  17  18
HETATM   18  N   UNL     1      -7.867  13.304  67.774  1.00  0.00    -0.141 NA 
HETATM   19  C   UNL     1      -8.277  15.172  69.470  1.00  0.00    -0.160 C  
HETATM   20  C   UNL     1      -8.475  13.687  69.068  1.00  0.00     0.299 C  
HETATM   21  N   UNL     1      -8.764  16.144  68.458  1.00  0.00    -0.190 NA 
HETATM   22  C   UNL     1      -8.279  14.294  66.746  1.00  0.00     0.149 C  
HETATM   23  C   UNL     1      -8.117  15.779  67.170  1.00  0.00    -0.211 C  
BRANCH  21  24
HETATM   24  C   UNL     1     -10.257  16.150  68.363  1.00  0.00    -0.240 C  
BRANCH  24  25
HETATM   25  C   UNL     1     -10.781  15.698  66.989  1.00  0.00    -0.314 A  
HETATM   26  C   UNL     1     -11.380  14.430  66.855  1.00  0.00    -0.357 A  
HETATM   27  C   UNL     1     -10.731  16.523  65.854  1.00  0.00    -0.194 A  
HETATM   28  C   UNL     1     -11.901  14.004  65.630  1.00  0.00    -0.384 A  
HETATM   29  C   UNL     1     -11.819  14.829  64.512  1.00  0.00    -0.428 A  
HETATM   30  C   UNL     1     -11.233  16.086  64.623  1.00  0.00    -0.340 A  
ENDBRANCH  24  25
BRANCH  24  31
HETATM   31  C   UNL     1     -10.917  15.390  69.525  1.00  0.00    -0.276 A  
HETATM   32  C   UNL     1     -12.377  14.040  71.514  1.00  0.00    -0.371 A  
HETATM   33  C   UNL     1     -11.929  15.339  71.739  1.00  0.00    -0.453 A  
HETATM   34  C   UNL     1     -11.358  14.070  69.324  1.00  0.00    -0.318 A  
HETATM   35  C   UNL     1     -11.209  16.012  70.751  1.00  0.00    -0.381 A  
HETATM   36  C   UNL     1     -12.091  13.405  70.308  1.00  0.00    -0.419 A  
ENDBRANCH  24  31
ENDBRANCH  21  24
ENDBRANCH  17  18
ENDBRANCH  16  17
ENDBRANCH  15  16
ENDBRANCH  13  15
ENDBRANCH  11  13
BRANCH  12  37
HETATM   37  C   UNL     1      -7.258   8.658  68.308  1.00  0.00    -0.086 A  
HETATM   38  C   UNL     1      -5.185   7.583  68.983  1.00  0.00    -0.015 A  
HETATM   39  O   UNL     1      -8.470   5.007  66.747  1.00  0.00    -0.108 OA 
HETATM   40  C   UNL     1      -7.698   7.435  67.761  1.00  0.00    -0.112 A  
HETATM   41  O   UNL     1      -6.596   4.048  67.359  1.00  0.00    -0.044 OA 
HETATM   42  C   UNL     1      -6.879   6.301  67.835  1.00  0.00    -0.067 A  
HETATM   43  C   UNL     1      -5.626   6.368  68.454  1.00  0.00    -0.012 A  
HETATM   44  N   UNL     1      -7.351   5.027  67.274  1.00  0.00    -0.081 N  
HETATM   45  C   UNL     1      -5.988   8.721  68.901  1.00  0.00    -0.044 A  
ENDBRANCH  12  37
ENDBRANCH   3   5
ENDBRANCH   2   3
TORSDOF 11
ENDMDL
MODEL      218
REMARK 921   NORMALIZED FREE ENERGY PREDICTED BY IDOCK:    0.52 KCAL/MOL
REMARK 922        TOTAL FREE ENERGY PREDICTED BY IDOCK:   -1.01 KCAL/MOL
REMARK 923 INTER-LIGAND FREE ENERGY PREDICTED BY IDOCK:   -6.89 KCAL/MOL
REMARK 924 INTRA-LIGAND FREE ENERGY PREDICTED BY IDOCK:    5.88 KCAL/MOL
REMARK 927      BINDING AFFINITY PREDICTED BY RF-SCORE:    0.00 PKD
ROOT
HETATM    1  C   UNL     1      -7.681  13.948  66.970  1.00  0.00     0.189 C  
HETATM    2  O   UNL     1      -8.038  13.460  68.266  1.00  0.00    -0.141 OA 
ENDROOT
BRANCH   2   3
HETATM    3  C   UNL     1      -8.969  12.472  68.232  1.00  0.00    -0.178 C  
HETATM    4  O   UNL     1     -10.177  12.649  68.312  1.00  0.00    -0.229 OA 
BRANCH   3   5
HETATM    5  C   UNL     1      -8.316  11.141  68.125  1.00  0.00    -0.136 C  
HETATM    6  C   UNL     1      -7.222  10.829  68.868  1.00  0.00    -0.088 C  
HETATM    7  N   UNL     1      -6.613   9.593  68.706  1.00  0.00    -0.047 NA 
HETATM    8  C   UNL     1      -6.538  11.703  69.889  1.00  0.00    -0.030 C  
HETATM    9  C   UNL     1      -6.905   8.702  67.695  1.00  0.00    -0.071 C  
HETATM   10  C   UNL     1      -5.946   7.546  67.531  1.00  0.00    -0.043 C  
HETATM   11  C   UNL     1      -7.984   8.917  66.910  1.00  0.00    -0.101 C  
HETATM   12  C   UNL     1      -8.892  10.135  67.117  1.00  0.00    -0.138 C  
BRANCH  11  13
HETATM   13  C   UNL     1      -8.206   8.049  65.735  1.00  0.00    -0.132 C  
HETATM   14  O   UNL     1      -8.800   8.411  64.729  1.00  0.00    -0.051 OA 
BRANCH  13  15
HETATM   15  O   UNL     1      -7.691   6.808  65.937  1.00  0.00    -0.087 OA 
BRANCH  15  16
HETATM   16  C   UNL     1      -8.703   5.782  66.005  1.00  0.00    -0.146 C  
BRANCH  16  17
HETATM   17  C   UNL     1      -8.241   4.674  66.966  1.00  0.00    -0.106 C  
BRANCH  17  18
HETATM   18  N   UNL     1      -7.883   5.099  68.330  1.00  0.00    -0.086 NA 
HETATM   19  C   UNL     1     -10.219   5.174  69.367  1.00  0.00    -0.223 C  
HETATM   20  C   UNL     1      -8.928   5.934  68.964  1.00  0.00    -0.122 C  
HETATM   21  N   UNL     1      -9.984   4.017  70.268  1.00  0.00    -0.131 NA 
HETATM   22  C   UNL     1      -7.666   3.894  69.172  1.00  0.00    -0.053 C  
HETATM   23  C   UNL     1      -8.965   3.160  69.607  1.00  0.00    -0.105 C  
BRANCH  21  24
HETATM   24  C   UNL     1      -9.561   4.452  71.635  1.00  0.00    -0.162 C  
BRANCH  24  25
HETATM   25  C   UNL     1      -8.101   4.094  71.962  1.00  0.00    -0.086 A  
HETATM   26  C   UNL     1      -7.105   5.087  71.874  1.00  0.00    -0.067 A  
HETATM   27  C   UNL     1      -7.715   2.816  72.398  1.00  0.00    -0.054 A  
HETATM   28  C   UNL     1      -5.775   4.806  72.201  1.00  0.00    -0.012 A  
HETATM   29  C   UNL     1      -5.412   3.526  72.607  1.00  0.00     0.000 A  
HETATM   30  C   UNL     1      -6.381   2.531  72.703  1.00  0.00    -0.013 A  
ENDBRANCH  24  25
BRANCH  24  31
HETATM   31  C   UNL     1      -9.880   5.931  71.901  1.00  0.00    -0.188 A  
HETATM   32  C   UNL     1     -10.405   8.587  72.665  1.00  0.00    -0.235 A  
HETATM   33  C   UNL     1     -11.459   7.718  72.394  1.00  0.00    -0.418 A  
HETATM   34  C   UNL     1      -8.828   6.829  72.156  1.00  0.00    -0.134 A  
HETATM   35  C   UNL     1     -11.200   6.399  72.020  1.00  0.00    -0.324 A  
HETATM   36  C   UNL     1      -9.090   8.144  72.545  1.00  0.00    -0.302 A  
ENDBRANCH  24  31
ENDBRANCH  21  24
ENDBRANCH  17  18
ENDBRANCH  16  17
ENDBRANCH  15  16
ENDBRANCH  13  15
ENDBRANCH  11  13
BRANCH  12  37
HETATM   37  C   UNL     1      -9.249  10.780  65.768  1.00  0.00    -0.215 A  
HETATM   38  C   UNL     1      -8.714  11.275  63.449  1.00  0.00     0.127 A  
HETATM   39  O   UNL     1     -13.040  12.319  65.068  1.00  0.00    -0.546 OA 
HETATM   40  C   UNL     1     -10.543  11.302  65.567  1.00  0.00    -0.306 A  
HETATM   41  O   UNL     1     -12.547  12.763  62.978  1.00  0.00    -0.507 OA 
HETATM   42  C   UNL     1     -10.908  11.801  64.310  1.00  0.00    -0.349 A  
HETATM   43  C   UNL     1     -10.000  11.779  63.246  1.00  0.00    -0.435 A  
HETATM   44  N   UNL     1     -12.263  12.331  64.105  1.00  0.00    -0.436 N  
HETATM   45  C   UNL     1      -8.337  10.790  64.703  1.00  0.00     0.021 A  
ENDBRANCH  12  37
ENDBRANCH   3   5
ENDBRANCH   2   3
TORSDOF 11
ENDMDL
MODEL      219
REMARK 921   NORMALIZED FREE ENERGY PREDICTED BY IDOCK:    0.55 KCAL/MOL
REMARK 922        TOTAL FREE ENERGY PREDICTED BY IDOCK:   -0.96 KCAL/MOL
REMARK 923 INTER-LIGAND FREE ENERGY PREDICTED BY IDOCK:   -6.21 KCAL/MOL
REMARK 924 INTRA-LIGAND FREE ENERGY PREDICTED BY IDOCK:    5.25 KCAL/MOL
REMARK 927      BINDING AFFINITY PREDICTED BY RF-SCORE:    0.00 PKD
ROOT
HETATM    1  C   UNL     1     -11.672  15.898  66.506  1.00  0.00     0.672 C  
HETATM    2  O   UNL     1     -11.406  16.334  67.842  1.00  0.00    -0.269 OA 
ENDROOT
BRANCH   2   3
HETATM    3  C   UNL     1     -10.586  17.413  67.904  1.00  0.00    -0.383 C  
HETATM    4  O   UNL     1     -10.963  18.577  67.909  1.00  0.00    -0.286 OA 
BRANCH   3   5
HETATM    5  C   UNL     1      -9.161  16.988  67.922  1.00  0.00    -0.239 C  
HETATM    6  C   UNL     1      -8.282  17.427  66.984  1.00  0.00    -0.217 C  
HETATM    7  N   UNL     1      -6.971  16.972  67.007  1.00  0.00    -0.172 NA 
HETATM    8  C   UNL     1      -8.562  18.385  65.854  1.00  0.00     0.160 C  
HETATM    9  C   UNL     1      -6.515  15.937  67.794  1.00  0.00    -0.156 C  
HETATM   10  C   UNL     1      -5.135  15.414  67.471  1.00  0.00     0.059 C  
HETATM   11  C   UNL     1      -7.312  15.440  68.767  1.00  0.00    -0.135 C  
HETATM   12  C   UNL     1      -8.717  16.002  69.013  1.00  0.00    -0.245 C  
BRANCH  11  13
HETATM   13  C   UNL     1      -6.883  14.234  69.506  1.00  0.00    -0.110 C  
HETATM   14  O   UNL     1      -6.547  14.245  70.682  1.00  0.00    -0.078 OA 
BRANCH  13  15
HETATM   15  O   UNL     1      -6.889  13.138  68.702  1.00  0.00    -0.087 OA 
BRANCH  15  16
HETATM   16  C   UNL     1      -7.514  11.992  69.316  1.00  0.00     0.188 C  
BRANCH  16  17
HETATM   17  C   UNL     1      -6.430  11.087  69.925  1.00  0.00    -0.144 C  
BRANCH  17  18
HETATM   18  N   UNL     1      -6.672   9.635  69.851  1.00  0.00    -0.060 NA 
HETATM   19  C   UNL     1      -9.225   9.632  69.996  1.00  0.00    -0.241 C  
HETATM   20  C   UNL     1      -7.866   9.213  70.617  1.00  0.00    -0.146 C  
HETATM   21  N   UNL     1      -9.421   9.169  68.599  1.00  0.00    -0.143 NA 
HETATM   22  C   UNL     1      -6.861   9.246  68.429  1.00  0.00    -0.063 C  
HETATM   23  C   UNL     1      -8.239   9.632  67.826  1.00  0.00    -0.114 C  
BRANCH  21  24
HETATM   24  C   UNL     1      -9.605   7.687  68.524  1.00  0.00    -0.148 C  
BRANCH  24  25
HETATM   25  C   UNL     1      -8.456   6.968  67.795  1.00  0.00    -0.120 A  
HETATM   26  C   UNL     1      -8.364   7.050  66.391  1.00  0.00    -0.125 A  
HETATM   27  C   UNL     1      -7.452   6.263  68.477  1.00  0.00    -0.088 A  
HETATM   28  C   UNL     1      -7.312   6.441  65.700  1.00  0.00    -0.080 A  
HETATM   29  C   UNL     1      -6.341   5.726  66.396  1.00  0.00    -0.039 A  
HETATM   30  C   UNL     1      -6.413   5.635  67.783  1.00  0.00    -0.047 A  
ENDBRANCH  24  25
BRANCH  24  31
HETATM   31  C   UNL     1      -9.911   7.067  69.896  1.00  0.00    -0.183 A  
HETATM   32  C   UNL     1     -10.450   6.200  72.517  1.00  0.00    -0.228 A  
HETATM   33  C   UNL     1      -9.197   5.977  71.953  1.00  0.00    -0.156 A  
HETATM   34  C   UNL     1     -11.178   7.264  70.475  1.00  0.00    -0.305 A  
HETATM   35  C   UNL     1      -8.927   6.411  70.654  1.00  0.00    -0.144 A  
HETATM   36  C   UNL     1     -11.441   6.842  71.779  1.00  0.00    -0.310 A  
ENDBRANCH  24  31
ENDBRANCH  21  24
ENDBRANCH  17  18
ENDBRANCH  16  17
ENDBRANCH  15  16
ENDBRANCH  13  15
ENDBRANCH  11  13
BRANCH  12  37
HETATM   37  C   UNL     1      -9.725  14.863  69.232  1.00  0.00    -0.147 A  
HETATM   38  C   UNL     1     -11.541  13.855  70.497  1.00  0.00    -0.132 A  
HETATM   39  O   UNL     1     -10.289  11.920  66.359  1.00  0.00    -0.211 OA 
HETATM   40  C   UNL     1      -9.885  13.874  68.241  1.00  0.00    -0.231 A  
HETATM   41  O   UNL     1     -11.925  11.018  67.509  1.00  0.00    -0.529 OA 
HETATM   42  C   UNL     1     -10.872  12.890  68.386  1.00  0.00    -0.254 A  
HETATM   43  C   UNL     1     -11.709  12.884  69.508  1.00  0.00    -0.387 A  
HETATM   44  N   UNL     1     -11.041  11.870  67.341  1.00  0.00    -0.261 N  
HETATM   45  C   UNL     1     -10.550  14.830  70.366  1.00  0.00     0.122 A  
ENDBRANCH  12  37
ENDBRANCH   3   5
ENDBRANCH   2   3
TORSDOF 11
ENDMDL
MODEL      220
REMARK 921   NORMALIZED FREE ENERGY PREDICTED BY IDOCK:    0.70 KCAL/MOL
REMARK 922        TOTAL FREE ENERGY PREDICTED BY IDOCK:   -0.71 KCAL/MOL
REMARK 923 INTER-LIGAND FREE ENERGY PREDICTED BY IDOCK:   -6.77 KCAL/MOL
REMARK 924 INTRA-LIGAND FREE ENERGY PREDICTED BY IDOCK:    6.06 KCAL/MOL
REMARK 927      BINDING AFFINITY PREDICTED BY RF-SCORE:    0.00 PKD
ROOT
HETATM    1  C   UNL     1     -11.745  16.184  66.851  1.00  0.00     0.774 C  
HETATM    2  O   UNL     1     -11.139  16.473  68.114  1.00  0.00    -0.354 OA 
ENDROOT
BRANCH   2   3
HETATM    3  C   UNL     1     -10.139  17.388  68.036  1.00  0.00    -0.326 C  
HETATM    4  O   UNL     1     -10.306  18.598  67.968  1.00  0.00    -0.366 OA 
BRANCH   3   5
HETATM    5  C   UNL     1      -8.814  16.715  68.001  1.00  0.00    -0.206 C  
HETATM    6  C   UNL     1      -7.882  17.039  67.066  1.00  0.00    -0.191 C  
HETATM    7  N   UNL     1      -6.675  16.356  67.037  1.00  0.00    -0.202 NA 
HETATM    8  C   UNL     1      -8.001  18.090  65.992  1.00  0.00    -0.156 C  
HETATM    9  C   UNL     1      -6.401  15.217  67.763  1.00  0.00    -0.160 C  
HETATM   10  C   UNL     1      -5.142  14.474  67.383  1.00  0.00     0.398 C  
HETATM   11  C   UNL     1      -7.261  14.820  68.727  1.00  0.00    -0.125 C  
HETATM   12  C   UNL     1      -8.539  15.609  69.031  1.00  0.00    -0.232 C  
BRANCH  11  13
HETATM   13  C   UNL     1      -7.046  13.520  69.396  1.00  0.00     0.112 C  
HETATM   14  O   UNL     1      -6.818  13.403  70.591  1.00  0.00     0.529 OA 
BRANCH  13  15
HETATM   15  O   UNL     1      -7.110  12.494  68.506  1.00  0.00    -0.094 OA 
BRANCH  15  16
HETATM   16  C   UNL     1      -7.797  11.337  69.028  1.00  0.00    -0.079 C  
BRANCH  16  17
HETATM   17  C   UNL     1      -6.765  10.269  69.426  1.00  0.00    -0.063 C  
BRANCH  17  18
HETATM   18  N   UNL     1      -7.303   8.967  69.857  1.00  0.00    -0.055 NA 
HETATM   19  C   UNL     1      -9.747   9.625  70.213  1.00  0.00    -0.259 C  
HETATM   20  C   UNL     1      -8.420   9.098  70.819  1.00  0.00    -0.212 C  
HETATM   21  N   UNL     1     -10.252   8.824  69.070  1.00  0.00    -0.203 NA 
HETATM   22  C   UNL     1      -7.789   8.225  68.665  1.00  0.00    -0.120 C  
HETATM   23  C   UNL     1      -9.139   8.731  68.088  1.00  0.00    -0.140 C  
BRANCH  21  24
HETATM   24  C   UNL     1     -10.740   7.479  69.504  1.00  0.00    -0.217 C  
BRANCH  24  25
HETATM   25  C   UNL     1     -10.367   6.351  68.526  1.00  0.00    -0.227 A  
HETATM   26  C   UNL     1      -9.540   5.297  68.962  1.00  0.00    -0.199 A  
HETATM   27  C   UNL     1     -10.859   6.298  67.212  1.00  0.00    -0.457 A  
HETATM   28  C   UNL     1      -9.213   4.237  68.111  1.00  0.00    -0.186 A  
HETATM   29  C   UNL     1      -9.692   4.218  66.805  1.00  0.00    -0.241 A  
HETATM   30  C   UNL     1     -10.512   5.248  66.355  1.00  0.00    -0.347 A  
ENDBRANCH  24  25
BRANCH  24  31
HETATM   31  C   UNL     1     -10.346   7.157  70.954  1.00  0.00    -0.214 A  
HETATM   32  C   UNL     1      -9.493   6.824  73.613  1.00  0.00    -0.204 A  
HETATM   33  C   UNL     1      -8.841   6.152  72.583  1.00  0.00    -0.123 A  
HETATM   34  C   UNL     1     -11.006   7.811  72.011  1.00  0.00    -0.305 A  
HETATM   35  C   UNL     1      -9.260   6.320  71.262  1.00  0.00    -0.157 A  
HETATM   36  C   UNL     1     -10.575   7.652  73.328  1.00  0.00    -0.411 A  
ENDBRANCH  24  31
ENDBRANCH  21  24
ENDBRANCH  17  18
ENDBRANCH  16  17
ENDBRANCH  15  16
ENDBRANCH  13  15
ENDBRANCH  11  13
BRANCH  12  37
HETATM   37  C   UNL     1      -9.733  14.658  69.217  1.00  0.00    -0.050 A  
HETATM   38  C   UNL     1     -11.007  12.701  68.541  1.00  0.00    -0.292 A  
HETATM   39  O   UNL     1     -12.143  14.881  72.589  1.00  0.00    -0.323 OA 
HETATM   40  C   UNL     1     -10.538  14.767  70.369  1.00  0.00     0.122 A  
HETATM   41  O   UNL     1     -13.288  13.116  71.969  1.00  0.00    -0.451 OA 
HETATM   42  C   UNL     1     -11.564  13.841  70.596  1.00  0.00     0.062 A  
HETATM   43  C   UNL     1     -11.795  12.801  69.689  1.00  0.00    -0.384 A  
HETATM   44  N   UNL     1     -12.390  13.954  71.806  1.00  0.00    -0.197 N  
HETATM   45  C   UNL     1      -9.992  13.629  68.300  1.00  0.00    -0.236 A  
ENDBRANCH  12  37
ENDBRANCH   3   5
ENDBRANCH   2   3
TORSDOF 11
ENDMDL
MODEL      221
REMARK 921   NORMALIZED FREE ENERGY PREDICTED BY IDOCK:    0.74 KCAL/MOL
REMARK 922        TOTAL FREE ENERGY PREDICTED BY IDOCK:   -0.65 KCAL/MOL
REMARK 923 INTER-LIGAND FREE ENERGY PREDICTED BY IDOCK:   -7.68 KCAL/MOL
REMARK 924 INTRA-LIGAND FREE ENERGY PREDICTED BY IDOCK:    7.03 KCAL/MOL
REMARK 927      BINDING AFFINITY PREDICTED BY RF-SCORE:    0.00 PKD
ROOT
HETATM    1  C   UNL     1      -9.809   9.073  71.947  1.00  0.00    -0.213 C  
HETATM    2  O   UNL     1      -9.787   8.517  70.630  1.00  0.00    -0.177 OA 
ENDROOT
BRANCH   2   3
HETATM    3  C   UNL     1      -9.079   9.261  69.743  1.00  0.00    -0.177 C  
HETATM    4  O   UNL     1      -7.891   9.108  69.495  1.00  0.00    -0.076 OA 
BRANCH   3   5
HETATM    5  C   UNL     1      -9.936  10.318  69.144  1.00  0.00    -0.235 C  
HETATM    6  C   UNL     1     -11.252  10.098  68.886  1.00  0.00    -0.170 C  
HETATM    7  N   UNL     1     -12.008  11.094  68.284  1.00  0.00    -0.619 NA 
HETATM    8  C   UNL     1     -12.036   8.843  69.172  1.00  0.00     1.575 C  
HETATM    9  C   UNL     1     -11.490  12.244  67.729  1.00  0.00    -0.329 C  
HETATM   10  C   UNL     1     -12.439  13.059  66.882  1.00  0.00     0.168 C  
HETATM   11  C   UNL     1     -10.192  12.559  67.941  1.00  0.00    -0.219 C  
HETATM   12  C   UNL     1      -9.281  11.661  68.786  1.00  0.00    -0.042 C  
BRANCH  11  13
HETATM   13  C   UNL     1      -9.600  13.706  67.222  1.00  0.00    -0.238 C  
HETATM   14  O   UNL     1      -8.400  13.837  67.028  1.00  0.00    -0.176 OA 
BRANCH  13  15
HETATM   15  O   UNL     1     -10.557  14.590  66.837  1.00  0.00    -0.274 OA 
BRANCH  15  16
HETATM   16  C   UNL     1     -10.799  15.622  67.816  1.00  0.00    -0.307 C  
BRANCH  16  17
HETATM   17  C   UNL     1     -10.338  16.976  67.253  1.00  0.00    -0.311 C  
BRANCH  17  18
HETATM   18  N   UNL     1      -8.889  17.239  67.282  1.00  0.00    -0.219 NA 
HETATM   19  C   UNL     1      -8.881  19.628  66.372  1.00  0.00    -0.376 C  
HETATM   20  C   UNL     1      -8.448  18.149  66.200  1.00  0.00    -0.111 C  
HETATM   21  N   UNL     1      -8.451  20.240  67.655  1.00  0.00    -0.299 NA 
HETATM   22  C   UNL     1      -8.533  17.850  68.588  1.00  0.00    -0.266 C  
HETATM   23  C   UNL     1      -8.932  19.344  68.739  1.00  0.00    -0.349 C  
BRANCH  21  24
HETATM   24  C   UNL     1      -6.970  20.448  67.704  1.00  0.00    -0.304 C  
BRANCH  24  25
HETATM   25  C   UNL     1      -6.315  19.859  68.965  1.00  0.00    -0.345 A  
HETATM   26  C   UNL     1      -6.012  20.703  70.052  1.00  0.00    -0.204 A  
HETATM   27  C   UNL     1      -6.044  18.488  69.105  1.00  0.00    -0.247 A  
HETATM   28  C   UNL     1      -5.452  20.195  71.227  1.00  0.00    -0.363 A  
HETATM   29  C   UNL     1      -5.169  18.836  71.334  1.00  0.00    -0.286 A  
HETATM   30  C   UNL     1      -5.463  17.984  70.273  1.00  0.00    -0.253 A  
ENDBRANCH  24  25
BRANCH  24  31
HETATM   31  C   UNL     1      -6.275  19.995  66.411  1.00  0.00    -0.191 A  
HETATM   32  C   UNL     1      -5.265  19.092  63.946  1.00  0.00    -0.281 A  
HETATM   33  C   UNL     1      -5.125  18.305  65.086  1.00  0.00    -0.189 A  
HETATM   34  C   UNL     1      -6.388  20.785  65.252  1.00  0.00    -0.267 A  
HETATM   35  C   UNL     1      -5.631  18.750  66.309  1.00  0.00    -0.181 A  
HETATM   36  C   UNL     1      -5.895  20.332  64.028  1.00  0.00    -0.314 A  
ENDBRANCH  24  31
ENDBRANCH  21  24
ENDBRANCH  17  18
ENDBRANCH  16  17
ENDBRANCH  15  16
ENDBRANCH  13  15
ENDBRANCH  11  13
BRANCH  12  37
HETATM   37  C   UNL     1      -7.910  11.492  68.111  1.00  0.00    -0.128 A  
HETATM   38  C   UNL     1      -5.487  11.690  68.158  1.00  0.00    -0.043 A  
HETATM   39  O   UNL     1      -7.525   9.425  64.532  1.00  0.00    -0.099 OA 
HETATM   40  C   UNL     1      -7.815  10.793  66.891  1.00  0.00    -0.130 A  
HETATM   41  O   UNL     1      -5.340   9.610  64.583  1.00  0.00    -0.055 OA 
HETATM   42  C   UNL     1      -6.560  10.547  66.321  1.00  0.00    -0.118 A  
HETATM   43  C   UNL     1      -5.392  10.985  66.956  1.00  0.00    -0.059 A  
HETATM   44  N   UNL     1      -6.469   9.806  65.054  1.00  0.00    -0.091 N  
HETATM   45  C   UNL     1      -6.735  11.952  68.725  1.00  0.00    -0.088 A  
ENDBRANCH  12  37
ENDBRANCH   3   5
ENDBRANCH   2   3
TORSDOF 11
ENDMDL
MODEL      222
REMARK 921   NORMALIZED FREE ENERGY PREDICTED BY IDOCK:    0.80 KCAL/MOL
REMARK 922        TOTAL FREE ENERGY PREDICTED BY IDOCK:   -0.54 KCAL/MOL
REMARK 923 INTER-LIGAND FREE ENERGY PREDICTED BY IDOCK:   -7.41 KCAL/MOL
REMARK 924 INTRA-LIGAND FREE ENERGY PREDICTED BY IDOCK:    6.86 KCAL/MOL
REMARK 927      BINDING AFFINITY PREDICTED BY RF-SCORE:    0.00 PKD
ROOT
HETATM    1  C   UNL     1     -13.926  14.899  70.927  1.00  0.00    -0.085 C  
HETATM    2  O   UNL     1     -12.552  14.563  70.716  1.00  0.00    -0.314 OA 
ENDROOT
BRANCH   2   3
HETATM    3  C   UNL     1     -12.264  14.262  69.424  1.00  0.00    -0.278 C  
HETATM    4  O   UNL     1     -12.290  15.062  68.498  1.00  0.00    -0.086 OA 
BRANCH   3   5
HETATM    5  C   UNL     1     -11.954  12.815  69.280  1.00  0.00    -0.300 C  
HETATM    6  C   UNL     1     -12.137  11.948  70.311  1.00  0.00    -0.325 C  
HETATM    7  N   UNL     1     -11.793  10.613  70.152  1.00  0.00    -0.308 NA 
HETATM    8  C   UNL     1     -12.682  12.266  71.680  1.00  0.00    -0.309 C  
HETATM    9  C   UNL     1     -11.080  10.109  69.085  1.00  0.00    -0.212 C  
HETATM   10  C   UNL     1     -10.570   8.695  69.236  1.00  0.00    -0.204 C  
HETATM   11  C   UNL     1     -10.859  10.890  68.004  1.00  0.00    -0.293 C  
HETATM   12  C   UNL     1     -11.381  12.330  67.940  1.00  0.00    -0.356 C  
BRANCH  11  13
HETATM   13  C   UNL     1      -9.968  10.403  66.931  1.00  0.00    -0.206 C  
HETATM   14  O   UNL     1     -10.324  10.255  65.771  1.00  0.00    -0.239 OA 
BRANCH  13  15
HETATM   15  O   UNL     1      -8.729  10.120  67.413  1.00  0.00    -0.125 OA 
BRANCH  15  16
HETATM   16  C   UNL     1      -8.449   8.706  67.456  1.00  0.00    -0.124 C  
BRANCH  16  17
HETATM   17  C   UNL     1      -8.991   8.040  66.181  1.00  0.00    -0.175 C  
BRANCH  17  18
HETATM   18  N   UNL     1      -8.741   6.596  66.039  1.00  0.00    -0.148 NA 
HETATM   19  C   UNL     1      -8.126   6.041  68.458  1.00  0.00    -0.107 C  
HETATM   20  C   UNL     1      -7.700   6.099  66.967  1.00  0.00    -0.100 C  
HETATM   21  N   UNL     1      -9.349   5.236  68.708  1.00  0.00    -0.116 NA 
HETATM   22  C   UNL     1     -10.002   5.857  66.304  1.00  0.00    -0.058 C  
HETATM   23  C   UNL     1     -10.402   5.767  67.803  1.00  0.00    -0.213 C  
BRANCH  21  24
HETATM   24  C   UNL     1      -9.105   3.775  68.502  1.00  0.00    -0.142 C  
BRANCH  24  25
HETATM   25  C   UNL     1      -8.089   3.479  67.386  1.00  0.00    -0.082 A  
HETATM   26  C   UNL     1      -8.548   3.177  66.088  1.00  0.00    -0.119 A  
HETATM   27  C   UNL     1      -6.701   3.542  67.591  1.00  0.00    -0.042 A  
HETATM   28  C   UNL     1      -7.652   2.941  65.042  1.00  0.00    -0.076 A  
HETATM   29  C   UNL     1      -6.280   2.985  65.275  1.00  0.00    -0.027 A  
HETATM   30  C   UNL     1      -5.806   3.283  66.549  1.00  0.00    -0.023 A  
ENDBRANCH  24  25
BRANCH  24  31
HETATM   31  C   UNL     1      -8.768   3.050  69.814  1.00  0.00    -0.130 A  
HETATM   32  C   UNL     1      -8.363   1.878  72.339  1.00  0.00    -0.054 A  
HETATM   33  C   UNL     1      -7.486   2.854  71.876  1.00  0.00    -0.047 A  
HETATM   34  C   UNL     1      -9.632   2.047  70.291  1.00  0.00    -0.091 A  
HETATM   35  C   UNL     1      -7.689   3.440  70.625  1.00  0.00    -0.040 A  
HETATM   36  C   UNL     1      -9.435   1.473  71.548  1.00  0.00    -0.180 A  
ENDBRANCH  24  31
ENDBRANCH  21  24
ENDBRANCH  17  18
ENDBRANCH  16  17
ENDBRANCH  15  16
ENDBRANCH  13  15
ENDBRANCH  11  13
BRANCH  12  37
HETATM   37  C   UNL     1     -10.304  13.272  67.377  1.00  0.00    -0.243 A  
HETATM   38  C   UNL     1      -9.537  14.843  65.688  1.00  0.00    -0.258 A  
HETATM   39  O   UNL     1      -6.941  14.251  69.605  1.00  0.00    -0.122 OA 
HETATM   40  C   UNL     1      -9.169  13.577  68.156  1.00  0.00    -0.208 A  
HETATM   41  O   UNL     1      -6.257  15.665  68.073  1.00  0.00    -0.114 OA 
HETATM   42  C   UNL     1      -8.235  14.512  67.694  1.00  0.00    -0.177 A  
HETATM   43  C   UNL     1      -8.420  15.155  66.465  1.00  0.00    -0.149 A  
HETATM   44  N   UNL     1      -7.060  14.833  68.518  1.00  0.00    -0.104 N  
HETATM   45  C   UNL     1     -10.466  13.901  66.134  1.00  0.00    -0.297 A  
ENDBRANCH  12  37
ENDBRANCH   3   5
ENDBRANCH   2   3
TORSDOF 11
ENDMDL
MODEL      223
REMARK 921   NORMALIZED FREE ENERGY PREDICTED BY IDOCK:    0.87 KCAL/MOL
REMARK 922        TOTAL FREE ENERGY PREDICTED BY IDOCK:   -0.43 KCAL/MOL
REMARK 923 INTER-LIGAND FREE ENERGY PREDICTED BY IDOCK:   -2.69 KCAL/MOL
REMARK 924 INTRA-LIGAND FREE ENERGY PREDICTED BY IDOCK:    2.26 KCAL/MOL
REMARK 927      BINDING AFFINITY PREDICTED BY RF-SCORE:    0.00 PKD
ROOT
HETATM    1  C   UNL     1     -10.993   7.509  72.588  1.00  0.00    -0.336 C  
HETATM    2  O   UNL     1      -9.996   8.004  71.690  1.00  0.00    -0.172 OA 
ENDROOT
BRANCH   2   3
HETATM    3  C   UNL     1      -8.983   7.126  71.474  1.00  0.00    -0.134 C  
HETATM    4  O   UNL     1      -8.941   5.986  71.917  1.00  0.00    -0.138 OA 
BRANCH   3   5
HETATM    5  C   UNL     1      -7.910   7.754  70.658  1.00  0.00    -0.096 C  
HETATM    6  C   UNL     1      -7.216   8.830  71.113  1.00  0.00    -0.093 C  
HETATM    7  N   UNL     1      -6.254   9.416  70.304  1.00  0.00    -0.050 NA 
HETATM    8  C   UNL     1      -7.372   9.514  72.448  1.00  0.00     1.287 C  
HETATM    9  C   UNL     1      -6.067   9.124  68.970  1.00  0.00    -0.043 C  
HETATM   10  C   UNL     1      -5.165  10.062  68.203  1.00  0.00    -0.035 C  
HETATM   11  C   UNL     1      -6.703   8.062  68.427  1.00  0.00    -0.067 C  
HETATM   12  C   UNL     1      -7.632   7.174  69.263  1.00  0.00    -0.102 C  
BRANCH  11  13
HETATM   13  C   UNL     1      -6.624   7.841  66.968  1.00  0.00    -0.063 C  
HETATM   14  O   UNL     1      -5.855   7.048  66.444  1.00  0.00    -0.032 OA 
BRANCH  13  15
HETATM   15  O   UNL     1      -7.490   8.649  66.302  1.00  0.00    -0.087 OA 
BRANCH  15  16
HETATM   16  C   UNL     1      -7.369  10.037  66.677  1.00  0.00    -0.103 C  
BRANCH  16  17
HETATM   17  C   UNL     1      -8.716  10.536  67.225  1.00  0.00    -0.126 C  
BRANCH  17  18
HETATM   18  N   UNL     1      -8.654  11.561  68.281  1.00  0.00    -0.155 NA 
HETATM   19  C   UNL     1      -7.909  13.561  66.873  1.00  0.00     0.281 C  
HETATM   20  C   UNL     1      -7.606  12.577  68.033  1.00  0.00    -0.127 C  
HETATM   21  N   UNL     1      -9.194  14.291  67.017  1.00  0.00    -0.229 NA 
HETATM   22  C   UNL     1      -9.968  12.249  68.367  1.00  0.00    -0.209 C  
HETATM   23  C   UNL     1     -10.249  13.264  67.224  1.00  0.00    -0.240 C  
BRANCH  21  24
HETATM   24  C   UNL     1      -9.146  15.289  68.131  1.00  0.00    -0.174 C  
BRANCH  24  25
HETATM   25  C   UNL     1      -7.877  15.176  68.994  1.00  0.00    -0.181 A  
HETATM   26  C   UNL     1      -7.965  14.643  70.296  1.00  0.00     0.921 A  
HETATM   27  C   UNL     1      -6.606  15.540  68.520  1.00  0.00    -0.109 A  
HETATM   28  C   UNL     1      -6.827  14.492  71.092  1.00  0.00     0.907 A  
HETATM   29  C   UNL     1      -5.581  14.882  70.611  1.00  0.00    -0.142 A  
HETATM   30  C   UNL     1      -5.472  15.409  69.326  1.00  0.00    -0.096 A  
ENDBRANCH  24  25
BRANCH  24  31
HETATM   31  C   UNL     1      -9.400  16.722  67.640  1.00  0.00    -0.228 A  
HETATM   32  C   UNL     1      -9.602  19.412  66.841  1.00  0.00    -0.419 A  
HETATM   33  C   UNL     1     -10.270  18.972  67.980  1.00  0.00    -0.476 A  
HETATM   34  C   UNL     1      -8.750  17.180  66.480  1.00  0.00    -0.293 A  
HETATM   35  C   UNL     1     -10.167  17.638  68.380  1.00  0.00    -0.381 A  
HETATM   36  C   UNL     1      -8.843  18.517  66.090  1.00  0.00    -0.128 A  
ENDBRANCH  24  31
ENDBRANCH  21  24
ENDBRANCH  17  18
ENDBRANCH  16  17
ENDBRANCH  15  16
ENDBRANCH  13  15
ENDBRANCH  11  13
BRANCH  12  37
HETATM   37  C   UNL     1      -8.919   6.852  68.486  1.00  0.00    -0.122 A  
HETATM   38  C   UNL     1     -11.126   7.485  67.686  1.00  0.00     0.056 A  
HETATM   39  O   UNL     1      -9.181   3.473  66.089  1.00  0.00    -0.153 OA 
HETATM   40  C   UNL     1      -8.978   5.691  67.688  1.00  0.00    -0.107 A  
HETATM   41  O   UNL     1     -11.173   4.052  65.376  1.00  0.00     0.335 OA 
HETATM   42  C   UNL     1     -10.107   5.442  66.898  1.00  0.00    -0.209 A  
HETATM   43  C   UNL     1     -11.179   6.342  66.886  1.00  0.00    -0.208 A  
HETATM   44  N   UNL     1     -10.156   4.236  66.060  1.00  0.00    -0.221 N  
HETATM   45  C   UNL     1     -10.010   7.733  68.488  1.00  0.00    -0.193 A  
ENDBRANCH  12  37
ENDBRANCH   3   5
ENDBRANCH   2   3
TORSDOF 11
ENDMDL
MODEL      224
REMARK 921   NORMALIZED FREE ENERGY PREDICTED BY IDOCK:    1.03 KCAL/MOL
REMARK 922        TOTAL FREE ENERGY PREDICTED BY IDOCK:   -0.16 KCAL/MOL
REMARK 923 INTER-LIGAND FREE ENERGY PREDICTED BY IDOCK:   -7.13 KCAL/MOL
REMARK 924 INTRA-LIGAND FREE ENERGY PREDICTED BY IDOCK:    6.96 KCAL/MOL
REMARK 927      BINDING AFFINITY PREDICTED BY RF-SCORE:    0.00 PKD
ROOT
HETATM    1  C   UNL     1     -11.073   8.872  69.596  1.00  0.00    -0.046 C  
HETATM    2  O   UNL     1      -9.689   8.528  69.488  1.00  0.00    -0.172 OA 
ENDROOT
BRANCH   2   3
HETATM    3  C   UNL     1      -9.418   7.702  68.446  1.00  0.00    -0.150 C  
HETATM    4  O   UNL     1      -9.636   6.497  68.436  1.00  0.00    -0.124 OA 
BRANCH   3   5
HETATM    5  C   UNL     1      -8.782   8.454  67.332  1.00  0.00    -0.136 C  
HETATM    6  C   UNL     1      -8.844   8.004  66.051  1.00  0.00    -0.162 C  
HETATM    7  N   UNL     1      -8.198   8.709  65.046  1.00  0.00    -0.149 NA 
HETATM    8  C   UNL     1      -9.548   6.767  65.556  1.00  0.00     0.661 C  
HETATM    9  C   UNL     1      -7.312   9.744  65.259  1.00  0.00    -0.120 C  
HETATM   10  C   UNL     1      -6.511  10.190  64.058  1.00  0.00    -0.119 C  
HETATM   11  C   UNL     1      -7.190  10.270  66.498  1.00  0.00    -0.109 C  
HETATM   12  C   UNL     1      -8.015   9.739  67.676  1.00  0.00    -0.105 C  
BRANCH  11  13
HETATM   13  C   UNL     1      -6.133  11.270  66.757  1.00  0.00    -0.131 C  
HETATM   14  O   UNL     1      -5.146  11.409  66.049  1.00  0.00    -0.248 OA 
BRANCH  13  15
HETATM   15  O   UNL     1      -6.396  11.982  67.885  1.00  0.00    -0.060 OA 
BRANCH  15  16
HETATM   16  C   UNL     1      -5.966  13.356  67.798  1.00  0.00    -0.139 C  
BRANCH  16  17
HETATM   17  C   UNL     1      -7.143  14.229  67.333  1.00  0.00    -0.084 C  
BRANCH  17  18
HETATM   18  N   UNL     1      -8.470  13.589  67.324  1.00  0.00    -0.196 NA 
HETATM   19  C   UNL     1      -9.554  14.854  69.263  1.00  0.00    -0.128 C  
HETATM   20  C   UNL     1      -9.074  13.502  68.673  1.00  0.00    -0.008 C  
HETATM   21  N   UNL     1     -10.520  15.583  68.402  1.00  0.00    -0.235 NA 
HETATM   22  C   UNL     1      -9.380  14.370  66.448  1.00  0.00    -0.258 C  
HETATM   23  C   UNL     1      -9.890  15.703  67.061  1.00  0.00    -0.233 C  
BRANCH  21  24
HETATM   24  C   UNL     1     -11.847  14.895  68.347  1.00  0.00    -0.278 C  
BRANCH  24  25
HETATM   25  C   UNL     1     -12.033  14.032  67.087  1.00  0.00    -0.465 A  
HETATM   26  C   UNL     1     -11.527  12.716  67.063  1.00  0.00    -0.406 A  
HETATM   27  C   UNL     1     -12.736  14.484  65.959  1.00  0.00    -0.000 A  
HETATM   28  C   UNL     1     -11.712  11.893  65.950  1.00  0.00    -0.208 A  
HETATM   29  C   UNL     1     -12.391  12.370  64.833  1.00  0.00    -0.475 A  
HETATM   30  C   UNL     1     -12.900  13.666  64.837  1.00  0.00    -0.256 A  
ENDBRANCH  24  25
BRANCH  24  31
HETATM   31  C   UNL     1     -12.159  14.126  69.640  1.00  0.00    -0.400 A  
HETATM   32  C   UNL     1     -12.988  12.660  71.893  1.00  0.00    -0.402 A  
HETATM   33  C   UNL     1     -12.963  14.051  71.938  1.00  0.00    -0.444 A  
HETATM   34  C   UNL     1     -12.169  12.719  69.622  1.00  0.00    -0.188 A  
HETATM   35  C   UNL     1     -12.556  14.780  70.819  1.00  0.00    -0.412 A  
HETATM   36  C   UNL     1     -12.590  11.993  70.737  1.00  0.00    -0.312 A  
ENDBRANCH  24  31
ENDBRANCH  21  24
ENDBRANCH  17  18
ENDBRANCH  16  17
ENDBRANCH  15  16
ENDBRANCH  13  15
ENDBRANCH  11  13
BRANCH  12  37
HETATM   37  C   UNL     1      -7.137   9.592  68.930  1.00  0.00    -0.067 A  
HETATM   38  C   UNL     1      -6.020  10.560  70.860  1.00  0.00    -0.024 A  
HETATM   39  O   UNL     1      -6.150   5.846  70.422  1.00  0.00    -0.027 OA 
HETATM   40  C   UNL     1      -6.813   8.305  69.405  1.00  0.00    -0.043 A  
HETATM   41  O   UNL     1      -5.143   6.730  72.159  1.00  0.00    -0.027 OA 
HETATM   42  C   UNL     1      -6.099   8.161  70.601  1.00  0.00    -0.032 A  
HETATM   43  C   UNL     1      -5.710   9.285  71.337  1.00  0.00    -0.067 A  
HETATM   44  N   UNL     1      -5.776   6.815  71.096  1.00  0.00    -0.027 N  
HETATM   45  C   UNL     1      -6.718  10.713  69.660  1.00  0.00    -0.116 A  
ENDBRANCH  12  37
ENDBRANCH   3   5
ENDBRANCH   2   3
TORSDOF 11
ENDMDL
MODEL      225
REMARK 921   NORMALIZED FREE ENERGY PREDICTED BY IDOCK:    1.14 KCAL/MOL
REMARK 922        TOTAL FREE ENERGY PREDICTED BY IDOCK:    0.02 KCAL/MOL
REMARK 923 INTER-LIGAND FREE ENERGY PREDICTED BY IDOCK:   -8.21 KCAL/MOL
REMARK 924 INTRA-LIGAND FREE ENERGY PREDICTED BY IDOCK:    8.23 KCAL/MOL
REMARK 927      BINDING AFFINITY PREDICTED BY RF-SCORE:    0.00 PKD
ROOT
HETATM    1  C   UNL     1     -10.440   6.810  67.589  1.00  0.00    -0.229 C  
HETATM    2  O   UNL     1     -11.140   7.349  68.713  1.00  0.00    -0.024 OA 
ENDROOT
BRANCH   2   3
HETATM    3  C   UNL     1     -10.342   8.053  69.556  1.00  0.00    -0.221 C  
HETATM    4  O   UNL     1      -9.196   7.743  69.853  1.00  0.00    -0.147 OA 
BRANCH   3   5
HETATM    5  C   UNL     1     -11.066   9.231  70.103  1.00  0.00    -0.260 C  
HETATM    6  C   UNL     1     -12.118   9.082  70.950  1.00  0.00    -0.198 C  
HETATM    7  N   UNL     1     -12.797  10.203  71.403  1.00  0.00    -0.392 NA 
HETATM    8  C   UNL     1     -12.681   7.787  71.480  1.00  0.00    -0.355 C  
HETATM    9  C   UNL     1     -12.624  11.478  70.906  1.00  0.00    -0.341 C  
HETATM   10  C   UNL     1     -13.649  12.502  71.334  1.00  0.00     0.330 C  
HETATM   11  C   UNL     1     -11.595  11.731  70.067  1.00  0.00    -0.318 C  
HETATM   12  C   UNL     1     -10.615  10.628  69.651  1.00  0.00    -0.260 C  
BRANCH  11  13
HETATM   13  C   UNL     1     -11.502  13.054  69.417  1.00  0.00    -0.261 C  
HETATM   14  O   UNL     1     -11.185  13.213  68.247  1.00  0.00    -0.244 OA 
BRANCH  13  15
HETATM   15  O   UNL     1     -11.787  14.053  70.294  1.00  0.00    -0.299 OA 
BRANCH  15  16
HETATM   16  C   UNL     1     -10.669  14.400  71.136  1.00  0.00     1.358 C  
BRANCH  16  17
HETATM   17  C   UNL     1      -9.913  15.587  70.516  1.00  0.00     0.397 C  
BRANCH  17  18
HETATM   18  N   UNL     1     -10.140  15.829  69.081  1.00  0.00    -0.222 NA 
HETATM   19  C   UNL     1      -9.808  18.364  69.030  1.00  0.00    -0.260 C  
HETATM   20  C   UNL     1     -10.750  17.151  68.811  1.00  0.00    -0.289 C  
HETATM   21  N   UNL     1      -8.547  18.301  68.247  1.00  0.00    -0.279 NA 
HETATM   22  C   UNL     1      -8.841  15.753  68.364  1.00  0.00    -0.185 C  
HETATM   23  C   UNL     1      -7.919  16.989  68.554  1.00  0.00    -0.249 C  
BRANCH  21  24
HETATM   24  C   UNL     1      -8.791  18.486  66.783  1.00  0.00    -0.282 C  
BRANCH  24  25
HETATM   25  C   UNL     1      -7.519  18.850  65.997  1.00  0.00    -0.273 A  
HETATM   26  C   UNL     1      -7.334  20.171  65.544  1.00  0.00    -0.244 A  
HETATM   27  C   UNL     1      -6.495  17.922  65.746  1.00  0.00    -0.263 A  
HETATM   28  C   UNL     1      -6.174  20.544  64.860  1.00  0.00    -0.319 A  
HETATM   29  C   UNL     1      -5.183  19.602  64.601  1.00  0.00    -0.201 A  
HETATM   30  C   UNL     1      -5.345  18.291  65.042  1.00  0.00    -0.146 A  
ENDBRANCH  24  25
BRANCH  24  31
HETATM   31  C   UNL     1      -9.549  17.302  66.165  1.00  0.00    -0.224 A  
HETATM   32  C   UNL     1     -10.758  15.156  64.806  1.00  0.00    -0.344 A  
HETATM   33  C   UNL     1     -11.384  16.399  64.842  1.00  0.00    -0.103 A  
HETATM   34  C   UNL     1      -8.942  16.033  66.135  1.00  0.00    -0.381 A  
HETATM   35  C   UNL     1     -10.783  17.466  65.512  1.00  0.00    -0.081 A  
HETATM   36  C   UNL     1      -9.539  14.972  65.453  1.00  0.00    -0.112 A  
ENDBRANCH  24  31
ENDBRANCH  21  24
ENDBRANCH  17  18
ENDBRANCH  16  17
ENDBRANCH  15  16
ENDBRANCH  13  15
ENDBRANCH  11  13
BRANCH  12  37
HETATM   37  C   UNL     1     -10.325  10.701  68.143  1.00  0.00    -0.203 A  
HETATM   38  C   UNL     1      -9.005  10.055  66.206  1.00  0.00    -0.170 A  
HETATM   39  O   UNL     1     -12.998  12.512  65.535  1.00  0.00    -0.336 OA 
HETATM   40  C   UNL     1     -11.249  11.332  67.286  1.00  0.00    -0.364 A  
HETATM   41  O   UNL     1     -11.799  11.927  63.794  1.00  0.00    -0.441 OA 
HETATM   42  C   UNL     1     -11.043  11.315  65.901  1.00  0.00    -0.101 A  
HETATM   43  C   UNL     1      -9.928  10.669  65.356  1.00  0.00    -0.343 A  
HETATM   44  N   UNL     1     -12.019  11.964  65.013  1.00  0.00    -0.180 N  
HETATM   45  C   UNL     1      -9.195  10.081  67.589  1.00  0.00    -0.148 A  
ENDBRANCH  12  37
ENDBRANCH   3   5
ENDBRANCH   2   3
TORSDOF 11
ENDMDL
MODEL      226
REMARK 921   NORMALIZED FREE ENERGY PREDICTED BY IDOCK:    1.25 KCAL/MOL
REMARK 922        TOTAL FREE ENERGY PREDICTED BY IDOCK:    0.19 KCAL/MOL
REMARK 923 INTER-LIGAND FREE ENERGY PREDICTED BY IDOCK:   -2.95 KCAL/MOL
REMARK 924 INTRA-LIGAND FREE ENERGY PREDICTED BY IDOCK:    3.14 KCAL/MOL
REMARK 927      BINDING AFFINITY PREDICTED BY RF-SCORE:    0.00 PKD
ROOT
HETATM    1  C   UNL     1     -12.296  13.601  62.633  1.00  0.00     1.710 C  
HETATM    2  O   UNL     1     -11.630  13.041  63.768  1.00  0.00    -0.424 OA 
ENDROOT
BRANCH   2   3
HETATM    3  C   UNL     1     -12.448  12.309  64.566  1.00  0.00    -0.377 C  
HETATM    4  O   UNL     1     -13.252  11.478  64.165  1.00  0.00    -0.111 OA 
BRANCH   3   5
HETATM    5  C   UNL     1     -12.264  12.685  65.992  1.00  0.00    -0.329 C  
HETATM    6  C   UNL     1     -12.513  13.949  66.426  1.00  0.00    -0.370 C  
HETATM    7  N   UNL     1     -12.285  14.273  67.756  1.00  0.00    -0.263 NA 
HETATM    8  C   UNL     1     -13.018  15.108  65.606  1.00  0.00     0.960 C  
HETATM    9  C   UNL     1     -11.627  13.466  68.658  1.00  0.00    -0.327 C  
HETATM   10  C   UNL     1     -11.238  14.111  69.967  1.00  0.00    -0.118 C  
HETATM   11  C   UNL     1     -11.347  12.186  68.325  1.00  0.00    -0.343 C  
HETATM   12  C   UNL     1     -11.745  11.611  66.960  1.00  0.00    -0.176 C  
BRANCH  11  13
HETATM   13  C   UNL     1     -10.509  11.371  69.228  1.00  0.00    -0.067 C  
HETATM   14  O   UNL     1     -10.894  10.946  70.308  1.00  0.00    -0.132 OA 
BRANCH  13  15
HETATM   15  O   UNL     1      -9.266  11.186  68.711  1.00  0.00    -0.180 OA 
BRANCH  15  16
HETATM   16  C   UNL     1      -8.305  12.146  69.197  1.00  0.00     0.494 C  
BRANCH  16  17
HETATM   17  C   UNL     1      -7.844  13.038  68.032  1.00  0.00    -0.146 C  
BRANCH  17  18
HETATM   18  N   UNL     1      -7.202  14.312  68.398  1.00  0.00    -0.104 NA 
HETATM   19  C   UNL     1      -7.837  15.700  66.347  1.00  0.00     0.206 C  
HETATM   20  C   UNL     1      -6.721  15.071  67.221  1.00  0.00     0.050 C  
HETATM   21  N   UNL     1      -8.757  16.596  67.092  1.00  0.00    -0.190 NA 
HETATM   22  C   UNL     1      -8.179  15.154  69.135  1.00  0.00    -0.214 C  
HETATM   23  C   UNL     1      -9.269  15.815  68.249  1.00  0.00    -0.188 C  
BRANCH  21  24
HETATM   24  C   UNL     1      -8.082  17.862  67.514  1.00  0.00    -0.225 C  
BRANCH  24  25
HETATM   25  C   UNL     1      -7.058  18.377  66.488  1.00  0.00    -0.251 A  
HETATM   26  C   UNL     1      -6.908  19.764  66.289  1.00  0.00    -0.236 A  
HETATM   27  C   UNL     1      -6.218  17.517  65.762  1.00  0.00    -0.028 A  
HETATM   28  C   UNL     1      -5.961  20.267  65.393  1.00  0.00    -0.243 A  
HETATM   29  C   UNL     1      -5.156  19.395  64.666  1.00  0.00    -0.204 A  
HETATM   30  C   UNL     1      -5.287  18.021  64.849  1.00  0.00     0.037 A  
ENDBRANCH  24  25
BRANCH  24  31
HETATM   31  C   UNL     1      -9.087  18.944  67.939  1.00  0.00    -0.334 A  
HETATM   32  C   UNL     1     -10.700  21.098  68.758  1.00  0.00     1.176 A  
HETATM   33  C   UNL     1     -10.458  20.039  69.628  1.00  0.00     0.290 A  
HETATM   34  C   UNL     1      -9.361  20.013  67.066  1.00  0.00    -0.510 A  
HETATM   35  C   UNL     1      -9.654  18.971  69.224  1.00  0.00    -0.170 A  
HETATM   36  C   UNL     1     -10.153  21.086  67.477  1.00  0.00     0.112 A  
ENDBRANCH  24  31
ENDBRANCH  21  24
ENDBRANCH  17  18
ENDBRANCH  16  17
ENDBRANCH  15  16
ENDBRANCH  13  15
ENDBRANCH  11  13
BRANCH  12  37
HETATM   37  C   UNL     1     -10.596  10.780  66.366  1.00  0.00    -0.266 A  
HETATM   38  C   UNL     1      -8.453  10.638  65.226  1.00  0.00    -0.152 A  
HETATM   39  O   UNL     1     -10.348   6.690  67.031  1.00  0.00    -0.205 OA 
HETATM   40  C   UNL     1     -10.547   9.391  66.603  1.00  0.00    -0.170 A  
HETATM   41  O   UNL     1      -8.416   6.573  65.999  1.00  0.00    -0.133 OA 
HETATM   42  C   UNL     1      -9.452   8.644  66.152  1.00  0.00    -0.240 A  
HETATM   43  C   UNL     1      -8.398   9.265  65.472  1.00  0.00    -0.139 A  
HETATM   44  N   UNL     1      -9.402   7.198  66.415  1.00  0.00    -0.166 N  
HETATM   45  C   UNL     1      -9.548  11.388  65.659  1.00  0.00    -0.258 A  
ENDBRANCH  12  37
ENDBRANCH   3   5
ENDBRANCH   2   3
TORSDOF 11
ENDMDL
MODEL      227
REMARK 921   NORMALIZED FREE ENERGY PREDICTED BY IDOCK:    1.28 KCAL/MOL
REMARK 922        TOTAL FREE ENERGY PREDICTED BY IDOCK:    0.25 KCAL/MOL
REMARK 923 INTER-LIGAND FREE ENERGY PREDICTED BY IDOCK:   -3.43 KCAL/MOL
REMARK 924 INTRA-LIGAND FREE ENERGY PREDICTED BY IDOCK:    3.68 KCAL/MOL
REMARK 927      BINDING AFFINITY PREDICTED BY RF-SCORE:    0.00 PKD
ROOT
HETATM    1  C   UNL     1     -12.229  17.597  67.559  1.00  0.00     3.265 C  
HETATM    2  O   UNL     1     -11.227  16.631  67.890  1.00  0.00    -0.263 OA 
ENDROOT
BRANCH   2   3
HETATM    3  C   UNL     1     -10.159  16.654  67.053  1.00  0.00    -0.281 C  
HETATM    4  O   UNL     1     -10.186  17.062  65.899  1.00  0.00    -0.439 OA 
BRANCH   3   5
HETATM    5  C   UNL     1      -8.960  16.076  67.715  1.00  0.00    -0.188 C  
HETATM    6  C   UNL     1      -7.885  16.847  68.026  1.00  0.00    -0.179 C  
HETATM    7  N   UNL     1      -6.767  16.262  68.602  1.00  0.00    -0.132 NA 
HETATM    8  C   UNL     1      -7.736  18.330  67.803  1.00  0.00    -0.239 C  
HETATM    9  C   UNL     1      -6.561  14.903  68.712  1.00  0.00    -0.087 C  
HETATM   10  C   UNL     1      -5.170  14.472  69.111  1.00  0.00    -0.082 C  
HETATM   11  C   UNL     1      -7.576  14.053  68.439  1.00  0.00    -0.129 C  
HETATM   12  C   UNL     1      -8.954  14.567  68.005  1.00  0.00    -0.180 C  
BRANCH  11  13
HETATM   13  C   UNL     1      -7.312  12.600  68.407  1.00  0.00    -0.118 C  
HETATM   14  O   UNL     1      -7.011  11.988  67.392  1.00  0.00    -0.114 OA 
BRANCH  13  15
HETATM   15  O   UNL     1      -7.474  12.045  69.637  1.00  0.00     0.293 OA 
BRANCH  15  16
HETATM   16  C   UNL     1      -6.223  11.731  70.284  1.00  0.00    -0.046 C  
BRANCH  16  17
HETATM   17  C   UNL     1      -6.332  10.356  70.964  1.00  0.00     0.180 C  
BRANCH  17  18
HETATM   18  N   UNL     1      -6.444   9.191  70.070  1.00  0.00    -0.041 NA 
HETATM   19  C   UNL     1      -6.106   7.322  71.780  1.00  0.00    -0.037 C  
HETATM   20  C   UNL     1      -5.607   8.051  70.505  1.00  0.00    -0.025 C  
HETATM   21  N   UNL     1      -7.501   6.823  71.687  1.00  0.00    -0.086 NA 
HETATM   22  C   UNL     1      -7.862   8.748  70.027  1.00  0.00    -0.094 C  
HETATM   23  C   UNL     1      -8.343   7.982  71.290  1.00  0.00    -0.117 C  
BRANCH  21  24
HETATM   24  C   UNL     1      -7.621   5.679  70.731  1.00  0.00    -0.091 C  
BRANCH  24  25
HETATM   25  C   UNL     1      -7.346   4.312  71.381  1.00  0.00    -0.051 A  
HETATM   26  C   UNL     1      -7.296   4.205  72.785  1.00  0.00    -0.072 A  
HETATM   27  C   UNL     1      -7.185   3.136  70.629  1.00  0.00    -0.033 A  
HETATM   28  C   UNL     1      -7.086   2.973  73.409  1.00  0.00    -0.041 A  
HETATM   29  C   UNL     1      -6.906   1.825  72.643  1.00  0.00    -0.019 A  
HETATM   30  C   UNL     1      -6.953   1.907  71.254  1.00  0.00    -0.031 A  
ENDBRANCH  24  25
BRANCH  24  31
HETATM   31  C   UNL     1      -8.946   5.706  69.953  1.00  0.00    -0.142 A  
HETATM   32  C   UNL     1     -11.278   6.002  68.409  1.00  0.00    -0.120 A  
HETATM   33  C   UNL     1     -11.299   6.305  69.767  1.00  0.00    -0.506 A  
HETATM   34  C   UNL     1      -8.950   5.383  68.584  1.00  0.00    -0.115 A  
HETATM   35  C   UNL     1     -10.141   6.164  70.534  1.00  0.00    -0.237 A  
HETATM   36  C   UNL     1     -10.105   5.540  67.817  1.00  0.00    -0.214 A  
ENDBRANCH  24  31
ENDBRANCH  21  24
ENDBRANCH  17  18
ENDBRANCH  16  17
ENDBRANCH  15  16
ENDBRANCH  13  15
ENDBRANCH  11  13
BRANCH  12  37
HETATM   37  C   UNL     1      -9.500  13.734  66.834  1.00  0.00    -0.265 A  
HETATM   38  C   UNL     1      -9.279  11.897  65.257  1.00  0.00     0.082 A  
HETATM   39  O   UNL     1     -13.401  14.216  65.500  1.00  0.00    -0.656 OA 
HETATM   40  C   UNL     1     -10.826  13.930  66.399  1.00  0.00    -0.291 A  
HETATM   41  O   UNL     1     -13.190  12.559  64.079  1.00  0.00    -0.656 OA 
HETATM   42  C   UNL     1     -11.364  13.106  65.402  1.00  0.00    -0.297 A  
HETATM   43  C   UNL     1     -10.597  12.082  64.836  1.00  0.00    -0.334 A  
HETATM   44  N   UNL     1     -12.753  13.308  64.964  1.00  0.00    -0.417 N  
HETATM   45  C   UNL     1      -8.730  12.723  66.240  1.00  0.00     0.219 A  
ENDBRANCH  12  37
ENDBRANCH   3   5
ENDBRANCH   2   3
TORSDOF 11
ENDMDL
MODEL      228
REMARK 921   NORMALIZED FREE ENERGY PREDICTED BY IDOCK:    1.48 KCAL/MOL
REMARK 922        TOTAL FREE ENERGY PREDICTED BY IDOCK:    0.58 KCAL/MOL
REMARK 923 INTER-LIGAND FREE ENERGY PREDICTED BY IDOCK:   -3.70 KCAL/MOL
REMARK 924 INTRA-LIGAND FREE ENERGY PREDICTED BY IDOCK:    4.27 KCAL/MOL
REMARK 927      BINDING AFFINITY PREDICTED BY RF-SCORE:    0.00 PKD
ROOT
HETATM    1  C   UNL     1     -12.453  14.125  71.283  1.00  0.00    -0.370 C  
HETATM    2  O   UNL     1     -12.716  14.143  69.877  1.00  0.00    -0.255 OA 
ENDROOT
BRANCH   2   3
HETATM    3  C   UNL     1     -12.089  15.155  69.225  1.00  0.00    -0.244 C  
HETATM    4  O   UNL     1     -12.650  15.989  68.527  1.00  0.00     0.588 OA 
BRANCH   3   5
HETATM    5  C   UNL     1     -10.619  15.087  69.441  1.00  0.00    -0.262 C  
HETATM    6  C   UNL     1     -10.073  15.331  70.661  1.00  0.00     0.418 C  
HETATM    7  N   UNL     1      -8.694  15.303  70.812  1.00  0.00     1.634 NA 
HETATM    8  C   UNL     1     -10.808  15.658  71.936  1.00  0.00     0.346 C  
HETATM    9  C   UNL     1      -7.793  15.243  69.771  1.00  0.00    -0.057 C  
HETATM   10  C   UNL     1      -6.348  15.503  70.128  1.00  0.00    -0.072 C  
HETATM   11  C   UNL     1      -8.237  14.990  68.520  1.00  0.00    -0.151 C  
HETATM   12  C   UNL     1      -9.727  14.770  68.231  1.00  0.00    -0.218 C  
BRANCH  11  13
HETATM   13  C   UNL     1      -7.294  15.079  67.387  1.00  0.00    -0.201 C  
HETATM   14  O   UNL     1      -7.160  16.077  66.694  1.00  0.00    -0.193 OA 
BRANCH  13  15
HETATM   15  O   UNL     1      -6.628  13.907  67.209  1.00  0.00    -0.263 OA 
BRANCH  15  16
HETATM   16  C   UNL     1      -7.468  12.748  67.390  1.00  0.00    -0.145 C  
BRANCH  16  17
HETATM   17  C   UNL     1      -6.614  11.476  67.267  1.00  0.00    -0.113 C  
BRANCH  17  18
HETATM   18  N   UNL     1      -7.028  10.505  66.239  1.00  0.00    -0.121 NA 
HETATM   19  C   UNL     1      -6.396   8.337  67.437  1.00  0.00    -0.057 C  
HETATM   20  C   UNL     1      -6.188   9.287  66.229  1.00  0.00    -0.064 C  
HETATM   21  N   UNL     1      -7.801   7.892  67.623  1.00  0.00    -0.120 NA 
HETATM   22  C   UNL     1      -8.437  10.106  66.489  1.00  0.00    -0.127 C  
HETATM   23  C   UNL     1      -8.635   9.122  67.675  1.00  0.00    -0.117 C  
BRANCH  21  24
HETATM   24  C   UNL     1      -8.237   6.955  66.542  1.00  0.00    -0.117 C  
BRANCH  24  25
HETATM   25  C   UNL     1      -7.286   6.938  65.333  1.00  0.00    -0.080 A  
HETATM   26  C   UNL     1      -7.638   7.638  64.161  1.00  0.00    -0.113 A  
HETATM   27  C   UNL     1      -6.043   6.286  65.358  1.00  0.00    -0.030 A  
HETATM   28  C   UNL     1      -6.781   7.675  63.058  1.00  0.00    -0.067 A  
HETATM   29  C   UNL     1      -5.563   7.001  63.097  1.00  0.00    -0.036 A  
HETATM   30  C   UNL     1      -5.196   6.305  64.246  1.00  0.00    -0.018 A  
ENDBRANCH  24  25
BRANCH  24  31
HETATM   31  C   UNL     1      -8.535   5.547  67.079  1.00  0.00    -0.110 A  
HETATM   32  C   UNL     1      -9.350   3.061  68.113  1.00  0.00    -0.254 A  
HETATM   33  C   UNL     1      -8.559   3.910  68.882  1.00  0.00    -0.115 A  
HETATM   34  C   UNL     1      -9.317   4.666  66.308  1.00  0.00    -0.151 A  
HETATM   35  C   UNL     1      -8.158   5.146  68.371  1.00  0.00    -0.086 A  
HETATM   36  C   UNL     1      -9.728   3.437  66.827  1.00  0.00     0.013 A  
ENDBRANCH  24  31
ENDBRANCH  21  24
ENDBRANCH  17  18
ENDBRANCH  16  17
ENDBRANCH  15  16
ENDBRANCH  13  15
ENDBRANCH  11  13
BRANCH  12  37
HETATM   37  C   UNL     1     -10.151  15.530  66.964  1.00  0.00    -0.254 A  
HETATM   38  C   UNL     1     -11.074  15.548  64.715  1.00  0.00    -0.421 A  
HETATM   39  O   UNL     1     -10.314  19.677  66.907  1.00  0.00    -0.401 OA 
HETATM   40  C   UNL     1     -10.186  16.939  66.975  1.00  0.00    -0.297 A  
HETATM   41  O   UNL     1     -11.145  19.683  64.877  1.00  0.00    -0.209 OA 
HETATM   42  C   UNL     1     -10.668  17.635  65.859  1.00  0.00    -0.113 A  
HETATM   43  C   UNL     1     -11.122  16.944  64.731  1.00  0.00     0.094 A  
HETATM   44  N   UNL     1     -10.713  19.105  65.884  1.00  0.00    -0.428 N  
HETATM   45  C   UNL     1     -10.582  14.847  65.817  1.00  0.00    -0.342 A  
ENDBRANCH  12  37
ENDBRANCH   3   5
ENDBRANCH   2   3
TORSDOF 11
ENDMDL
MODEL      229
REMARK 921   NORMALIZED FREE ENERGY PREDICTED BY IDOCK:    1.52 KCAL/MOL
REMARK 922        TOTAL FREE ENERGY PREDICTED BY IDOCK:    0.63 KCAL/MOL
REMARK 923 INTER-LIGAND FREE ENERGY PREDICTED BY IDOCK:   -0.15 KCAL/MOL
REMARK 924 INTRA-LIGAND FREE ENERGY PREDICTED BY IDOCK:    0.78 KCAL/MOL
REMARK 927      BINDING AFFINITY PREDICTED BY RF-SCORE:    0.00 PKD
ROOT
HETATM    1  C   UNL     1     -12.115  16.917  66.187  1.00  0.00     3.069 C  
HETATM    2  O   UNL     1     -11.684  16.915  67.551  1.00  0.00     0.461 OA 
ENDROOT
BRANCH   2   3
HETATM    3  C   UNL     1     -10.511  17.569  67.746  1.00  0.00    -0.381 C  
HETATM    4  O   UNL     1     -10.246  18.676  67.294  1.00  0.00    -0.336 OA 
BRANCH   3   5
HETATM    5  C   UNL     1      -9.574  16.740  68.548  1.00  0.00    -0.245 C  
HETATM    6  C   UNL     1      -9.989  16.088  69.666  1.00  0.00    -0.226 C  
HETATM    7  N   UNL     1      -9.075  15.361  70.414  1.00  0.00     0.664 NA 
HETATM    8  C   UNL     1     -11.384  16.061  70.236  1.00  0.00    -0.391 C  
HETATM    9  C   UNL     1      -7.708  15.399  70.235  1.00  0.00     0.623 C  
HETATM   10  C   UNL     1      -6.877  14.759  71.323  1.00  0.00     1.058 C  
HETATM   11  C   UNL     1      -7.198  16.012  69.144  1.00  0.00    -0.208 C  
HETATM   12  C   UNL     1      -8.106  16.671  68.100  1.00  0.00    -0.186 C  
BRANCH  11  13
HETATM   13  C   UNL     1      -5.734  16.186  69.032  1.00  0.00    -0.119 C  
HETATM   14  O   UNL     1      -5.163  17.251  69.222  1.00  0.00    -0.151 OA 
BRANCH  13  15
HETATM   15  O   UNL     1      -5.128  15.025  68.670  1.00  0.00    -0.087 OA 
BRANCH  15  16
HETATM   16  C   UNL     1      -5.388  14.657  67.299  1.00  0.00     0.628 C  
BRANCH  16  17
HETATM   17  C   UNL     1      -6.582  13.691  67.250  1.00  0.00     0.235 C  
BRANCH  17  18
HETATM   18  N   UNL     1      -6.644  12.671  68.311  1.00  0.00    -0.071 NA 
HETATM   19  C   UNL     1      -8.790  11.471  67.609  1.00  0.00    -0.152 C  
HETATM   20  C   UNL     1      -8.032  12.305  68.674  1.00  0.00    -0.050 C  
HETATM   21  N   UNL     1      -8.100  10.216  67.217  1.00  0.00    -0.113 NA 
HETATM   22  C   UNL     1      -5.938  11.448  67.850  1.00  0.00    -0.044 C  
HETATM   23  C   UNL     1      -6.720  10.595  66.813  1.00  0.00    -0.103 C  
BRANCH  21  24
HETATM   24  C   UNL     1      -8.112   9.206  68.321  1.00  0.00    -0.104 C  
BRANCH  24  25
HETATM   25  C   UNL     1      -9.417   9.210  69.134  1.00  0.00    -0.156 A  
HETATM   26  C   UNL     1      -9.420   8.701  70.449  1.00  0.00    -0.192 A  
HETATM   27  C   UNL     1     -10.615   9.750  68.638  1.00  0.00    -0.249 A  
HETATM   28  C   UNL     1     -10.579   8.724  71.229  1.00  0.00    -0.332 A  
HETATM   29  C   UNL     1     -11.762   9.242  70.708  1.00  0.00    -0.328 A  
HETATM   30  C   UNL     1     -11.780   9.752  69.413  1.00  0.00     0.169 A  
ENDBRANCH  24  25
BRANCH  24  31
HETATM   31  C   UNL     1      -7.727   7.802  67.829  1.00  0.00    -0.122 A  
HETATM   32  C   UNL     1      -7.276   5.141  67.035  1.00  0.00    -0.081 A  
HETATM   33  C   UNL     1      -6.627   5.654  68.155  1.00  0.00    -0.049 A  
HETATM   34  C   UNL     1      -8.358   7.273  66.688  1.00  0.00    -0.121 A  
HETATM   35  C   UNL     1      -6.854   6.973  68.553  1.00  0.00    -0.073 A  
HETATM   36  C   UNL     1      -8.140   5.950  66.301  1.00  0.00    -0.104 A  
ENDBRANCH  24  31
ENDBRANCH  21  24
ENDBRANCH  17  18
ENDBRANCH  16  17
ENDBRANCH  15  16
ENDBRANCH  13  15
ENDBRANCH  11  13
BRANCH  12  37
HETATM   37  C   UNL     1      -7.547  18.040  67.681  1.00  0.00    -0.219 A  
HETATM   38  C   UNL     1      -6.852  20.304  68.232  1.00  0.00    -0.320 A  
HETATM   39  O   UNL     1      -5.970  18.638  63.888  1.00  0.00    -0.209 OA 
HETATM   40  C   UNL     1      -7.028  18.212  66.381  1.00  0.00    -0.270 A  
HETATM   41  O   UNL     1      -5.349  20.679  64.395  1.00  0.00    -0.180 OA 
HETATM   42  C   UNL     1      -6.424  19.424  66.024  1.00  0.00    -0.207 A  
HETATM   43  C   UNL     1      -6.325  20.469  66.950  1.00  0.00    -0.276 A  
HETATM   44  N   UNL     1      -5.874  19.591  64.671  1.00  0.00    -0.237 N  
HETATM   45  C   UNL     1      -7.468  19.103  68.592  1.00  0.00    -0.370 A  
ENDBRANCH  12  37
ENDBRANCH   3   5
ENDBRANCH   2   3
TORSDOF 11
ENDMDL
MODEL      230
REMARK 921   NORMALIZED FREE ENERGY PREDICTED BY IDOCK:    1.66 KCAL/MOL
REMARK 922        TOTAL FREE ENERGY PREDICTED BY IDOCK:    0.86 KCAL/MOL
REMARK 923 INTER-LIGAND FREE ENERGY PREDICTED BY IDOCK:   -5.54 KCAL/MOL
REMARK 924 INTRA-LIGAND FREE ENERGY PREDICTED BY IDOCK:    6.40 KCAL/MOL
REMARK 927      BINDING AFFINITY PREDICTED BY RF-SCORE:    0.00 PKD
ROOT
HETATM    1  C   UNL     1     -14.324  15.830  70.958  1.00  0.00     0.759 C  
HETATM    2  O   UNL     1     -12.907  15.650  71.034  1.00  0.00    -0.467 OA 
ENDROOT
BRANCH   2   3
HETATM    3  C   UNL     1     -12.406  14.885  70.032  1.00  0.00    -0.312 C  
HETATM    4  O   UNL     1     -12.017  15.315  68.953  1.00  0.00    -0.322 OA 
BRANCH   3   5
HETATM    5  C   UNL     1     -12.433  13.447  70.406  1.00  0.00    -0.322 C  
HETATM    6  C   UNL     1     -12.672  13.054  71.685  1.00  0.00    -0.207 C  
HETATM    7  N   UNL     1     -12.644  11.705  72.004  1.00  0.00     0.013 NA 
HETATM    8  C   UNL     1     -12.967  13.942  72.867  1.00  0.00    -0.349 C  
HETATM    9  C   UNL     1     -12.190  10.710  71.165  1.00  0.00    -0.374 C  
HETATM   10  C   UNL     1     -11.980   9.353  71.794  1.00  0.00    -0.452 C  
HETATM   11  C   UNL     1     -11.937  10.998  69.868  1.00  0.00    -0.427 C  
HETATM   12  C   UNL     1     -12.142  12.411  69.309  1.00  0.00    -0.218 C  
BRANCH  11  13
HETATM   13  C   UNL     1     -11.307   9.973  69.010  1.00  0.00    -0.084 C  
HETATM   14  O   UNL     1     -11.564   9.832  67.823  1.00  0.00     0.102 OA 
BRANCH  13  15
HETATM   15  O   UNL     1     -10.438   9.206  69.720  1.00  0.00    -0.208 OA 
BRANCH  15  16
HETATM   16  C   UNL     1      -9.953   8.069  68.977  1.00  0.00    -0.185 C  
BRANCH  16  17
HETATM   17  C   UNL     1      -9.509   6.971  69.958  1.00  0.00    -0.161 C  
BRANCH  17  18
HETATM   18  N   UNL     1      -9.266   5.637  69.383  1.00  0.00    -0.120 NA 
HETATM   19  C   UNL     1     -10.225   6.013  67.043  1.00  0.00    -0.205 C  
HETATM   20  C   UNL     1     -10.291   5.246  68.389  1.00  0.00    -0.108 C  
HETATM   21  N   UNL     1      -8.908   5.931  66.362  1.00  0.00    -0.130 NA 
HETATM   22  C   UNL     1      -7.937   5.629  68.720  1.00  0.00    -0.097 C  
HETATM   23  C   UNL     1      -7.887   6.365  67.352  1.00  0.00    -0.105 C  
BRANCH  21  24
HETATM   24  C   UNL     1      -8.639   4.557  65.834  1.00  0.00    -0.115 C  
BRANCH  24  25
HETATM   25  C   UNL     1      -7.667   4.544  64.641  1.00  0.00    -0.081 A  
HETATM   26  C   UNL     1      -7.378   3.327  63.992  1.00  0.00    -0.062 A  
HETATM   27  C   UNL     1      -7.082   5.714  64.130  1.00  0.00    -0.052 A  
HETATM   28  C   UNL     1      -6.530   3.286  62.882  1.00  0.00    -0.019 A  
HETATM   29  C   UNL     1      -5.942   4.455  62.408  1.00  0.00    -0.017 A  
HETATM   30  C   UNL     1      -6.216   5.668  63.033  1.00  0.00    -0.021 A  
ENDBRANCH  24  25
BRANCH  24  31
HETATM   31  C   UNL     1      -8.225   3.577  66.942  1.00  0.00    -0.095 A  
HETATM   32  C   UNL     1      -7.333   1.631  68.766  1.00  0.00    -0.043 A  
HETATM   33  C   UNL     1      -8.660   1.633  68.343  1.00  0.00    -0.092 A  
HETATM   34  C   UNL     1      -6.894   3.572  67.398  1.00  0.00    -0.046 A  
HETATM   35  C   UNL     1      -9.102   2.596  67.434  1.00  0.00    -0.205 A  
HETATM   36  C   UNL     1      -6.451   2.600  68.296  1.00  0.00    -0.029 A  
ENDBRANCH  24  31
ENDBRANCH  21  24
ENDBRANCH  17  18
ENDBRANCH  16  17
ENDBRANCH  15  16
ENDBRANCH  13  15
ENDBRANCH  11  13
BRANCH  12  37
HETATM   37  C   UNL     1     -10.964  12.813  68.407  1.00  0.00    -0.281 A  
HETATM   38  C   UNL     1     -10.091  13.512  66.249  1.00  0.00    -0.298 A  
HETATM   39  O   UNL     1      -7.201  13.541  70.000  1.00  0.00     0.437 OA 
HETATM   40  C   UNL     1      -9.696  13.043  68.979  1.00  0.00     0.322 A  
HETATM   41  O   UNL     1      -6.423  14.168  68.047  1.00  0.00    -0.117 OA 
HETATM   42  C   UNL     1      -8.643  13.508  68.181  1.00  0.00    -0.173 A  
HETATM   43  C   UNL     1      -8.839  13.754  66.818  1.00  0.00    -0.156 A  
HETATM   44  N   UNL     1      -7.328  13.758  68.788  1.00  0.00    -0.109 N  
HETATM   45  C   UNL     1     -11.142  13.035  67.034  1.00  0.00    -0.311 A  
ENDBRANCH  12  37
ENDBRANCH   3   5
ENDBRANCH   2   3
TORSDOF 11
ENDMDL
MODEL      231
REMARK 921   NORMALIZED FREE ENERGY PREDICTED BY IDOCK:    1.73 KCAL/MOL
REMARK 922        TOTAL FREE ENERGY PREDICTED BY IDOCK:    0.98 KCAL/MOL
REMARK 923 INTER-LIGAND FREE ENERGY PREDICTED BY IDOCK:   -0.32 KCAL/MOL
REMARK 924 INTRA-LIGAND FREE ENERGY PREDICTED BY IDOCK:    1.30 KCAL/MOL
REMARK 927      BINDING AFFINITY PREDICTED BY RF-SCORE:    0.00 PKD
ROOT
HETATM    1  C   UNL     1     -11.873   4.532  63.642  1.00  0.00     2.387 C  
HETATM    2  O   UNL     1     -10.887   5.568  63.652  1.00  0.00     2.833 OA 
ENDROOT
BRANCH   2   3
HETATM    3  C   UNL     1      -9.643   5.125  63.965  1.00  0.00     0.594 C  
HETATM    4  O   UNL     1      -9.327   3.947  64.066  1.00  0.00    -0.135 OA 
BRANCH   3   5
HETATM    5  C   UNL     1      -8.726   6.269  64.211  1.00  0.00     0.393 C  
HETATM    6  C   UNL     1      -7.587   6.429  63.486  1.00  0.00    -0.088 C  
HETATM    7  N   UNL     1      -6.734   7.483  63.776  1.00  0.00    -0.053 NA 
HETATM    8  C   UNL     1      -7.099   5.557  62.358  1.00  0.00    -0.040 C  
HETATM    9  C   UNL     1      -6.835   8.291  64.888  1.00  0.00    -0.071 C  
HETATM   10  C   UNL     1      -5.655   9.194  65.164  1.00  0.00    -0.053 C  
HETATM   11  C   UNL     1      -7.939   8.217  65.666  1.00  0.00    -0.113 C  
HETATM   12  C   UNL     1      -9.082   7.249  65.339  1.00  0.00     0.271 C  
BRANCH  11  13
HETATM   13  C   UNL     1      -7.978   8.969  66.937  1.00  0.00    -0.105 C  
HETATM   14  O   UNL     1      -7.022   9.072  67.692  1.00  0.00    -0.073 OA 
BRANCH  13  15
HETATM   15  O   UNL     1      -9.211   9.497  67.157  1.00  0.00    -0.132 OA 
BRANCH  15  16
HETATM   16  C   UNL     1      -9.558   9.556  68.556  1.00  0.00    -0.142 C  
BRANCH  16  17
HETATM   17  C   UNL     1      -9.536  11.020  69.025  1.00  0.00    -0.121 C  
BRANCH  17  18
HETATM   18  N   UNL     1     -10.572  11.903  68.464  1.00  0.00    -0.216 NA 
HETATM   19  C   UNL     1      -9.688  14.156  69.286  1.00  0.00     0.220 C  
HETATM   20  C   UNL     1     -10.822  13.098  69.300  1.00  0.00    -0.006 C  
HETATM   21  N   UNL     1      -9.331  14.644  67.930  1.00  0.00    -0.195 NA 
HETATM   22  C   UNL     1     -10.148  12.352  67.113  1.00  0.00    -0.213 C  
HETATM   23  C   UNL     1      -9.040  13.441  67.106  1.00  0.00    -0.235 C  
BRANCH  21  24
HETATM   24  C   UNL     1     -10.413  15.490  67.339  1.00  0.00    -0.281 C  
BRANCH  24  25
HETATM   25  C   UNL     1      -9.956  16.923  67.014  1.00  0.00    -0.279 A  
HETATM   26  C   UNL     1      -8.691  17.134  66.430  1.00  0.00    -0.291 A  
HETATM   27  C   UNL     1     -10.773  18.044  67.231  1.00  0.00    -0.305 A  
HETATM   28  C   UNL     1      -8.260  18.418  66.087  1.00  0.00    -0.181 A  
HETATM   29  C   UNL     1      -9.077  19.518  66.334  1.00  0.00    -0.417 A  
HETATM   30  C   UNL     1     -10.331  19.331  66.907  1.00  0.00    -0.524 A  
ENDBRANCH  24  25
BRANCH  24  31
HETATM   31  C   UNL     1     -11.102  14.806  66.149  1.00  0.00    -0.339 A  
HETATM   32  C   UNL     1     -12.281  13.302  64.085  1.00  0.00    -0.465 A  
HETATM   33  C   UNL     1     -11.077  13.964  63.863  1.00  0.00     0.214 A  
HETATM   34  C   UNL     1     -12.330  14.147  66.346  1.00  0.00    -0.431 A  
HETATM   35  C   UNL     1     -10.488  14.707  64.889  1.00  0.00    -0.415 A  
HETATM   36  C   UNL     1     -12.908  13.394  65.324  1.00  0.00    -0.398 A  
ENDBRANCH  24  31
ENDBRANCH  21  24
ENDBRANCH  17  18
ENDBRANCH  16  17
ENDBRANCH  15  16
ENDBRANCH  13  15
ENDBRANCH  11  13
BRANCH  12  37
HETATM   37  C   UNL     1      -9.572   6.540  66.612  1.00  0.00    -0.201 A  
HETATM   38  C   UNL     1     -11.348   5.982  68.176  1.00  0.00     0.207 A  
HETATM   39  O   UNL     1      -7.159   3.814  68.606  1.00  0.00    -0.050 OA 
HETATM   40  C   UNL     1      -8.723   5.627  67.270  1.00  0.00    -0.107 A  
HETATM   41  O   UNL     1      -8.767   3.320  70.014  1.00  0.00    -0.063 OA 
HETATM   42  C   UNL     1      -9.197   4.901  68.371  1.00  0.00    -0.124 A  
HETATM   43  C   UNL     1     -10.511   5.068  68.820  1.00  0.00    -0.044 A  
HETATM   44  N   UNL     1      -8.310   3.941  69.044  1.00  0.00    -0.072 N  
HETATM   45  C   UNL     1     -10.879   6.721  67.088  1.00  0.00    -0.462 A  
ENDBRANCH  12  37
ENDBRANCH   3   5
ENDBRANCH   2   3
TORSDOF 11
ENDMDL
MODEL      232
REMARK 921   NORMALIZED FREE ENERGY PREDICTED BY IDOCK:    1.93 KCAL/MOL
REMARK 922        TOTAL FREE ENERGY PREDICTED BY IDOCK:    1.32 KCAL/MOL
REMARK 923 INTER-LIGAND FREE ENERGY PREDICTED BY IDOCK:   -5.66 KCAL/MOL
REMARK 924 INTRA-LIGAND FREE ENERGY PREDICTED BY IDOCK:    6.98 KCAL/MOL
REMARK 927      BINDING AFFINITY PREDICTED BY RF-SCORE:    0.00 PKD
ROOT
HETATM    1  C   UNL     1      -5.323  14.818  67.575  1.00  0.00     0.200 C  
HETATM    2  O   UNL     1      -6.357  14.059  68.208  1.00  0.00    -0.091 OA 
ENDROOT
BRANCH   2   3
HETATM    3  C   UNL     1      -7.340  13.672  67.355  1.00  0.00    -0.111 C  
HETATM    4  O   UNL     1      -7.931  14.419  66.587  1.00  0.00     0.160 OA 
BRANCH   3   5
HETATM    5  C   UNL     1      -7.630  12.222  67.512  1.00  0.00    -0.155 C  
HETATM    6  C   UNL     1      -6.937  11.284  66.814  1.00  0.00    -0.141 C  
HETATM    7  N   UNL     1      -7.268   9.944  66.953  1.00  0.00    -0.090 NA 
HETATM    8  C   UNL     1      -5.805  11.523  65.847  1.00  0.00     0.405 C  
HETATM    9  C   UNL     1      -8.392   9.477  67.599  1.00  0.00    -0.125 C  
HETATM   10  C   UNL     1      -8.715   8.015  67.400  1.00  0.00    -0.124 C  
HETATM   11  C   UNL     1      -9.140  10.332  68.333  1.00  0.00    -0.136 C  
HETATM   12  C   UNL     1      -8.767  11.813  68.460  1.00  0.00    -0.118 C  
BRANCH  11  13
HETATM   13  C   UNL     1     -10.424   9.866  68.897  1.00  0.00    -0.211 C  
HETATM   14  O   UNL     1     -11.461   9.797  68.253  1.00  0.00    -0.001 OA 
BRANCH  13  15
HETATM   15  O   UNL     1     -10.298   9.556  70.214  1.00  0.00    -0.230 OA 
BRANCH  15  16
HETATM   16  C   UNL     1     -11.082   8.408  70.601  1.00  0.00    -0.256 C  
BRANCH  16  17
HETATM   17  C   UNL     1     -11.312   8.437  72.121  1.00  0.00    -0.366 C  
BRANCH  17  18
HETATM   18  N   UNL     1     -10.485   7.522  72.927  1.00  0.00    -0.285 NA 
HETATM   19  C   UNL     1     -10.850   5.363  71.607  1.00  0.00    -0.162 C  
HETATM   20  C   UNL     1     -11.009   6.138  72.942  1.00  0.00    -0.262 C  
HETATM   21  N   UNL     1      -9.452   5.291  71.111  1.00  0.00    -0.153 NA 
HETATM   22  C   UNL     1      -9.106   7.500  72.373  1.00  0.00    -0.136 C  
HETATM   23  C   UNL     1      -8.945   6.687  71.059  1.00  0.00    -0.146 C  
BRANCH  21  24
HETATM   24  C   UNL     1      -8.601   4.409  71.969  1.00  0.00    -0.112 C  
BRANCH  24  25
HETATM   25  C   UNL     1      -7.542   5.182  72.773  1.00  0.00    -0.097 A  
HETATM   26  C   UNL     1      -7.950   6.101  73.760  1.00  0.00    -0.097 A  
HETATM   27  C   UNL     1      -6.163   4.976  72.600  1.00  0.00    -0.031 A  
HETATM   28  C   UNL     1      -7.015   6.791  74.535  1.00  0.00    -0.095 A  
HETATM   29  C   UNL     1      -5.653   6.590  74.329  1.00  0.00    -0.055 A  
HETATM   30  C   UNL     1      -5.228   5.685  73.361  1.00  0.00    -0.023 A  
ENDBRANCH  24  25
BRANCH  24  31
HETATM   31  C   UNL     1      -9.439   3.468  72.848  1.00  0.00    -0.152 A  
HETATM   32  C   UNL     1     -10.905   1.535  74.271  1.00  0.00    -0.183 A  
HETATM   33  C   UNL     1     -11.568   2.466  73.476  1.00  0.00    -0.229 A  
HETATM   34  C   UNL     1      -8.788   2.533  73.674  1.00  0.00    -0.074 A  
HETATM   35  C   UNL     1     -10.841   3.422  72.765  1.00  0.00    -0.054 A  
HETATM   36  C   UNL     1      -9.517   1.568  74.372  1.00  0.00    -0.084 A  
ENDBRANCH  24  31
ENDBRANCH  21  24
ENDBRANCH  17  18
ENDBRANCH  16  17
ENDBRANCH  15  16
ENDBRANCH  13  15
ENDBRANCH  11  13
BRANCH  12  37
HETATM   37  C   UNL     1     -10.013  12.701  68.313  1.00  0.00    -0.229 A  
HETATM   38  C   UNL     1     -12.045  13.320  67.130  1.00  0.00    -0.352 A  
HETATM   39  O   UNL     1     -11.150  15.312  71.333  1.00  0.00    -0.348 OA 
HETATM   40  C   UNL     1     -10.366  13.584  69.354  1.00  0.00     0.306 A  
HETATM   41  O   UNL     1     -12.979  15.866  70.257  1.00  0.00    -0.317 OA 
HETATM   42  C   UNL     1     -11.554  14.322  69.272  1.00  0.00    -0.306 A  
HETATM   43  C   UNL     1     -12.401  14.185  68.167  1.00  0.00    -0.007 A  
HETATM   44  N   UNL     1     -11.920  15.231  70.368  1.00  0.00    -0.308 N  
HETATM   45  C   UNL     1     -10.856  12.593  67.197  1.00  0.00    -0.282 A  
ENDBRANCH  12  37
ENDBRANCH   3   5
ENDBRANCH   2   3
TORSDOF 11
ENDMDL
MODEL      233
REMARK 921   NORMALIZED FREE ENERGY PREDICTED BY IDOCK:    2.03 KCAL/MOL
REMARK 922        TOTAL FREE ENERGY PREDICTED BY IDOCK:    1.48 KCAL/MOL
REMARK 923 INTER-LIGAND FREE ENERGY PREDICTED BY IDOCK:   -2.37 KCAL/MOL
REMARK 924 INTRA-LIGAND FREE ENERGY PREDICTED BY IDOCK:    3.85 KCAL/MOL
REMARK 927      BINDING AFFINITY PREDICTED BY RF-SCORE:    0.00 PKD
ROOT
HETATM    1  C   UNL     1      -9.939   5.889  70.764  1.00  0.00    -0.189 C  
HETATM    2  O   UNL     1      -9.023   6.925  70.400  1.00  0.00    -0.151 OA 
ENDROOT
BRANCH   2   3
HETATM    3  C   UNL     1      -9.183   8.064  71.122  1.00  0.00    -0.149 C  
HETATM    4  O   UNL     1     -10.115   8.279  71.886  1.00  0.00    -0.202 OA 
BRANCH   3   5
HETATM    5  C   UNL     1      -8.094   9.031  70.825  1.00  0.00    -0.194 C  
HETATM    6  C   UNL     1      -7.053   9.205  71.681  1.00  0.00     0.099 C  
HETATM    7  N   UNL     1      -6.080  10.151  71.391  1.00  0.00    -0.313 NA 
HETATM    8  C   UNL     1      -6.811   8.477  72.978  1.00  0.00    -0.064 C  
HETATM    9  C   UNL     1      -6.175  11.093  70.389  1.00  0.00    -0.094 C  
HETATM   10  C   UNL     1      -5.147  12.199  70.416  1.00  0.00    -0.103 C  
HETATM   11  C   UNL     1      -7.170  10.996  69.478  1.00  0.00    -0.091 C  
HETATM   12  C   UNL     1      -8.198   9.861  69.537  1.00  0.00    -0.163 C  
BRANCH  11  13
HETATM   13  C   UNL     1      -7.362  12.087  68.501  1.00  0.00    -0.111 C  
HETATM   14  O   UNL     1      -7.409  13.270  68.808  1.00  0.00    -0.103 OA 
BRANCH  13  15
HETATM   15  O   UNL     1      -7.504  11.599  67.241  1.00  0.00    -0.126 OA 
BRANCH  15  16
HETATM   16  C   UNL     1      -6.462  12.037  66.345  1.00  0.00     0.571 C  
BRANCH  16  17
HETATM   17  C   UNL     1      -5.681  10.815  65.835  1.00  0.00    -0.145 C  
BRANCH  17  18
HETATM   18  N   UNL     1      -6.473   9.756  65.186  1.00  0.00    -0.089 NA 
HETATM   19  C   UNL     1      -5.253   7.705  66.103  1.00  0.00    -0.025 C  
HETATM   20  C   UNL     1      -5.672   8.551  64.872  1.00  0.00    -0.048 C  
HETATM   21  N   UNL     1      -6.390   7.260  66.948  1.00  0.00    -0.049 NA 
HETATM   22  C   UNL     1      -7.586   9.362  66.087  1.00  0.00    -0.096 C  
HETATM   23  C   UNL     1      -7.167   8.479  67.295  1.00  0.00    -0.084 C  
BRANCH  21  24
HETATM   24  C   UNL     1      -7.227   6.229  66.259  1.00  0.00    -0.069 C  
BRANCH  24  25
HETATM   25  C   UNL     1      -6.566   5.656  64.994  1.00  0.00    -0.043 A  
HETATM   26  C   UNL     1      -6.087   4.331  64.997  1.00  0.00    -0.023 A  
HETATM   27  C   UNL     1      -6.459   6.388  63.800  1.00  0.00    -0.030 A  
HETATM   28  C   UNL     1      -5.516   3.767  63.853  1.00  0.00    -0.013 A  
HETATM   29  C   UNL     1      -5.399   4.519  62.688  1.00  0.00    -0.009 A  
HETATM   30  C   UNL     1      -5.868   5.829  62.662  1.00  0.00    -0.014 A  
ENDBRANCH  24  25
BRANCH  24  31
HETATM   31  C   UNL     1      -7.708   5.132  67.222  1.00  0.00    -0.092 A  
HETATM   32  C   UNL     1      -8.343   2.986  68.925  1.00  0.00    -0.083 A  
HETATM   33  C   UNL     1      -8.953   3.089  67.678  1.00  0.00    -0.192 A  
HETATM   34  C   UNL     1      -7.119   5.023  68.494  1.00  0.00    -0.058 A  
HETATM   35  C   UNL     1      -8.635   4.152  66.829  1.00  0.00    -0.108 A  
HETATM   36  C   UNL     1      -7.428   3.952  69.334  1.00  0.00    -0.053 A  
ENDBRANCH  24  31
ENDBRANCH  21  24
ENDBRANCH  17  18
ENDBRANCH  16  17
ENDBRANCH  15  16
ENDBRANCH  13  15
ENDBRANCH  11  13
BRANCH  12  37
HETATM   37  C   UNL     1      -9.616  10.401  69.290  1.00  0.00    -0.226 A  
HETATM   38  C   UNL     1     -11.416  11.015  67.774  1.00  0.00    -0.339 A  
HETATM   39  O   UNL     1     -12.269  10.964  72.432  1.00  0.00     0.872 OA 
HETATM   40  C   UNL     1     -10.489  10.590  70.381  1.00  0.00     0.131 A  
HETATM   41  O   UNL     1     -13.885  11.518  71.056  1.00  0.00     1.002 OA 
HETATM   42  C   UNL     1     -11.814  10.985  70.156  1.00  0.00    -0.357 A  
HETATM   43  C   UNL     1     -12.284  11.188  68.854  1.00  0.00    -0.144 A  
HETATM   44  N   UNL     1     -12.721  11.167  71.298  1.00  0.00    -0.422 N  
HETATM   45  C   UNL     1     -10.089  10.635  67.990  1.00  0.00    -0.181 A  
ENDBRANCH  12  37
ENDBRANCH   3   5
ENDBRANCH   2   3
TORSDOF 11
ENDMDL
MODEL      234
REMARK 921   NORMALIZED FREE ENERGY PREDICTED BY IDOCK:    2.05 KCAL/MOL
REMARK 922        TOTAL FREE ENERGY PREDICTED BY IDOCK:    1.50 KCAL/MOL
REMARK 923 INTER-LIGAND FREE ENERGY PREDICTED BY IDOCK:   -4.63 KCAL/MOL
REMARK 924 INTRA-LIGAND FREE ENERGY PREDICTED BY IDOCK:    6.13 KCAL/MOL
REMARK 927      BINDING AFFINITY PREDICTED BY RF-SCORE:    0.00 PKD
ROOT
HETATM    1  C   UNL     1     -10.936  15.835  71.366  1.00  0.00    -0.012 C  
HETATM    2  O   UNL     1     -11.019  14.472  70.943  1.00  0.00     0.060 OA 
ENDROOT
BRANCH   2   3
HETATM    3  C   UNL     1     -11.954  14.263  69.982  1.00  0.00    -0.334 C  
HETATM    4  O   UNL     1     -12.714  15.119  69.549  1.00  0.00    -0.051 OA 
BRANCH   3   5
HETATM    5  C   UNL     1     -11.958  12.838  69.555  1.00  0.00    -0.338 C  
HETATM    6  C   UNL     1     -12.235  11.839  70.433  1.00  0.00    -0.330 C  
HETATM    7  N   UNL     1     -12.183  10.520  70.008  1.00  0.00    -0.276 NA 
HETATM    8  C   UNL     1     -12.596  11.984  71.889  1.00  0.00    -0.049 C  
HETATM    9  C   UNL     1     -11.673  10.106  68.796  1.00  0.00     0.148 C  
HETATM   10  C   UNL     1     -11.452   8.620  68.640  1.00  0.00     0.932 C  
HETATM   11  C   UNL     1     -11.380  11.025  67.849  1.00  0.00    -0.381 C  
HETATM   12  C   UNL     1     -11.600  12.522  68.095  1.00  0.00    -0.390 C  
BRANCH  11  13
HETATM   13  C   UNL     1     -10.692  10.596  66.614  1.00  0.00    -0.181 C  
HETATM   14  O   UNL     1     -11.259  10.050  65.678  1.00  0.00     0.802 OA 
BRANCH  13  15
HETATM   15  O   UNL     1      -9.361  10.863  66.675  1.00  0.00    -0.166 OA 
BRANCH  15  16
HETATM   16  C   UNL     1      -8.540   9.705  66.420  1.00  0.00    -0.127 C  
BRANCH  16  17
HETATM   17  C   UNL     1      -9.168   8.477  67.100  1.00  0.00    -0.142 C  
BRANCH  17  18
HETATM   18  N   UNL     1      -8.231   7.481  67.648  1.00  0.00    -0.117 NA 
HETATM   19  C   UNL     1      -8.039   8.363  70.039  1.00  0.00    -0.115 C  
HETATM   20  C   UNL     1      -7.343   8.041  68.691  1.00  0.00    -0.089 C  
HETATM   21  N   UNL     1      -8.745   7.207  70.648  1.00  0.00    -0.147 NA 
HETATM   22  C   UNL     1      -9.006   6.359  68.239  1.00  0.00    -0.116 C  
HETATM   23  C   UNL     1      -9.666   6.675  69.609  1.00  0.00    -0.154 C  
BRANCH  21  24
HETATM   24  C   UNL     1      -7.790   6.170  71.147  1.00  0.00    -0.111 C  
BRANCH  24  25
HETATM   25  C   UNL     1      -8.400   5.245  72.214  1.00  0.00    -0.122 A  
HETATM   26  C   UNL     1      -9.794   5.249  72.425  1.00  0.00    -0.198 A  
HETATM   27  C   UNL     1      -7.627   4.347  72.968  1.00  0.00    -0.082 A  
HETATM   28  C   UNL     1     -10.385   4.395  73.360  1.00  0.00    -0.237 A  
HETATM   29  C   UNL     1      -9.596   3.530  74.113  1.00  0.00    -0.126 A  
HETATM   30  C   UNL     1      -8.217   3.508  73.918  1.00  0.00    -0.078 A  
ENDBRANCH  24  25
BRANCH  24  31
HETATM   31  C   UNL     1      -7.126   5.391  70.001  1.00  0.00    -0.062 A  
HETATM   32  C   UNL     1      -5.843   3.762  68.100  1.00  0.00    -0.026 A  
HETATM   33  C   UNL     1      -5.204   4.898  68.589  1.00  0.00    -0.004 A  
HETATM   34  C   UNL     1      -7.765   4.251  69.479  1.00  0.00    -0.054 A  
HETATM   35  C   UNL     1      -5.837   5.704  69.536  1.00  0.00    -0.016 A  
HETATM   36  C   UNL     1      -7.123   3.439  68.543  1.00  0.00    -0.050 A  
ENDBRANCH  24  31
ENDBRANCH  21  24
ENDBRANCH  17  18
ENDBRANCH  16  17
ENDBRANCH  15  16
ENDBRANCH  13  15
ENDBRANCH  11  13
BRANCH  12  37
HETATM   37  C   UNL     1     -10.400  13.338  67.586  1.00  0.00    -0.230 A  
HETATM   38  C   UNL     1      -9.477  15.360  66.600  1.00  0.00    -0.281 A  
HETATM   39  O   UNL     1      -6.507  12.074  68.278  1.00  0.00    -0.050 OA 
HETATM   40  C   UNL     1      -9.091  12.875  67.829  1.00  0.00    -0.197 A  
HETATM   41  O   UNL     1      -5.685  13.901  67.385  1.00  0.00    -0.352 OA 
HETATM   42  C   UNL     1      -7.992  13.660  67.459  1.00  0.00    -0.182 A  
HETATM   43  C   UNL     1      -8.181  14.908  66.854  1.00  0.00    -0.178 A  
HETATM   44  N   UNL     1      -6.630  13.177  67.728  1.00  0.00    -0.136 N  
HETATM   45  C   UNL     1     -10.578  14.576  66.953  1.00  0.00    -0.279 A  
ENDBRANCH  12  37
ENDBRANCH   3   5
ENDBRANCH   2   3
TORSDOF 11
ENDMDL
MODEL      235
REMARK 921   NORMALIZED FREE ENERGY PREDICTED BY IDOCK:    2.05 KCAL/MOL
REMARK 922        TOTAL FREE ENERGY PREDICTED BY IDOCK:    1.50 KCAL/MOL
REMARK 923 INTER-LIGAND FREE ENERGY PREDICTED BY IDOCK:   -5.46 KCAL/MOL
REMARK 924 INTRA-LIGAND FREE ENERGY PREDICTED BY IDOCK:    6.97 KCAL/MOL
REMARK 927      BINDING AFFINITY PREDICTED BY RF-SCORE:    0.00 PKD
ROOT
HETATM    1  C   UNL     1     -10.819  15.751  71.330  1.00  0.00     0.175 C  
HETATM    2  O   UNL     1     -10.959  14.525  70.607  1.00  0.00    -0.003 OA 
ENDROOT
BRANCH   2   3
HETATM    3  C   UNL     1     -11.977  14.544  69.709  1.00  0.00    -0.332 C  
HETATM    4  O   UNL     1     -12.823  15.424  69.632  1.00  0.00    -0.032 OA 
BRANCH   3   5
HETATM    5  C   UNL     1     -11.946  13.325  68.857  1.00  0.00    -0.336 C  
HETATM    6  C   UNL     1     -11.921  12.082  69.405  1.00  0.00    -0.275 C  
HETATM    7  N   UNL     1     -11.847  10.971  68.578  1.00  0.00    -0.520 NA 
HETATM    8  C   UNL     1     -11.953  11.735  70.872  1.00  0.00    -0.116 C  
HETATM    9  C   UNL     1     -11.591  11.017  67.224  1.00  0.00     0.068 C  
HETATM   10  C   UNL     1     -11.275   9.696  66.562  1.00  0.00     0.821 C  
HETATM   11  C   UNL     1     -11.608  12.207  66.584  1.00  0.00    -0.416 C  
HETATM   12  C   UNL     1     -11.904  13.512  67.333  1.00  0.00    -0.423 C  
BRANCH  11  13
HETATM   13  C   UNL     1     -11.183  12.273  65.170  1.00  0.00    -0.324 C  
HETATM   14  O   UNL     1     -11.913  11.991  64.231  1.00  0.00    -0.366 OA 
BRANCH  13  15
HETATM   15  O   UNL     1      -9.884  12.659  65.065  1.00  0.00    -0.190 OA 
BRANCH  15  16
HETATM   16  C   UNL     1      -9.114  11.813  64.186  1.00  0.00     0.383 C  
BRANCH  16  17
HETATM   17  C   UNL     1      -9.751  10.415  64.138  1.00  0.00    -0.324 C  
BRANCH  17  18
HETATM   18  N   UNL     1      -8.822   9.273  64.092  1.00  0.00    -0.183 NA 
HETATM   19  C   UNL     1      -6.869  10.274  65.403  1.00  0.00    -0.140 C  
HETATM   20  C   UNL     1      -7.401   9.690  64.069  1.00  0.00    -0.121 C  
HETATM   21  N   UNL     1      -7.035   9.370  66.569  1.00  0.00    -0.083 NA 
HETATM   22  C   UNL     1      -9.044   8.417  65.286  1.00  0.00     0.076 C  
HETATM   23  C   UNL     1      -8.471   8.988  66.612  1.00  0.00    -0.122 C  
BRANCH  21  24
HETATM   24  C   UNL     1      -6.133   8.180  66.486  1.00  0.00    -0.049 C  
BRANCH  24  25
HETATM   25  C   UNL     1      -5.959   7.453  67.831  1.00  0.00    -0.035 A  
HETATM   26  C   UNL     1      -5.448   8.155  68.941  1.00  0.00    -0.031 A  
HETATM   27  C   UNL     1      -6.338   6.114  68.020  1.00  0.00    -0.036 A  
HETATM   28  C   UNL     1      -5.314   7.535  70.187  1.00  0.00    -0.023 A  
HETATM   29  C   UNL     1      -5.672   6.200  70.345  1.00  0.00    -0.018 A  
HETATM   30  C   UNL     1      -6.182   5.489  69.261  1.00  0.00    -0.029 A  
ENDBRANCH  24  25
BRANCH  24  31
HETATM   31  C   UNL     1      -6.528   7.228  65.347  1.00  0.00    -0.044 A  
HETATM   32  C   UNL     1      -7.087   5.285  63.391  1.00  0.00    -0.047 A  
HETATM   33  C   UNL     1      -6.188   6.312  63.116  1.00  0.00    -0.026 A  
HETATM   34  C   UNL     1      -7.450   6.196  65.599  1.00  0.00    -0.082 A  
HETATM   35  C   UNL     1      -5.906   7.274  64.088  1.00  0.00    -0.037 A  
HETATM   36  C   UNL     1      -7.720   5.227  64.631  1.00  0.00    -0.088 A  
ENDBRANCH  24  31
ENDBRANCH  21  24
ENDBRANCH  17  18
ENDBRANCH  16  17
ENDBRANCH  15  16
ENDBRANCH  13  15
ENDBRANCH  11  13
BRANCH  12  37
HETATM   37  C   UNL     1     -10.932  14.620  66.896  1.00  0.00    -0.324 A  
HETATM   38  C   UNL     1     -10.325  16.435  65.396  1.00  0.00    -0.287 A  
HETATM   39  O   UNL     1      -7.724  15.720  69.289  1.00  0.00    -0.201 OA 
HETATM   40  C   UNL     1      -9.847  14.963  67.728  1.00  0.00    -0.217 A  
HETATM   41  O   UNL     1      -7.183  17.354  67.928  1.00  0.00    -0.180 OA 
HETATM   42  C   UNL     1      -9.016  16.038  67.386  1.00  0.00    -0.191 A  
HETATM   43  C   UNL     1      -9.258  16.783  66.227  1.00  0.00    -0.313 A  
HETATM   44  N   UNL     1      -7.894  16.397  68.266  1.00  0.00    -0.162 N  
HETATM   45  C   UNL     1     -11.149  15.356  65.721  1.00  0.00    -0.260 A  
ENDBRANCH  12  37
ENDBRANCH   3   5
ENDBRANCH   2   3
TORSDOF 11
ENDMDL
MODEL      236
REMARK 921   NORMALIZED FREE ENERGY PREDICTED BY IDOCK:    2.14 KCAL/MOL
REMARK 922        TOTAL FREE ENERGY PREDICTED BY IDOCK:    1.66 KCAL/MOL
REMARK 923 INTER-LIGAND FREE ENERGY PREDICTED BY IDOCK:   -5.12 KCAL/MOL
REMARK 924 INTRA-LIGAND FREE ENERGY PREDICTED BY IDOCK:    6.77 KCAL/MOL
REMARK 927      BINDING AFFINITY PREDICTED BY RF-SCORE:    0.00 PKD
ROOT
HETATM    1  C   UNL     1     -13.461  15.283  70.355  1.00  0.00     0.061 C  
HETATM    2  O   UNL     1     -12.110  14.860  70.560  1.00  0.00    -0.279 OA 
ENDROOT
BRANCH   2   3
HETATM    3  C   UNL     1     -11.774  13.762  69.835  1.00  0.00    -0.284 C  
HETATM    4  O   UNL     1     -11.164  13.787  68.774  1.00  0.00    -0.244 OA 
BRANCH   3   5
HETATM    5  C   UNL     1     -12.287  12.527  70.484  1.00  0.00    -0.345 C  
HETATM    6  C   UNL     1     -12.848  12.561  71.721  1.00  0.00    -0.242 C  
HETATM    7  N   UNL     1     -13.273  11.380  72.313  1.00  0.00    -0.242 NA 
HETATM    8  C   UNL     1     -13.070  13.777  72.585  1.00  0.00    -0.489 C  
HETATM    9  C   UNL     1     -12.993  10.119  71.834  1.00  0.00    -0.447 C  
HETATM   10  C   UNL     1     -13.303   8.970  72.766  1.00  0.00    -0.251 C  
HETATM   11  C   UNL     1     -12.447   9.980  70.605  1.00  0.00    -0.321 C  
HETATM   12  C   UNL     1     -12.128  11.198  69.731  1.00  0.00    -0.414 C  
BRANCH  11  13
HETATM   13  C   UNL     1     -12.007   8.642  70.158  1.00  0.00     0.408 C  
HETATM   14  O   UNL     1     -11.740   8.371  68.996  1.00  0.00     0.889 OA 
BRANCH  13  15
HETATM   15  O   UNL     1     -11.967   7.766  71.196  1.00  0.00    -0.297 OA 
BRANCH  15  16
HETATM   16  C   UNL     1     -11.321   6.520  70.859  1.00  0.00    -0.337 C  
BRANCH  16  17
HETATM   17  C   UNL     1     -10.618   5.958  72.105  1.00  0.00    -0.219 C  
BRANCH  17  18
HETATM   18  N   UNL     1      -9.859   4.709  71.922  1.00  0.00    -0.172 NA 
HETATM   19  C   UNL     1      -9.721   4.679  69.369  1.00  0.00    -0.202 C  
HETATM   20  C   UNL     1     -10.216   3.999  70.673  1.00  0.00     0.220 C  
HETATM   21  N   UNL     1      -8.256   4.917  69.328  1.00  0.00    -0.081 NA 
HETATM   22  C   UNL     1      -8.407   5.024  71.888  1.00  0.00    -0.120 C  
HETATM   23  C   UNL     1      -7.910   5.667  70.565  1.00  0.00    -0.099 C  
BRANCH  21  24
HETATM   24  C   UNL     1      -7.487   3.640  69.203  1.00  0.00    -0.053 C  
BRANCH  24  25
HETATM   25  C   UNL     1      -6.695   3.533  67.889  1.00  0.00    -0.046 A  
HETATM   26  C   UNL     1      -6.380   2.262  67.367  1.00  0.00    -0.028 A  
HETATM   27  C   UNL     1      -6.306   4.660  67.147  1.00  0.00    -0.040 A  
HETATM   28  C   UNL     1      -5.695   2.129  66.156  1.00  0.00    -0.021 A  
HETATM   29  C   UNL     1      -5.298   3.260  65.450  1.00  0.00    -0.009 A  
HETATM   30  C   UNL     1      -5.601   4.525  65.947  1.00  0.00    -0.017 A  
ENDBRANCH  24  25
BRANCH  24  31
HETATM   31  C   UNL     1      -6.619   3.360  70.440  1.00  0.00    -0.032 A  
HETATM   32  C   UNL     1      -5.270   2.879  72.861  1.00  0.00     0.000 A  
HETATM   33  C   UNL     1      -5.142   4.111  72.225  1.00  0.00     0.000 A  
HETATM   34  C   UNL     1      -6.719   2.114  71.086  1.00  0.00    -0.031 A  
HETATM   35  C   UNL     1      -5.815   4.352  71.025  1.00  0.00    -0.016 A  
HETATM   36  C   UNL     1      -6.056   1.881  72.292  1.00  0.00    -0.009 A  
ENDBRANCH  24  31
ENDBRANCH  21  24
ENDBRANCH  17  18
ENDBRANCH  16  17
ENDBRANCH  15  16
ENDBRANCH  13  15
ENDBRANCH  11  13
BRANCH  12  37
HETATM   37  C   UNL     1     -10.746  11.047  69.074  1.00  0.00    -0.258 A  
HETATM   38  C   UNL     1      -8.393  10.449  69.203  1.00  0.00    -0.160 A  
HETATM   39  O   UNL     1     -10.280  11.403  64.965  1.00  0.00    -0.251 OA 
HETATM   40  C   UNL     1     -10.621  11.184  67.677  1.00  0.00    -0.250 A  
HETATM   41  O   UNL     1      -8.158  10.864  65.092  1.00  0.00    -0.057 OA 
HETATM   42  C   UNL     1      -9.386  10.948  67.059  1.00  0.00    -0.163 A  
HETATM   43  C   UNL     1      -8.273  10.570  67.817  1.00  0.00    -0.107 A  
HETATM   44  N   UNL     1      -9.267  11.080  65.600  1.00  0.00    -0.205 N  
HETATM   45  C   UNL     1      -9.617  10.696  69.828  1.00  0.00     0.142 A  
ENDBRANCH  12  37
ENDBRANCH   3   5
ENDBRANCH   2   3
TORSDOF 11
ENDMDL
MODEL      237
REMARK 921   NORMALIZED FREE ENERGY PREDICTED BY IDOCK:    2.30 KCAL/MOL
REMARK 922        TOTAL FREE ENERGY PREDICTED BY IDOCK:    1.92 KCAL/MOL
REMARK 923 INTER-LIGAND FREE ENERGY PREDICTED BY IDOCK:   -2.05 KCAL/MOL
REMARK 924 INTRA-LIGAND FREE ENERGY PREDICTED BY IDOCK:    3.97 KCAL/MOL
REMARK 927      BINDING AFFINITY PREDICTED BY RF-SCORE:    0.00 PKD
ROOT
HETATM    1  C   UNL     1      -6.726  12.483  71.009  1.00  0.00     2.551 C  
HETATM    2  O   UNL     1      -6.833  11.968  69.679  1.00  0.00    -0.049 OA 
ENDROOT
BRANCH   2   3
HETATM    3  C   UNL     1      -6.707  10.618  69.612  1.00  0.00    -0.116 C  
HETATM    4  O   UNL     1      -6.389   9.900  70.551  1.00  0.00    -0.084 OA 
BRANCH   3   5
HETATM    5  C   UNL     1      -6.966  10.135  68.230  1.00  0.00    -0.070 C  
HETATM    6  C   UNL     1      -6.283  10.635  67.168  1.00  0.00    -0.062 C  
HETATM    7  N   UNL     1      -6.586  10.192  65.889  1.00  0.00    -0.098 NA 
HETATM    8  C   UNL     1      -5.189  11.673  67.198  1.00  0.00    -0.096 C  
HETATM    9  C   UNL     1      -7.679   9.416  65.566  1.00  0.00    -0.099 C  
HETATM   10  C   UNL     1      -7.983   9.276  64.093  1.00  0.00    -0.136 C  
HETATM   11  C   UNL     1      -8.415   8.861  66.554  1.00  0.00    -0.124 C  
HETATM   12  C   UNL     1      -8.063   9.078  68.030  1.00  0.00    -0.105 C  
BRANCH  11  13
HETATM   13  C   UNL     1      -9.670   8.160  66.213  1.00  0.00    -0.153 C  
HETATM   14  O   UNL     1     -10.639   8.713  65.712  1.00  0.00     0.894 OA 
BRANCH  13  15
HETATM   15  O   UNL     1      -9.607   6.846  66.553  1.00  0.00    -0.177 OA 
BRANCH  15  16
HETATM   16  C   UNL     1      -9.625   5.966  65.410  1.00  0.00     0.423 C  
BRANCH  16  17
HETATM   17  C   UNL     1      -8.940   4.640  65.779  1.00  0.00    -0.134 C  
BRANCH  17  18
HETATM   18  N   UNL     1      -8.113   4.646  66.998  1.00  0.00    -0.102 NA 
HETATM   19  C   UNL     1      -9.952   4.965  68.745  1.00  0.00    -0.136 C  
HETATM   20  C   UNL     1      -8.669   5.509  68.064  1.00  0.00    -0.106 C  
HETATM   21  N   UNL     1      -9.800   3.606  69.324  1.00  0.00     0.009 NA 
HETATM   22  C   UNL     1      -8.007   3.259  67.520  1.00  0.00    -0.077 C  
HETATM   23  C   UNL     1      -9.281   2.734  68.237  1.00  0.00    -0.196 C  
BRANCH  21  24
HETATM   24  C   UNL     1      -8.909   3.608  70.526  1.00  0.00    -0.080 C  
BRANCH  24  25
HETATM   25  C   UNL     1      -7.612   4.409  70.319  1.00  0.00    -0.049 A  
HETATM   26  C   UNL     1      -6.374   3.736  70.295  1.00  0.00    -0.027 A  
HETATM   27  C   UNL     1      -7.607   5.797  70.103  1.00  0.00    -0.086 A  
HETATM   28  C   UNL     1      -5.181   4.428  70.072  1.00  0.00    -0.004 A  
HETATM   29  C   UNL     1      -5.198   5.807  69.884  1.00  0.00    -0.005 A  
HETATM   30  C   UNL     1      -6.410   6.491  69.902  1.00  0.00    -0.039 A  
ENDBRANCH  24  25
BRANCH  24  31
HETATM   31  C   UNL     1      -9.657   4.015  71.804  1.00  0.00    -0.223 A  
HETATM   32  C   UNL     1     -11.264   4.647  74.025  1.00  0.00     0.037 A  
HETATM   33  C   UNL     1     -10.895   5.644  73.126  1.00  0.00    -0.321 A  
HETATM   34  C   UNL     1     -10.022   3.025  72.736  1.00  0.00    -0.214 A  
HETATM   35  C   UNL     1     -10.102   5.330  72.021  1.00  0.00    -0.247 A  
HETATM   36  C   UNL     1     -10.827   3.339  73.832  1.00  0.00    -0.298 A  
ENDBRANCH  24  31
ENDBRANCH  21  24
ENDBRANCH  17  18
ENDBRANCH  16  17
ENDBRANCH  15  16
ENDBRANCH  13  15
ENDBRANCH  11  13
BRANCH  12  37
HETATM   37  C   UNL     1      -9.328   9.369  68.853  1.00  0.00    -0.154 A  
HETATM   38  C   UNL     1     -10.969   8.710  70.521  1.00  0.00    -0.266 A  
HETATM   39  O   UNL     1     -11.046  13.148  68.869  1.00  0.00    -0.255 OA 
HETATM   40  C   UNL     1      -9.892  10.661  68.828  1.00  0.00    -0.196 A  
HETATM   41  O   UNL     1     -12.524  12.543  70.372  1.00  0.00    -0.242 OA 
HETATM   42  C   UNL     1     -10.984  10.963  69.652  1.00  0.00    -0.252 A  
HETATM   43  C   UNL     1     -11.519   9.994  70.507  1.00  0.00    -0.407 A  
HETATM   44  N   UNL     1     -11.558  12.317  69.629  1.00  0.00    -0.295 N  
HETATM   45  C   UNL     1      -9.890   8.397  69.693  1.00  0.00    -0.184 A  
ENDBRANCH  12  37
ENDBRANCH   3   5
ENDBRANCH   2   3
TORSDOF 11
ENDMDL
MODEL      238
REMARK 921   NORMALIZED FREE ENERGY PREDICTED BY IDOCK:    2.45 KCAL/MOL
REMARK 922        TOTAL FREE ENERGY PREDICTED BY IDOCK:    2.17 KCAL/MOL
REMARK 923 INTER-LIGAND FREE ENERGY PREDICTED BY IDOCK:   -4.12 KCAL/MOL
REMARK 924 INTRA-LIGAND FREE ENERGY PREDICTED BY IDOCK:    6.29 KCAL/MOL
REMARK 927      BINDING AFFINITY PREDICTED BY RF-SCORE:    0.00 PKD
ROOT
HETATM    1  C   UNL     1      -8.904   7.648  72.811  1.00  0.00    -0.153 C  
HETATM    2  O   UNL     1      -9.151   7.043  71.538  1.00  0.00    -0.140 OA 
ENDROOT
BRANCH   2   3
HETATM    3  C   UNL     1      -8.611   7.733  70.501  1.00  0.00    -0.132 C  
HETATM    4  O   UNL     1      -7.451   7.630  70.123  1.00  0.00    -0.080 OA 
BRANCH   3   5
HETATM    5  C   UNL     1      -9.611   8.661  69.911  1.00  0.00    -0.174 C  
HETATM    6  C   UNL     1     -10.893   8.269  69.687  1.00  0.00    -0.150 C  
HETATM    7  N   UNL     1     -11.785   9.150  69.093  1.00  0.00     0.659 NA 
HETATM    8  C   UNL     1     -11.500   6.925  70.003  1.00  0.00    -0.328 C  
HETATM    9  C   UNL     1     -11.433  10.350  68.514  1.00  0.00    -0.162 C  
HETATM   10  C   UNL     1     -12.499  11.025  67.682  1.00  0.00     2.263 C  
HETATM   11  C   UNL     1     -10.183  10.834  68.693  1.00  0.00    -0.198 C  
HETATM   12  C   UNL     1      -9.144  10.073  69.525  1.00  0.00    -0.236 C  
BRANCH  11  13
HETATM   13  C   UNL     1      -9.762  12.039  67.949  1.00  0.00    -0.194 C  
HETATM   14  O   UNL     1      -8.605  12.262  67.621  1.00  0.00    -0.151 OA 
BRANCH  13  15
HETATM   15  O   UNL     1     -10.817  12.861  67.709  1.00  0.00    -0.221 OA 
BRANCH  15  16
HETATM   16  C   UNL     1     -11.024  13.833  68.755  1.00  0.00    -0.264 C  
BRANCH  16  17
HETATM   17  C   UNL     1     -10.640  15.228  68.238  1.00  0.00    -0.244 C  
BRANCH  17  18
HETATM   18  N   UNL     1      -9.201  15.543  68.210  1.00  0.00    -0.185 NA 
HETATM   19  C   UNL     1      -9.240  17.526  66.597  1.00  0.00    -0.262 C  
HETATM   20  C   UNL     1      -8.757  16.085  66.906  1.00  0.00    -0.229 C  
HETATM   21  N   UNL     1      -8.867  18.525  67.631  1.00  0.00    -0.269 NA 
HETATM   22  C   UNL     1      -8.903  16.546  69.265  1.00  0.00    -0.073 C  
HETATM   23  C   UNL     1      -9.353  17.995  68.932  1.00  0.00    -0.157 C  
BRANCH  21  24
HETATM   24  C   UNL     1      -7.396  18.795  67.640  1.00  0.00    -0.224 C  
BRANCH  24  25
HETATM   25  C   UNL     1      -6.578  17.683  68.318  1.00  0.00    -0.190 A  
HETATM   26  C   UNL     1      -6.454  17.667  69.722  1.00  0.00    -0.057 A  
HETATM   27  C   UNL     1      -5.979  16.638  67.596  1.00  0.00    -0.169 A  
HETATM   28  C   UNL     1      -5.750  16.650  70.373  1.00  0.00    -0.111 A  
HETATM   29  C   UNL     1      -5.144  15.638  69.635  1.00  0.00    -0.097 A  
HETATM   30  C   UNL     1      -5.256  15.633  68.247  1.00  0.00    -0.108 A  
ENDBRANCH  24  25
BRANCH  24  31
HETATM   31  C   UNL     1      -6.861  19.154  66.245  1.00  0.00    -0.236 A  
HETATM   32  C   UNL     1      -5.644  19.908  63.824  1.00  0.00    -0.314 A  
HETATM   33  C   UNL     1      -6.658  20.692  64.368  1.00  0.00    -0.236 A  
HETATM   34  C   UNL     1      -5.851  18.363  65.668  1.00  0.00    -0.251 A  
HETATM   35  C   UNL     1      -7.260  20.321  65.572  1.00  0.00    -0.241 A  
HETATM   36  C   UNL     1      -5.241  18.744  64.472  1.00  0.00    -0.230 A  
ENDBRANCH  24  31
ENDBRANCH  21  24
ENDBRANCH  17  18
ENDBRANCH  16  17
ENDBRANCH  15  16
ENDBRANCH  13  15
ENDBRANCH  11  13
BRANCH  12  37
HETATM   37  C   UNL     1      -7.778  10.076  68.820  1.00  0.00    -0.085 A  
HETATM   38  C   UNL     1      -5.375  10.443  68.859  1.00  0.00    -0.041 A  
HETATM   39  O   UNL     1      -7.316   8.424  65.040  1.00  0.00    -0.081 OA 
HETATM   40  C   UNL     1      -7.658   9.515  67.532  1.00  0.00    -0.095 A  
HETATM   41  O   UNL     1      -5.149   8.762  65.085  1.00  0.00    -0.037 OA 
HETATM   42  C   UNL     1      -6.399   9.422  66.925  1.00  0.00    -0.066 A  
HETATM   43  C   UNL     1      -5.254   9.876  67.589  1.00  0.00    -0.035 A  
HETATM   44  N   UNL     1      -6.281   8.825  65.587  1.00  0.00    -0.052 N  
HETATM   45  C   UNL     1      -6.628  10.553  69.466  1.00  0.00    -0.080 A  
ENDBRANCH  12  37
ENDBRANCH   3   5
ENDBRANCH   2   3
TORSDOF 11
ENDMDL
MODEL      239
REMARK 921   NORMALIZED FREE ENERGY PREDICTED BY IDOCK:    2.49 KCAL/MOL
REMARK 922        TOTAL FREE ENERGY PREDICTED BY IDOCK:    2.23 KCAL/MOL
REMARK 923 INTER-LIGAND FREE ENERGY PREDICTED BY IDOCK:   -5.76 KCAL/MOL
REMARK 924 INTRA-LIGAND FREE ENERGY PREDICTED BY IDOCK:    7.99 KCAL/MOL
REMARK 927      BINDING AFFINITY PREDICTED BY RF-SCORE:    0.00 PKD
ROOT
HETATM    1  C   UNL     1     -13.494  14.554  65.691  1.00  0.00     1.130 C  
HETATM    2  O   UNL     1     -12.475  15.529  65.453  1.00  0.00     0.594 OA 
ENDROOT
BRANCH   2   3
HETATM    3  C   UNL     1     -11.426  15.432  66.309  1.00  0.00     0.009 C  
HETATM    4  O   UNL     1     -11.042  16.330  67.047  1.00  0.00    -0.158 OA 
BRANCH   3   5
HETATM    5  C   UNL     1     -10.779  14.098  66.197  1.00  0.00    -0.297 C  
HETATM    6  C   UNL     1     -10.972  13.309  65.106  1.00  0.00    -0.299 C  
HETATM    7  N   UNL     1     -10.388  12.052  65.059  1.00  0.00    -0.272 NA 
HETATM    8  C   UNL     1     -11.790  13.635  63.883  1.00  0.00    -0.419 C  
HETATM    9  C   UNL     1      -9.777  11.431  66.127  1.00  0.00    -0.219 C  
HETATM   10  C   UNL     1      -9.456   9.965  65.949  1.00  0.00    -0.272 C  
HETATM   11  C   UNL     1      -9.527  12.136  67.253  1.00  0.00    -0.184 C  
HETATM   12  C   UNL     1      -9.914  13.615  67.371  1.00  0.00    -0.234 C  
BRANCH  11  13
HETATM   13  C   UNL     1      -9.014  11.433  68.447  1.00  0.00    -0.172 C  
HETATM   14  O   UNL     1      -9.657  11.291  69.477  1.00  0.00     0.179 OA 
BRANCH  13  15
HETATM   15  O   UNL     1      -7.741  10.998  68.251  1.00  0.00    -0.102 OA 
BRANCH  15  16
HETATM   16  C   UNL     1      -6.986  10.894  69.476  1.00  0.00    -0.131 C  
BRANCH  16  17
HETATM   17  C   UNL     1      -6.658   9.417  69.748  1.00  0.00    -0.045 C  
BRANCH  17  18
HETATM   18  N   UNL     1      -7.769   8.462  69.598  1.00  0.00    -0.092 NA 
HETATM   19  C   UNL     1      -6.544   6.594  68.354  1.00  0.00    -0.059 C  
HETATM   20  C   UNL     1      -7.671   7.659  68.358  1.00  0.00    -0.119 C  
HETATM   21  N   UNL     1      -6.613   5.635  69.486  1.00  0.00    -0.048 NA 
HETATM   22  C   UNL     1      -7.775   7.537  70.760  1.00  0.00    -0.083 C  
HETATM   23  C   UNL     1      -6.668   6.446  70.731  1.00  0.00    -0.058 C  
BRANCH  21  24
HETATM   24  C   UNL     1      -7.779   4.706  69.360  1.00  0.00    -0.059 C  
BRANCH  24  25
HETATM   25  C   UNL     1      -9.129   5.437  69.260  1.00  0.00    -0.133 A  
HETATM   26  C   UNL     1      -9.558   5.941  68.016  1.00  0.00    -0.122 A  
HETATM   27  C   UNL     1      -9.991   5.585  70.359  1.00  0.00    -0.279 A  
HETATM   28  C   UNL     1     -10.796   6.575  67.882  1.00  0.00    -0.383 A  
HETATM   29  C   UNL     1     -11.623   6.733  68.990  1.00  0.00     0.048 A  
HETATM   30  C   UNL     1     -11.220   6.240  70.228  1.00  0.00    -0.455 A  
ENDBRANCH  24  25
BRANCH  24  31
HETATM   31  C   UNL     1      -7.582   3.674  68.240  1.00  0.00    -0.061 A  
HETATM   32  C   UNL     1      -7.120   1.604  66.392  1.00  0.00    -0.047 A  
HETATM   33  C   UNL     1      -6.249   2.688  66.455  1.00  0.00    -0.024 A  
HETATM   34  C   UNL     1      -8.463   2.581  68.146  1.00  0.00    -0.097 A  
HETATM   35  C   UNL     1      -6.475   3.713  67.375  1.00  0.00    -0.038 A  
HETATM   36  C   UNL     1      -8.227   1.550  67.235  1.00  0.00    -0.073 A  
ENDBRANCH  24  31
ENDBRANCH  21  24
ENDBRANCH  17  18
ENDBRANCH  16  17
ENDBRANCH  15  16
ENDBRANCH  13  15
ENDBRANCH  11  13
BRANCH  12  37
HETATM   37  C   UNL     1     -10.554  13.901  68.739  1.00  0.00    -0.258 A  
HETATM   38  C   UNL     1     -11.050  15.422  70.570  1.00  0.00    -0.361 A  
HETATM   39  O   UNL     1     -13.106  11.156  70.523  1.00  0.00    -0.122 OA 
HETATM   40  C   UNL     1     -11.409  12.943  69.322  1.00  0.00    -0.303 A  
HETATM   41  O   UNL     1     -13.545  12.534  72.171  1.00  0.00    -0.500 OA 
HETATM   42  C   UNL     1     -12.075  13.236  70.518  1.00  0.00    -0.314 A  
HETATM   43  C   UNL     1     -11.907  14.478  71.140  1.00  0.00    -0.353 A  
HETATM   44  N   UNL     1     -12.974  12.236  71.112  1.00  0.00    -0.213 N  
HETATM   45  C   UNL     1     -10.370  15.132  69.385  1.00  0.00    -0.259 A  
ENDBRANCH  12  37
ENDBRANCH   3   5
ENDBRANCH   2   3
TORSDOF 11
ENDMDL
MODEL      240
REMARK 921   NORMALIZED FREE ENERGY PREDICTED BY IDOCK:    2.59 KCAL/MOL
REMARK 922        TOTAL FREE ENERGY PREDICTED BY IDOCK:    2.40 KCAL/MOL
REMARK 923 INTER-LIGAND FREE ENERGY PREDICTED BY IDOCK:   -6.12 KCAL/MOL
REMARK 924 INTRA-LIGAND FREE ENERGY PREDICTED BY IDOCK:    8.52 KCAL/MOL
REMARK 927      BINDING AFFINITY PREDICTED BY RF-SCORE:    0.00 PKD
ROOT
HETATM    1  C   UNL     1      -6.221  10.747  70.480  1.00  0.00    -0.086 C  
HETATM    2  O   UNL     1      -5.987   9.337  70.528  1.00  0.00    -0.039 OA 
ENDROOT
BRANCH   2   3
HETATM    3  C   UNL     1      -7.045   8.632  71.003  1.00  0.00    -0.076 C  
HETATM    4  O   UNL     1      -6.969   7.530  71.530  1.00  0.00    -0.053 OA 
BRANCH   3   5
HETATM    5  C   UNL     1      -8.316   9.363  70.755  1.00  0.00    -0.180 C  
HETATM    6  C   UNL     1      -9.294   9.418  71.698  1.00  0.00     0.379 C  
HETATM    7  N   UNL     1     -10.484  10.071  71.412  1.00  0.00     0.383 NA 
HETATM    8  C   UNL     1      -9.257   8.818  73.080  1.00  0.00     0.394 C  
HETATM    9  C   UNL     1     -10.855  10.512  70.160  1.00  0.00    -0.227 C  
HETATM   10  C   UNL     1     -12.295  10.943  70.007  1.00  0.00    -0.385 C  
HETATM   11  C   UNL     1      -9.947  10.512  69.158  1.00  0.00    -0.236 C  
HETATM   12  C   UNL     1      -8.511  10.026  69.383  1.00  0.00    -0.176 C  
BRANCH  11  13
HETATM   13  C   UNL     1     -10.387  10.838  67.786  1.00  0.00    -0.193 C  
HETATM   14  O   UNL     1     -11.522  11.196  67.506  1.00  0.00    -0.447 OA 
BRANCH  13  15
HETATM   15  O   UNL     1      -9.378  10.662  66.893  1.00  0.00    -0.157 OA 
BRANCH  15  16
HETATM   16  C   UNL     1      -9.252  11.756  65.961  1.00  0.00    -0.194 C  
BRANCH  16  17
HETATM   17  C   UNL     1     -10.652  12.236  65.547  1.00  0.00    -0.269 C  
BRANCH  17  18
HETATM   18  N   UNL     1     -11.203  13.374  66.303  1.00  0.00    -0.301 NA 
HETATM   19  C   UNL     1      -9.021  14.438  67.103  1.00  0.00    -0.232 C  
HETATM   20  C   UNL     1     -10.365  13.753  67.463  1.00  0.00    -0.241 C  
HETATM   21  N   UNL     1      -9.165  15.651  66.259  1.00  0.00    -0.303 NA 
HETATM   22  C   UNL     1     -11.318  14.548  65.399  1.00  0.00    -0.341 C  
HETATM   23  C   UNL     1      -9.972  15.254  65.075  1.00  0.00    -0.124 C  
BRANCH  21  24
HETATM   24  C   UNL     1      -9.782  16.785  67.014  1.00  0.00    -0.251 C  
BRANCH  24  25
HETATM   25  C   UNL     1     -10.245  16.394  68.428  1.00  0.00    -0.259 A  
HETATM   26  C   UNL     1     -11.607  16.510  68.773  1.00  0.00    -0.042 A  
HETATM   27  C   UNL     1      -9.368  15.873  69.393  1.00  0.00    -0.250 A  
HETATM   28  C   UNL     1     -12.067  16.127  70.035  1.00  0.00     0.011 A  
HETATM   29  C   UNL     1     -11.175  15.636  70.984  1.00  0.00    -0.411 A  
HETATM   30  C   UNL     1      -9.826  15.511  70.664  1.00  0.00     0.718 A  
ENDBRANCH  24  25
BRANCH  24  31
HETATM   31  C   UNL     1      -8.895  18.039  67.010  1.00  0.00    -0.259 A  
HETATM   32  C   UNL     1      -7.060  20.169  67.111  1.00  0.00    -0.293 A  
HETATM   33  C   UNL     1      -8.072  20.075  68.063  1.00  0.00    -0.270 A  
HETATM   34  C   UNL     1      -7.879  18.163  66.044  1.00  0.00    -0.174 A  
HETATM   35  C   UNL     1      -8.980  19.016  68.016  1.00  0.00    -0.348 A  
HETATM   36  C   UNL     1      -6.964  19.215  66.101  1.00  0.00    -0.266 A  
ENDBRANCH  24  31
ENDBRANCH  21  24
ENDBRANCH  17  18
ENDBRANCH  16  17
ENDBRANCH  15  16
ENDBRANCH  13  15
ENDBRANCH  11  13
BRANCH  12  37
HETATM   37  C   UNL     1      -8.052   9.132  68.220  1.00  0.00    -0.104 A  
HETATM   38  C   UNL     1      -6.460   8.592  66.463  1.00  0.00    -0.059 A  
HETATM   39  O   UNL     1      -9.915   5.505  67.445  1.00  0.00    -0.138 OA 
HETATM   40  C   UNL     1      -8.713   7.911  67.978  1.00  0.00    -0.125 A  
HETATM   41  O   UNL     1      -8.475   5.028  65.861  1.00  0.00    -0.116 OA 
HETATM   42  C   UNL     1      -8.239   7.044  66.985  1.00  0.00    -0.117 A  
HETATM   43  C   UNL     1      -7.107   7.376  66.233  1.00  0.00    -0.070 A  
HETATM   44  N   UNL     1      -8.926   5.766  66.748  1.00  0.00    -0.116 N  
HETATM   45  C   UNL     1      -6.935   9.469  67.441  1.00  0.00    -0.084 A  
ENDBRANCH  12  37
ENDBRANCH   3   5
ENDBRANCH   2   3
TORSDOF 11
ENDMDL
MODEL      241
REMARK 921   NORMALIZED FREE ENERGY PREDICTED BY IDOCK:    2.66 KCAL/MOL
REMARK 922        TOTAL FREE ENERGY PREDICTED BY IDOCK:    2.51 KCAL/MOL
REMARK 923 INTER-LIGAND FREE ENERGY PREDICTED BY IDOCK:   -2.28 KCAL/MOL
REMARK 924 INTRA-LIGAND FREE ENERGY PREDICTED BY IDOCK:    4.79 KCAL/MOL
REMARK 927      BINDING AFFINITY PREDICTED BY RF-SCORE:    0.00 PKD
ROOT
HETATM    1  C   UNL     1      -9.894   8.207  65.296  1.00  0.00     1.361 C  
HETATM    2  O   UNL     1      -9.123   8.971  64.363  1.00  0.00    -0.087 OA 
ENDROOT
BRANCH   2   3
HETATM    3  C   UNL     1      -8.011   9.523  64.910  1.00  0.00    -0.121 C  
HETATM    4  O   UNL     1      -7.703  10.704  64.822  1.00  0.00    -0.052 OA 
BRANCH   3   5
HETATM    5  C   UNL     1      -7.194   8.488  65.596  1.00  0.00    -0.079 C  
HETATM    6  C   UNL     1      -6.655   7.445  64.910  1.00  0.00    -0.043 C  
HETATM    7  N   UNL     1      -5.937   6.474  65.594  1.00  0.00    -0.032 NA 
HETATM    8  C   UNL     1      -6.751   7.186  63.429  1.00  0.00    -0.052 C  
HETATM    9  C   UNL     1      -5.884   6.359  66.966  1.00  0.00    -0.020 C  
HETATM   10  C   UNL     1      -5.284   5.081  67.503  1.00  0.00    -0.008 C  
HETATM   11  C   UNL     1      -6.381   7.353  67.737  1.00  0.00    -0.048 C  
HETATM   12  C   UNL     1      -7.007   8.607  67.116  1.00  0.00    -0.074 C  
BRANCH  11  13
HETATM   13  C   UNL     1      -6.463   7.160  69.199  1.00  0.00    -0.036 C  
HETATM   14  O   UNL     1      -6.450   6.063  69.739  1.00  0.00    -0.038 OA 
BRANCH  13  15
HETATM   15  O   UNL     1      -6.580   8.350  69.846  1.00  0.00    -0.038 OA 
BRANCH  15  16
HETATM   16  C   UNL     1      -5.425   9.198  69.680  1.00  0.00    -0.034 C  
BRANCH  16  17
HETATM   17  C   UNL     1      -5.805  10.648  70.022  1.00  0.00    -0.076 C  
BRANCH  17  18
HETATM   18  N   UNL     1      -6.559  11.387  68.995  1.00  0.00    -0.077 NA 
HETATM   19  C   UNL     1      -7.145  13.482  70.339  1.00  0.00     1.190 C  
HETATM   20  C   UNL     1      -7.635  12.228  69.568  1.00  0.00     0.653 C  
HETATM   21  N   UNL     1      -6.271  14.380  69.543  1.00  0.00    -0.112 NA 
HETATM   22  C   UNL     1      -5.624  12.263  68.243  1.00  0.00    -0.054 C  
HETATM   23  C   UNL     1      -5.170  13.538  69.005  1.00  0.00    -0.070 C  
BRANCH  21  24
HETATM   24  C   UNL     1      -7.030  15.082  68.461  1.00  0.00    -0.106 C  
BRANCH  24  25
HETATM   25  C   UNL     1      -8.513  14.678  68.399  1.00  0.00    -0.160 A  
HETATM   26  C   UNL     1      -9.388  15.080  69.428  1.00  0.00    -0.120 A  
HETATM   27  C   UNL     1      -9.055  13.956  67.323  1.00  0.00    -0.230 A  
HETATM   28  C   UNL     1     -10.748  14.763  69.383  1.00  0.00    -0.250 A  
HETATM   29  C   UNL     1     -11.259  14.025  68.319  1.00  0.00    -0.293 A  
HETATM   30  C   UNL     1     -10.412  13.621  67.291  1.00  0.00    -0.260 A  
ENDBRANCH  24  25
BRANCH  24  31
HETATM   31  C   UNL     1      -6.835  16.605  68.508  1.00  0.00    -0.157 A  
HETATM   32  C   UNL     1      -6.721  19.406  68.747  1.00  0.00    -0.338 A  
HETATM   33  C   UNL     1      -7.132  18.825  67.551  1.00  0.00    -0.216 A  
HETATM   34  C   UNL     1      -6.401  17.210  69.702  1.00  0.00    -0.209 A  
HETATM   35  C   UNL     1      -7.193  17.435  67.432  1.00  0.00    -0.188 A  
HETATM   36  C   UNL     1      -6.354  18.600  69.822  1.00  0.00    -0.184 A  
ENDBRANCH  24  31
ENDBRANCH  21  24
ENDBRANCH  17  18
ENDBRANCH  16  17
ENDBRANCH  15  16
ENDBRANCH  13  15
ENDBRANCH  11  13
BRANCH  12  37
HETATM   37  C   UNL     1      -8.306   8.983  67.848  1.00  0.00    -0.117 A  
HETATM   38  C   UNL     1     -10.162  10.509  68.221  1.00  0.00    -0.185 A  
HETATM   39  O   UNL     1     -10.251   6.253  70.296  1.00  0.00    -0.184 OA 
HETATM   40  C   UNL     1      -8.936   8.035  68.680  1.00  0.00    -0.134 A  
HETATM   41  O   UNL     1     -11.919   7.637  70.628  1.00  0.00    -0.223 OA 
HETATM   42  C   UNL     1     -10.171   8.333  69.269  1.00  0.00    -0.204 A  
HETATM   43  C   UNL     1     -10.792   9.565  69.034  1.00  0.00    -0.184 A  
HETATM   44  N   UNL     1     -10.827   7.334  70.125  1.00  0.00    -0.251 N  
HETATM   45  C   UNL     1      -8.924  10.225  67.641  1.00  0.00    -0.137 A  
ENDBRANCH  12  37
ENDBRANCH   3   5
ENDBRANCH   2   3
TORSDOF 11
ENDMDL
MODEL      242
REMARK 921   NORMALIZED FREE ENERGY PREDICTED BY IDOCK:    2.76 KCAL/MOL
REMARK 922        TOTAL FREE ENERGY PREDICTED BY IDOCK:    2.67 KCAL/MOL
REMARK 923 INTER-LIGAND FREE ENERGY PREDICTED BY IDOCK:   -3.37 KCAL/MOL
REMARK 924 INTRA-LIGAND FREE ENERGY PREDICTED BY IDOCK:    6.05 KCAL/MOL
REMARK 927      BINDING AFFINITY PREDICTED BY RF-SCORE:    0.00 PKD
ROOT
HETATM    1  C   UNL     1     -10.369   6.112  67.714  1.00  0.00    -0.198 C  
HETATM    2  O   UNL     1     -11.397   7.106  67.733  1.00  0.00     0.031 OA 
ENDROOT
BRANCH   2   3
HETATM    3  C   UNL     1     -10.944   8.355  67.455  1.00  0.00     0.171 C  
HETATM    4  O   UNL     1     -11.657   9.338  67.302  1.00  0.00     0.904 OA 
BRANCH   3   5
HETATM    5  C   UNL     1      -9.463   8.358  67.320  1.00  0.00    -0.196 C  
HETATM    6  C   UNL     1      -8.864   8.124  66.123  1.00  0.00    -0.162 C  
HETATM    7  N   UNL     1      -7.479   8.089  66.046  1.00  0.00    -0.076 NA 
HETATM    8  C   UNL     1      -9.543   7.872  64.801  1.00  0.00     1.872 C  
HETATM    9  C   UNL     1      -6.633   8.073  67.134  1.00  0.00    -0.057 C  
HETATM   10  C   UNL     1      -5.185   7.754  66.846  1.00  0.00    -0.027 C  
HETATM   11  C   UNL     1      -7.133   8.311  68.368  1.00  0.00    -0.081 C  
HETATM   12  C   UNL     1      -8.624   8.594  68.584  1.00  0.00    -0.131 C  
BRANCH  11  13
HETATM   13  C   UNL     1      -6.257   8.142  69.546  1.00  0.00    -0.033 C  
HETATM   14  O   UNL     1      -5.931   7.053  69.996  1.00  0.00    -0.023 OA 
BRANCH  13  15
HETATM   15  O   UNL     1      -5.896   9.345  70.065  1.00  0.00    -0.034 OA 
BRANCH  15  16
HETATM   16  C   UNL     1      -5.895  10.404  69.086  1.00  0.00    -0.037 C  
BRANCH  16  17
HETATM   17  C   UNL     1      -7.345  10.792  68.755  1.00  0.00    -0.104 C  
BRANCH  17  18
HETATM   18  N   UNL     1      -7.564  11.464  67.462  1.00  0.00    -0.111 NA 
HETATM   19  C   UNL     1      -9.608  12.875  68.068  1.00  0.00    -0.221 C  
HETATM   20  C   UNL     1      -8.993  11.748  67.198  1.00  0.00    -0.177 C  
HETATM   21  N   UNL     1      -8.886  14.170  67.982  1.00  0.00    -0.173 NA 
HETATM   22  C   UNL     1      -6.817  12.747  67.448  1.00  0.00    -0.133 C  
HETATM   23  C   UNL     1      -7.459  13.885  68.289  1.00  0.00    -0.118 C  
BRANCH  21  24
HETATM   24  C   UNL     1      -9.061  14.818  66.645  1.00  0.00    -0.272 C  
BRANCH  24  25
HETATM   25  C   UNL     1     -10.166  14.167  65.794  1.00  0.00    -0.347 A  
HETATM   26  C   UNL     1     -11.470  14.703  65.819  1.00  0.00    -0.338 A  
HETATM   27  C   UNL     1      -9.922  13.077  64.944  1.00  0.00    -0.151 A  
HETATM   28  C   UNL     1     -12.487  14.161  65.030  1.00  0.00    -0.434 A  
HETATM   29  C   UNL     1     -12.228  13.064  64.213  1.00  0.00    -0.464 A  
HETATM   30  C   UNL     1     -10.947  12.521  64.172  1.00  0.00    -0.425 A  
ENDBRANCH  24  25
BRANCH  24  31
HETATM   31  C   UNL     1      -9.220  16.342  66.753  1.00  0.00    -0.253 A  
HETATM   32  C   UNL     1      -9.794  19.091  66.911  1.00  0.00    -0.385 A  
HETATM   33  C   UNL     1      -9.228  18.563  65.754  1.00  0.00     0.433 A  
HETATM   34  C   UNL     1      -9.771  16.898  67.922  1.00  0.00    -0.254 A  
HETATM   35  C   UNL     1      -8.947  17.198  65.672  1.00  0.00     0.414 A  
HETATM   36  C   UNL     1     -10.064  18.260  67.995  1.00  0.00    -0.381 A  
ENDBRANCH  24  31
ENDBRANCH  21  24
ENDBRANCH  17  18
ENDBRANCH  16  17
ENDBRANCH  15  16
ENDBRANCH  13  15
ENDBRANCH  11  13
BRANCH  12  37
HETATM   37  C   UNL     1      -9.152   7.819  69.802  1.00  0.00    -0.147 A  
HETATM   38  C   UNL     1     -10.698   7.599  71.666  1.00  0.00    -0.243 A  
HETATM   39  O   UNL     1      -7.880   3.947  70.590  1.00  0.00    -0.053 OA 
HETATM   40  C   UNL     1      -8.692   6.509  70.047  1.00  0.00    -0.140 A  
HETATM   41  O   UNL     1      -9.277   3.759  72.271  1.00  0.00    -0.110 OA 
HETATM   42  C   UNL     1      -9.242   5.759  71.094  1.00  0.00    -0.153 A  
HETATM   43  C   UNL     1     -10.252   6.296  71.900  1.00  0.00    -0.227 A  
HETATM   44  N   UNL     1      -8.765   4.389  71.334  1.00  0.00    -0.110 N  
HETATM   45  C   UNL     1     -10.145   8.359  70.634  1.00  0.00    -0.220 A  
ENDBRANCH  12  37
ENDBRANCH   3   5
ENDBRANCH   2   3
TORSDOF 11
ENDMDL
MODEL      243
REMARK 921   NORMALIZED FREE ENERGY PREDICTED BY IDOCK:    2.90 KCAL/MOL
REMARK 922        TOTAL FREE ENERGY PREDICTED BY IDOCK:    2.90 KCAL/MOL
REMARK 923 INTER-LIGAND FREE ENERGY PREDICTED BY IDOCK:   -1.59 KCAL/MOL
REMARK 924 INTRA-LIGAND FREE ENERGY PREDICTED BY IDOCK:    4.49 KCAL/MOL
REMARK 927      BINDING AFFINITY PREDICTED BY RF-SCORE:    0.00 PKD
ROOT
HETATM    1  C   UNL     1     -11.842  16.172  67.444  1.00  0.00     0.646 C  
HETATM    2  O   UNL     1     -11.745  16.048  66.022  1.00  0.00     0.472 OA 
ENDROOT
BRANCH   2   3
HETATM    3  C   UNL     1     -10.567  15.516  65.607  1.00  0.00    -0.373 C  
HETATM    4  O   UNL     1     -10.161  15.535  64.453  1.00  0.00     0.060 OA 
BRANCH   3   5
HETATM    5  C   UNL     1      -9.856  14.870  66.741  1.00  0.00    -0.254 C  
HETATM    6  C   UNL     1     -10.493  14.003  67.572  1.00  0.00    -0.252 C  
HETATM    7  N   UNL     1      -9.807  13.455  68.646  1.00  0.00    -0.167 NA 
HETATM    8  C   UNL     1     -11.926  13.545  67.481  1.00  0.00    -0.385 C  
HETATM    9  C   UNL     1      -8.565  13.869  69.077  1.00  0.00     0.218 C  
HETATM   10  C   UNL     1      -8.117  13.342  70.420  1.00  0.00     3.661 C  
HETATM   11  C   UNL     1      -7.845  14.721  68.312  1.00  0.00    -0.125 C  
HETATM   12  C   UNL     1      -8.383  15.240  66.973  1.00  0.00    -0.267 C  
BRANCH  11  13
HETATM   13  C   UNL     1      -6.587  15.282  68.844  1.00  0.00    -0.108 C  
HETATM   14  O   UNL     1      -6.539  16.067  69.781  1.00  0.00    -0.195 OA 
BRANCH  13  15
HETATM   15  O   UNL     1      -5.513  14.833  68.143  1.00  0.00    -0.107 OA 
BRANCH  15  16
HETATM   16  C   UNL     1      -5.236  13.435  68.370  1.00  0.00    -0.093 C  
BRANCH  16  17
HETATM   17  C   UNL     1      -6.269  12.582  67.615  1.00  0.00    -0.141 C  
BRANCH  17  18
HETATM   18  N   UNL     1      -6.031  11.129  67.598  1.00  0.00    -0.047 NA 
HETATM   19  C   UNL     1      -7.270  10.481  69.738  1.00  0.00    -0.149 C  
HETATM   20  C   UNL     1      -5.933  10.548  68.956  1.00  0.00    -0.040 C  
HETATM   21  N   UNL     1      -8.350   9.747  69.031  1.00  0.00    -0.120 NA 
HETATM   22  C   UNL     1      -7.148  10.463  66.879  1.00  0.00    -0.094 C  
HETATM   23  C   UNL     1      -8.473  10.362  67.683  1.00  0.00    -0.114 C  
BRANCH  21  24
HETATM   24  C   UNL     1      -8.074   8.278  68.963  1.00  0.00    -0.117 C  
BRANCH  24  25
HETATM   25  C   UNL     1      -8.853   7.464  70.010  1.00  0.00    -0.141 A  
HETATM   26  C   UNL     1      -8.255   7.174  71.252  1.00  0.00    -0.108 A  
HETATM   27  C   UNL     1     -10.171   7.029  69.800  1.00  0.00    -0.213 A  
HETATM   28  C   UNL     1      -8.948   6.469  72.240  1.00  0.00    -0.138 A  
HETATM   29  C   UNL     1     -10.245   6.027  72.001  1.00  0.00    -0.228 A  
HETATM   30  C   UNL     1     -10.856   6.304  70.781  1.00  0.00    -0.339 A  
ENDBRANCH  24  25
BRANCH  24  31
HETATM   31  C   UNL     1      -8.237   7.721  67.540  1.00  0.00    -0.124 A  
HETATM   32  C   UNL     1      -8.350   6.905  64.851  1.00  0.00    -0.022 A  
HETATM   33  C   UNL     1      -9.399   7.637  65.401  1.00  0.00     0.496 A  
HETATM   34  C   UNL     1      -7.197   6.962  66.973  1.00  0.00    -0.084 A  
HETATM   35  C   UNL     1      -9.341   8.047  66.735  1.00  0.00    -0.229 A  
HETATM   36  C   UNL     1      -7.251   6.566  65.635  1.00  0.00    -0.073 A  
ENDBRANCH  24  31
ENDBRANCH  21  24
ENDBRANCH  17  18
ENDBRANCH  16  17
ENDBRANCH  15  16
ENDBRANCH  13  15
ENDBRANCH  11  13
BRANCH  12  37
HETATM   37  C   UNL     1      -8.118  16.747  66.831  1.00  0.00    -0.246 A  
HETATM   38  C   UNL     1      -6.929  18.601  65.803  1.00  0.00    -0.290 A  
HETATM   39  O   UNL     1     -10.606  19.537  68.636  1.00  0.00    -0.226 OA 
HETATM   40  C   UNL     1      -8.977  17.668  67.465  1.00  0.00    -0.235 A  
HETATM   41  O   UNL     1      -9.525  21.202  67.705  1.00  0.00    -0.116 OA 
HETATM   42  C   UNL     1      -8.804  19.042  67.258  1.00  0.00    -0.281 A  
HETATM   43  C   UNL     1      -7.788  19.513  66.420  1.00  0.00    -0.317 A  
HETATM   44  N   UNL     1      -9.712  19.995  67.913  1.00  0.00    -0.383 N  
HETATM   45  C   UNL     1      -7.085  17.230  66.015  1.00  0.00    -0.200 A  
ENDBRANCH  12  37
ENDBRANCH   3   5
ENDBRANCH   2   3
TORSDOF 11
ENDMDL
MODEL      244
REMARK 921   NORMALIZED FREE ENERGY PREDICTED BY IDOCK:    2.96 KCAL/MOL
REMARK 922        TOTAL FREE ENERGY PREDICTED BY IDOCK:    3.01 KCAL/MOL
REMARK 923 INTER-LIGAND FREE ENERGY PREDICTED BY IDOCK:   -5.10 KCAL/MOL
REMARK 924 INTRA-LIGAND FREE ENERGY PREDICTED BY IDOCK:    8.11 KCAL/MOL
REMARK 927      BINDING AFFINITY PREDICTED BY RF-SCORE:    0.00 PKD
ROOT
HETATM    1  C   UNL     1     -13.445  15.325  70.411  1.00  0.00     0.061 C  
HETATM    2  O   UNL     1     -12.072  15.021  70.670  1.00  0.00    -0.276 OA 
ENDROOT
BRANCH   2   3
HETATM    3  C   UNL     1     -11.604  13.976  69.941  1.00  0.00    -0.254 C  
HETATM    4  O   UNL     1     -10.884  14.079  68.957  1.00  0.00    -0.251 OA 
BRANCH   3   5
HETATM    5  C   UNL     1     -12.123  12.690  70.476  1.00  0.00    -0.360 C  
HETATM    6  C   UNL     1     -12.741  12.626  71.684  1.00  0.00    -0.187 C  
HETATM    7  N   UNL     1     -13.170  11.399  72.170  1.00  0.00    -0.385 NA 
HETATM    8  C   UNL     1     -13.024  13.772  72.621  1.00  0.00    -0.404 C  
HETATM    9  C   UNL     1     -12.845  10.179  71.616  1.00  0.00    -0.454 C  
HETATM   10  C   UNL     1     -13.176   8.962  72.448  1.00  0.00    -0.482 C  
HETATM   11  C   UNL     1     -12.241  10.138  70.407  1.00  0.00    -0.300 C  
HETATM   12  C   UNL     1     -11.905  11.421  69.638  1.00  0.00    -0.431 C  
BRANCH  11  13
HETATM   13  C   UNL     1     -11.756   8.843  69.887  1.00  0.00     0.339 C  
HETATM   14  O   UNL     1     -11.523   8.633  68.705  1.00  0.00     0.568 OA 
BRANCH  13  15
HETATM   15  O   UNL     1     -11.634   7.927  70.884  1.00  0.00    -0.284 OA 
BRANCH  15  16
HETATM   16  C   UNL     1     -11.042   6.688  70.443  1.00  0.00    -0.322 C  
BRANCH  16  17
HETATM   17  C   UNL     1     -10.153   6.122  71.563  1.00  0.00    -0.192 C  
BRANCH  17  18
HETATM   18  N   UNL     1      -9.511   4.824  71.296  1.00  0.00    -0.148 NA 
HETATM   19  C   UNL     1     -10.214   4.506  68.858  1.00  0.00     0.146 C  
HETATM   20  C   UNL     1     -10.264   4.000  70.324  1.00  0.00     0.353 C  
HETATM   21  N   UNL     1      -8.839   4.664  68.319  1.00  0.00    -0.103 NA 
HETATM   22  C   UNL     1      -8.146   5.059  70.758  1.00  0.00    -0.095 C  
HETATM   23  C   UNL     1      -8.100   5.527  69.278  1.00  0.00    -0.095 C  
BRANCH  21  24
HETATM   24  C   UNL     1      -8.168   3.344  68.107  1.00  0.00    -0.078 C  
BRANCH  24  25
HETATM   25  C   UNL     1      -7.713   3.118  66.655  1.00  0.00    -0.077 A  
HETATM   26  C   UNL     1      -8.472   3.657  65.596  1.00  0.00    -0.110 A  
HETATM   27  C   UNL     1      -6.533   2.431  66.331  1.00  0.00    -0.028 A  
HETATM   28  C   UNL     1      -8.067   3.504  64.268  1.00  0.00    -0.086 A  
HETATM   29  C   UNL     1      -6.906   2.797  63.969  1.00  0.00    -0.036 A  
HETATM   30  C   UNL     1      -6.141   2.259  65.000  1.00  0.00    -0.019 A  
ENDBRANCH  24  25
BRANCH  24  31
HETATM   31  C   UNL     1      -7.044   3.093  69.123  1.00  0.00    -0.045 A  
HETATM   32  C   UNL     1      -5.178   2.693  71.190  1.00  0.00    -0.004 A  
HETATM   33  C   UNL     1      -5.145   3.865  70.440  1.00  0.00     0.000 A  
HETATM   34  C   UNL     1      -7.047   1.906  69.879  1.00  0.00    -0.033 A  
HETATM   35  C   UNL     1      -6.074   4.067  69.417  1.00  0.00    -0.027 A  
HETATM   36  C   UNL     1      -6.127   1.714  70.910  1.00  0.00    -0.018 A  
ENDBRANCH  24  31
ENDBRANCH  21  24
ENDBRANCH  17  18
ENDBRANCH  16  17
ENDBRANCH  15  16
ENDBRANCH  13  15
ENDBRANCH  11  13
BRANCH  12  37
HETATM   37  C   UNL     1     -10.493  11.339  69.037  1.00  0.00    -0.221 A  
HETATM   38  C   UNL     1      -8.898  11.897  67.289  1.00  0.00    -0.179 A  
HETATM   39  O   UNL     1      -7.329   9.764  71.216  1.00  0.00    -0.290 OA 
HETATM   40  C   UNL     1      -9.442  10.789  69.801  1.00  0.00     0.328 A  
HETATM   41  O   UNL     1      -5.899  10.270  69.631  1.00  0.00    -0.040 OA 
HETATM   42  C   UNL     1      -8.134  10.803  69.301  1.00  0.00    -0.096 A  
HETATM   43  C   UNL     1      -7.856  11.365  68.051  1.00  0.00    -0.121 A  
HETATM   44  N   UNL     1      -7.043  10.239  70.109  1.00  0.00    -0.157 N  
HETATM   45  C   UNL     1     -10.208  11.874  67.773  1.00  0.00    -0.211 A  
ENDBRANCH  12  37
ENDBRANCH   3   5
ENDBRANCH   2   3
TORSDOF 11
ENDMDL
MODEL      245
REMARK 921   NORMALIZED FREE ENERGY PREDICTED BY IDOCK:    3.01 KCAL/MOL
REMARK 922        TOTAL FREE ENERGY PREDICTED BY IDOCK:    3.08 KCAL/MOL
REMARK 923 INTER-LIGAND FREE ENERGY PREDICTED BY IDOCK:   -5.13 KCAL/MOL
REMARK 924 INTRA-LIGAND FREE ENERGY PREDICTED BY IDOCK:    8.21 KCAL/MOL
REMARK 927      BINDING AFFINITY PREDICTED BY RF-SCORE:    0.00 PKD
ROOT
HETATM    1  C   UNL     1     -10.744  18.785  67.262  1.00  0.00    -0.425 C  
HETATM    2  O   UNL     1     -10.130  18.370  66.039  1.00  0.00    -0.491 OA 
ENDROOT
BRANCH   2   3
HETATM    3  C   UNL     1      -8.830  18.008  66.186  1.00  0.00    -0.085 C  
HETATM    4  O   UNL     1      -7.930  18.312  65.414  1.00  0.00    -0.146 OA 
BRANCH   3   5
HETATM    5  C   UNL     1      -8.655  17.156  67.391  1.00  0.00    -0.212 C  
HETATM    6  C   UNL     1      -7.475  17.117  68.064  1.00  0.00    -0.195 C  
HETATM    7  N   UNL     1      -7.337  16.274  69.157  1.00  0.00    -0.212 NA 
HETATM    8  C   UNL     1      -6.227  17.903  67.753  1.00  0.00    -0.169 C  
HETATM    9  C   UNL     1      -8.245  15.301  69.516  1.00  0.00    -0.188 C  
HETATM   10  C   UNL     1      -7.781  14.313  70.560  1.00  0.00     1.608 C  
HETATM   11  C   UNL     1      -9.455  15.265  68.914  1.00  0.00    -0.218 C  
HETATM   12  C   UNL     1      -9.840  16.284  67.835  1.00  0.00    -0.237 C  
BRANCH  11  13
HETATM   13  C   UNL     1     -10.364  14.133  69.187  1.00  0.00    -0.089 C  
HETATM   14  O   UNL     1     -11.582  14.233  69.205  1.00  0.00    -0.266 OA 
BRANCH  13  15
HETATM   15  O   UNL     1      -9.668  12.994  69.439  1.00  0.00     0.584 OA 
BRANCH  15  16
HETATM   16  C   UNL     1     -10.397  11.798  69.093  1.00  0.00     0.024 C  
BRANCH  16  17
HETATM   17  C   UNL     1      -9.408  10.710  68.643  1.00  0.00    -0.177 C  
BRANCH  17  18
HETATM   18  N   UNL     1      -9.686   9.340  69.108  1.00  0.00    -0.160 NA 
HETATM   19  C   UNL     1      -7.727   8.123  68.004  1.00  0.00    -0.114 C  
HETATM   20  C   UNL     1      -9.261   8.308  68.136  1.00  0.00    -0.134 C  
HETATM   21  N   UNL     1      -7.041   7.819  69.286  1.00  0.00    -0.073 NA 
HETATM   22  C   UNL     1      -8.968   9.108  70.388  1.00  0.00    -0.229 C  
HETATM   23  C   UNL     1      -7.438   8.883  70.246  1.00  0.00    -0.074 C  
BRANCH  21  24
HETATM   24  C   UNL     1      -7.375   6.449  69.785  1.00  0.00    -0.080 C  
BRANCH  24  25
HETATM   25  C   UNL     1      -8.349   6.457  70.977  1.00  0.00    -0.123 A  
HETATM   26  C   UNL     1      -7.868   6.760  72.266  1.00  0.00    -0.095 A  
HETATM   27  C   UNL     1      -9.725   6.219  70.829  1.00  0.00    -0.202 A  
HETATM   28  C   UNL     1      -8.731   6.813  73.364  1.00  0.00    -0.140 A  
HETATM   29  C   UNL     1     -10.088   6.549  73.199  1.00  0.00    -0.208 A  
HETATM   30  C   UNL     1     -10.584   6.251  71.932  1.00  0.00    -0.258 A  
ENDBRANCH  24  25
BRANCH  24  31
HETATM   31  C   UNL     1      -7.832   5.513  68.656  1.00  0.00    -0.091 A  
HETATM   32  C   UNL     1      -8.720   4.037  66.432  1.00  0.00    -0.116 A  
HETATM   33  C   UNL     1      -9.550   4.196  67.539  1.00  0.00    -0.219 A  
HETATM   34  C   UNL     1      -7.000   5.322  67.538  1.00  0.00    -0.065 A  
HETATM   35  C   UNL     1      -9.112   4.933  68.641  1.00  0.00    -0.145 A  
HETATM   36  C   UNL     1      -7.446   4.597  66.431  1.00  0.00    -0.082 A  
ENDBRANCH  24  31
ENDBRANCH  21  24
ENDBRANCH  17  18
ENDBRANCH  16  17
ENDBRANCH  15  16
ENDBRANCH  13  15
ENDBRANCH  11  13
BRANCH  12  37
HETATM   37  C   UNL     1     -10.542  15.588  66.658  1.00  0.00    -0.307 A  
HETATM   38  C   UNL     1     -11.954  15.677  64.681  1.00  0.00    -0.051 A  
HETATM   39  O   UNL     1      -9.711  11.634  65.706  1.00  0.00    -0.225 OA 
HETATM   40  C   UNL     1     -10.244  14.241  66.368  1.00  0.00    -0.295 A  
HETATM   41  O   UNL     1     -10.989  11.725  63.926  1.00  0.00    -0.343 OA 
HETATM   42  C   UNL     1     -10.801  13.630  65.237  1.00  0.00    -0.322 A  
HETATM   43  C   UNL     1     -11.648  14.347  64.386  1.00  0.00    -0.346 A  
HETATM   44  N   UNL     1     -10.475  12.229  64.935  1.00  0.00    -0.280 N  
HETATM   45  C   UNL     1     -11.415  16.290  65.814  1.00  0.00     0.544 A  
ENDBRANCH  12  37
ENDBRANCH   3   5
ENDBRANCH   2   3
TORSDOF 11
ENDMDL
MODEL      246
REMARK 921   NORMALIZED FREE ENERGY PREDICTED BY IDOCK:    3.06 KCAL/MOL
REMARK 922        TOTAL FREE ENERGY PREDICTED BY IDOCK:    3.16 KCAL/MOL
REMARK 923 INTER-LIGAND FREE ENERGY PREDICTED BY IDOCK:   -3.22 KCAL/MOL
REMARK 924 INTRA-LIGAND FREE ENERGY PREDICTED BY IDOCK:    6.38 KCAL/MOL
REMARK 927      BINDING AFFINITY PREDICTED BY RF-SCORE:    0.00 PKD
ROOT
HETATM    1  C   UNL     1     -13.839  16.429  71.005  1.00  0.00     3.469 C  
HETATM    2  O   UNL     1     -12.458  16.058  70.978  1.00  0.00    -0.394 OA 
ENDROOT
BRANCH   2   3
HETATM    3  C   UNL     1     -12.158  15.171  69.995  1.00  0.00    -0.345 C  
HETATM    4  O   UNL     1     -11.783  15.476  68.871  1.00  0.00    -0.349 OA 
BRANCH   3   5
HETATM    5  C   UNL     1     -12.388  13.777  70.458  1.00  0.00    -0.429 C  
HETATM    6  C   UNL     1     -12.629  13.499  71.766  1.00  0.00    -0.168 C  
HETATM    7  N   UNL     1     -12.794  12.181  72.167  1.00  0.00    -0.163 NA 
HETATM    8  C   UNL     1     -12.733  14.486  72.901  1.00  0.00    -0.473 C  
HETATM    9  C   UNL     1     -12.534  11.082  71.375  1.00  0.00    -0.331 C  
HETATM   10  C   UNL     1     -12.507   9.746  72.080  1.00  0.00    -0.303 C  
HETATM   11  C   UNL     1     -12.297  11.255  70.056  1.00  0.00    -0.330 C  
HETATM   12  C   UNL     1     -12.308  12.649  69.418  1.00  0.00     0.046 C  
BRANCH  11  13
HETATM   13  C   UNL     1     -11.869  10.098  69.242  1.00  0.00     0.078 C  
HETATM   14  O   UNL     1     -11.760  10.131  68.024  1.00  0.00    -0.194 OA 
BRANCH  13  15
HETATM   15  O   UNL     1     -11.644   9.007  70.020  1.00  0.00    -0.084 OA 
BRANCH  15  16
HETATM   16  C   UNL     1     -11.095   7.894  69.285  1.00  0.00     0.131 C  
BRANCH  16  17
HETATM   17  C   UNL     1     -10.537   6.857  70.273  1.00  0.00    -0.218 C  
BRANCH  17  18
HETATM   18  N   UNL     1     -10.064   5.588  69.693  1.00  0.00    -0.215 NA 
HETATM   19  C   UNL     1      -9.997   6.258  67.227  1.00  0.00    -0.146 C  
HETATM   20  C   UNL     1     -10.592   5.347  68.332  1.00  0.00    -0.078 C  
HETATM   21  N   UNL     1      -8.516   6.206  67.132  1.00  0.00    -0.105 NA 
HETATM   22  C   UNL     1      -8.580   5.608  69.628  1.00  0.00    -0.110 C  
HETATM   23  C   UNL     1      -7.990   6.491  68.493  1.00  0.00    -0.110 C  
BRANCH  21  24
HETATM   24  C   UNL     1      -8.037   4.892  66.601  1.00  0.00    -0.107 C  
BRANCH  24  25
HETATM   25  C   UNL     1      -7.649   4.943  65.113  1.00  0.00    -0.078 A  
HETATM   26  C   UNL     1      -8.056   3.905  64.251  1.00  0.00    -0.090 A  
HETATM   27  C   UNL     1      -6.938   6.017  64.554  1.00  0.00    -0.051 A  
HETATM   28  C   UNL     1      -7.753   3.938  62.887  1.00  0.00    -0.062 A  
HETATM   29  C   UNL     1      -7.026   5.001  62.359  1.00  0.00    -0.030 A  
HETATM   30  C   UNL     1      -6.617   6.038  63.193  1.00  0.00    -0.036 A  
ENDBRANCH  24  25
BRANCH  24  31
HETATM   31  C   UNL     1      -6.935   4.276  67.477  1.00  0.00    -0.063 A  
HETATM   32  C   UNL     1      -5.127   3.082  69.270  1.00  0.00    -0.011 A  
HETATM   33  C   UNL     1      -5.208   4.469  69.183  1.00  0.00    -0.004 A  
HETATM   34  C   UNL     1      -6.823   2.876  67.563  1.00  0.00    -0.045 A  
HETATM   35  C   UNL     1      -6.109   5.063  68.297  1.00  0.00    -0.030 A  
HETATM   36  C   UNL     1      -5.932   2.285  68.460  1.00  0.00    -0.024 A  
ENDBRANCH  24  31
ENDBRANCH  21  24
ENDBRANCH  17  18
ENDBRANCH  16  17
ENDBRANCH  15  16
ENDBRANCH  13  15
ENDBRANCH  11  13
BRANCH  12  37
HETATM   37  C   UNL     1     -11.123  12.813  68.453  1.00  0.00    -0.293 A  
HETATM   38  C   UNL     1      -8.729  12.874  68.028  1.00  0.00    -0.191 A  
HETATM   39  O   UNL     1     -11.706  12.916  64.345  1.00  0.00    -0.333 OA 
HETATM   40  C   UNL     1     -11.357  12.854  67.064  1.00  0.00    -0.355 A  
HETATM   41  O   UNL     1      -9.546  12.973  63.972  1.00  0.00     0.021 OA 
HETATM   42  C   UNL     1     -10.276  12.901  66.174  1.00  0.00    -0.278 A  
HETATM   43  C   UNL     1      -8.961  12.901  66.651  1.00  0.00    -0.141 A  
HETATM   44  N   UNL     1     -10.529  12.931  64.726  1.00  0.00    -0.334 N  
HETATM   45  C   UNL     1      -9.801  12.842  68.922  1.00  0.00     0.140 A  
ENDBRANCH  12  37
ENDBRANCH   3   5
ENDBRANCH   2   3
TORSDOF 11
ENDMDL
MODEL      247
REMARK 921   NORMALIZED FREE ENERGY PREDICTED BY IDOCK:    4.02 KCAL/MOL
REMARK 922        TOTAL FREE ENERGY PREDICTED BY IDOCK:    4.74 KCAL/MOL
REMARK 923 INTER-LIGAND FREE ENERGY PREDICTED BY IDOCK:    3.21 KCAL/MOL
REMARK 924 INTRA-LIGAND FREE ENERGY PREDICTED BY IDOCK:    1.52 KCAL/MOL
REMARK 927      BINDING AFFINITY PREDICTED BY RF-SCORE:    0.00 PKD
ROOT
HETATM    1  C   UNL     1      -7.957  15.686  67.197  1.00  0.00    -0.219 C  
HETATM    2  O   UNL     1      -7.612  14.692  66.228  1.00  0.00     0.943 OA 
ENDROOT
BRANCH   2   3
HETATM    3  C   UNL     1      -8.417  13.600  66.265  1.00  0.00     0.739 C  
HETATM    4  O   UNL     1      -9.596  13.591  65.935  1.00  0.00    -0.222 OA 
BRANCH   3   5
HETATM    5  C   UNL     1      -7.682  12.425  66.802  1.00  0.00     0.115 C  
HETATM    6  C   UNL     1      -7.117  11.508  65.974  1.00  0.00     0.365 C  
HETATM    7  N   UNL     1      -6.479  10.400  66.513  1.00  0.00    -0.082 NA 
HETATM    8  C   UNL     1      -7.102  11.531  64.467  1.00  0.00     2.183 C  
HETATM    9  C   UNL     1      -6.537  10.030  67.840  1.00  0.00    -0.063 C  
HETATM   10  C   UNL     1      -6.012   8.652  68.170  1.00  0.00    -0.046 C  
HETATM   11  C   UNL     1      -7.068  10.883  68.745  1.00  0.00    -0.083 C  
HETATM   12  C   UNL     1      -7.613  12.253  68.327  1.00  0.00    -0.133 C  
BRANCH  11  13
HETATM   13  C   UNL     1      -7.270  10.425  70.136  1.00  0.00    -0.083 C  
HETATM   14  O   UNL     1      -6.520  10.714  71.058  1.00  0.00    -0.334 OA 
BRANCH  13  15
HETATM   15  O   UNL     1      -8.369   9.633  70.237  1.00  0.00    -0.181 OA 
BRANCH  15  16
HETATM   16  C   UNL     1      -8.302   8.716  71.350  1.00  0.00    -0.168 C  
BRANCH  16  17
HETATM   17  C   UNL     1      -6.832   8.499  71.743  1.00  0.00    -0.086 C  
BRANCH  17  18
HETATM   18  N   UNL     1      -6.429   7.112  72.029  1.00  0.00    -0.044 NA 
HETATM   19  C   UNL     1      -8.740   6.057  72.310  1.00  0.00    -0.131 C  
HETATM   20  C   UNL     1      -7.368   6.417  72.938  1.00  0.00    -0.094 C  
HETATM   21  N   UNL     1      -8.646   5.237  71.076  1.00  0.00    -0.121 NA 
HETATM   22  C   UNL     1      -6.357   6.354  70.753  1.00  0.00    -0.040 C  
HETATM   23  C   UNL     1      -7.734   5.961  70.151  1.00  0.00    -0.095 C  
BRANCH  21  24
HETATM   24  C   UNL     1      -8.177   3.847  71.365  1.00  0.00    -0.069 C  
BRANCH  24  25
HETATM   25  C   UNL     1      -9.043   3.116  72.406  1.00  0.00    -0.136 A  
HETATM   26  C   UNL     1     -10.434   3.338  72.433  1.00  0.00    -0.086 A  
HETATM   27  C   UNL     1      -8.510   2.187  73.314  1.00  0.00    -0.066 A  
HETATM   28  C   UNL     1     -11.255   2.663  73.340  1.00  0.00    -0.267 A  
HETATM   29  C   UNL     1     -10.702   1.764  74.248  1.00  0.00    -0.194 A  
HETATM   30  C   UNL     1      -9.329   1.529  74.236  1.00  0.00    -0.075 A  
ENDBRANCH  24  25
BRANCH  24  31
HETATM   31  C   UNL     1      -7.974   3.023  70.084  1.00  0.00    -0.051 A  
HETATM   32  C   UNL     1      -7.401   1.710  67.663  1.00  0.00    -0.053 A  
HETATM   33  C   UNL     1      -8.559   2.474  67.784  1.00  0.00    -0.118 A  
HETATM   34  C   UNL     1      -6.820   2.229  69.949  1.00  0.00    -0.033 A  
HETATM   35  C   UNL     1      -8.841   3.130  68.984  1.00  0.00    -0.161 A  
HETATM   36  C   UNL     1      -6.533   1.586  68.744  1.00  0.00    -0.025 A  
ENDBRANCH  24  31
ENDBRANCH  21  24
ENDBRANCH  17  18
ENDBRANCH  16  17
ENDBRANCH  15  16
ENDBRANCH  13  15
ENDBRANCH  11  13
BRANCH  12  37
HETATM   37  C   UNL     1      -8.956  12.537  69.020  1.00  0.00     0.485 A  
HETATM   38  C   UNL     1     -10.503  14.076  70.091  1.00  0.00     0.842 A  
HETATM   39  O   UNL     1     -11.972   9.687  69.091  1.00  0.00     0.419 OA 
HETATM   40  C   UNL     1      -9.956  11.544  69.034  1.00  0.00    -0.040 A  
HETATM   41  O   UNL     1     -13.359  11.082  70.060  1.00  0.00     0.223 OA 
HETATM   42  C   UNL     1     -11.216  11.828  69.573  1.00  0.00    -0.195 A  
HETATM   43  C   UNL     1     -11.497  13.096  70.093  1.00  0.00    -0.020 A  
HETATM   44  N   UNL     1     -12.258  10.790  69.573  1.00  0.00    -0.286 N  
HETATM   45  C   UNL     1      -9.238  13.796  69.569  1.00  0.00     1.000 A  
ENDBRANCH  12  37
ENDBRANCH   3   5
ENDBRANCH   2   3
TORSDOF 11
ENDMDL
MODEL      248
REMARK 921   NORMALIZED FREE ENERGY PREDICTED BY IDOCK:    4.40 KCAL/MOL
REMARK 922        TOTAL FREE ENERGY PREDICTED BY IDOCK:    5.37 KCAL/MOL
REMARK 923 INTER-LIGAND FREE ENERGY PREDICTED BY IDOCK:    3.73 KCAL/MOL
REMARK 924 INTRA-LIGAND FREE ENERGY PREDICTED BY IDOCK:    1.64 KCAL/MOL
REMARK 927      BINDING AFFINITY PREDICTED BY RF-SCORE:    0.00 PKD
ROOT
HETATM    1  C   UNL     1      -9.740  16.405  71.032  1.00  0.00     3.007 C  
HETATM    2  O   UNL     1      -8.751  16.695  70.040  1.00  0.00     0.901 OA 
ENDROOT
BRANCH   2   3
HETATM    3  C   UNL     1      -7.489  16.382  70.431  1.00  0.00     1.865 C  
HETATM    4  O   UNL     1      -6.703  17.166  70.945  1.00  0.00     1.741 OA 
BRANCH   3   5
HETATM    5  C   UNL     1      -7.177  14.964  70.109  1.00  0.00     0.119 C  
HETATM    6  C   UNL     1      -6.132  14.321  70.693  1.00  0.00    -0.181 C  
HETATM    7  N   UNL     1      -5.845  13.013  70.332  1.00  0.00    -0.165 NA 
HETATM    8  C   UNL     1      -5.187  14.878  71.726  1.00  0.00    -0.093 C  
HETATM    9  C   UNL     1      -6.415  12.351  69.266  1.00  0.00    -0.107 C  
HETATM   10  C   UNL     1      -5.769  11.042  68.874  1.00  0.00    -0.039 C  
HETATM   11  C   UNL     1      -7.471  12.903  68.627  1.00  0.00    -0.092 C  
HETATM   12  C   UNL     1      -8.050  14.254  69.063  1.00  0.00    -0.003 C  
BRANCH  11  13
HETATM   13  C   UNL     1      -7.980  12.269  67.393  1.00  0.00    -0.171 C  
HETATM   14  O   UNL     1      -7.322  12.157  66.369  1.00  0.00     0.219 OA 
BRANCH  13  15
HETATM   15  O   UNL     1      -9.268  11.861  67.546  1.00  0.00    -0.170 OA 
BRANCH  15  16
HETATM   16  C   UNL     1      -9.698  10.951  66.513  1.00  0.00    -0.198 C  
BRANCH  16  17
HETATM   17  C   UNL     1     -11.017  10.286  66.938  1.00  0.00    -0.070 C  
BRANCH  17  18
HETATM   18  N   UNL     1     -11.094   8.823  66.780  1.00  0.00     0.431 NA 
HETATM   19  C   UNL     1      -8.615   8.248  67.031  1.00  0.00    -0.123 C  
HETATM   20  C   UNL     1      -9.886   8.251  66.142  1.00  0.00    -0.068 C  
HETATM   21  N   UNL     1      -8.787   7.554  68.332  1.00  0.00    -0.126 NA 
HETATM   22  C   UNL     1     -11.263   8.198  68.117  1.00  0.00     0.629 C  
HETATM   23  C   UNL     1      -9.976   8.162  68.986  1.00  0.00    -0.189 C  
BRANCH  21  24
HETATM   24  C   UNL     1      -8.926   6.075  68.161  1.00  0.00    -0.112 C  
BRANCH  24  25
HETATM   25  C   UNL     1      -7.740   5.434  67.419  1.00  0.00    -0.096 A  
HETATM   26  C   UNL     1      -7.955   4.796  66.182  1.00  0.00    -0.103 A  
HETATM   27  C   UNL     1      -6.423   5.498  67.903  1.00  0.00    -0.047 A  
HETATM   28  C   UNL     1      -6.894   4.237  65.464  1.00  0.00    -0.057 A  
HETATM   29  C   UNL     1      -5.600   4.291  65.974  1.00  0.00    -0.014 A  
HETATM   30  C   UNL     1      -5.366   4.919  67.194  1.00  0.00    -0.012 A  
ENDBRANCH  24  25
BRANCH  24  31
HETATM   31  C   UNL     1      -9.249   5.363  69.483  1.00  0.00    -0.152 A  
HETATM   32  C   UNL     1     -10.007   3.882  71.751  1.00  0.00    -0.234 A  
HETATM   33  C   UNL     1     -10.573   5.132  71.515  1.00  0.00    -0.217 A  
HETATM   34  C   UNL     1      -8.673   4.108  69.751  1.00  0.00    -0.117 A  
HETATM   35  C   UNL     1     -10.201   5.866  70.387  1.00  0.00    -0.273 A  
HETATM   36  C   UNL     1      -9.057   3.370  70.871  1.00  0.00    -0.184 A  
ENDBRANCH  24  31
ENDBRANCH  21  24
ENDBRANCH  17  18
ENDBRANCH  16  17
ENDBRANCH  15  16
ENDBRANCH  13  15
ENDBRANCH  11  13
BRANCH  12  37
HETATM   37  C   UNL     1      -8.348  15.135  67.839  1.00  0.00    -0.153 A  
HETATM   38  C   UNL     1      -7.635  16.747  66.164  1.00  0.00    -0.168 A  
HETATM   39  O   UNL     1     -11.899  14.733  65.727  1.00  0.00    -0.309 OA 
HETATM   40  C   UNL     1      -9.568  14.980  67.150  1.00  0.00    -0.222 A  
HETATM   41  O   UNL     1     -11.247  16.189  64.222  1.00  0.00    -0.660 OA 
HETATM   42  C   UNL     1      -9.806  15.706  65.976  1.00  0.00    -0.333 A  
HETATM   43  C   UNL     1      -8.838  16.583  65.474  1.00  0.00     0.648 A  
HETATM   44  N   UNL     1     -11.075  15.528  65.256  1.00  0.00    -0.355 N  
HETATM   45  C   UNL     1      -7.396  16.038  67.343  1.00  0.00    -0.216 A  
ENDBRANCH  12  37
ENDBRANCH   3   5
ENDBRANCH   2   3
TORSDOF 11
ENDMDL
MODEL      249
REMARK 921   NORMALIZED FREE ENERGY PREDICTED BY IDOCK:    4.43 KCAL/MOL
REMARK 922        TOTAL FREE ENERGY PREDICTED BY IDOCK:    5.42 KCAL/MOL
REMARK 923 INTER-LIGAND FREE ENERGY PREDICTED BY IDOCK:   -1.87 KCAL/MOL
REMARK 924 INTRA-LIGAND FREE ENERGY PREDICTED BY IDOCK:    7.29 KCAL/MOL
REMARK 927      BINDING AFFINITY PREDICTED BY RF-SCORE:    0.00 PKD
ROOT
HETATM    1  C   UNL     1     -12.422  17.598  67.543  1.00  0.00     4.326 C  
HETATM    2  O   UNL     1     -11.472  16.642  68.021  1.00  0.00    -0.167 OA 
ENDROOT
BRANCH   2   3
HETATM    3  C   UNL     1     -10.363  16.549  67.244  1.00  0.00    -0.296 C  
HETATM    4  O   UNL     1     -10.308  16.875  66.066  1.00  0.00    -0.338 OA 
BRANCH   3   5
HETATM    5  C   UNL     1      -9.234  15.958  68.010  1.00  0.00    -0.192 C  
HETATM    6  C   UNL     1      -8.225  16.732  68.490  1.00  0.00    -0.242 C  
HETATM    7  N   UNL     1      -7.166  16.137  69.159  1.00  0.00    -0.202 NA 
HETATM    8  C   UNL     1      -8.093  18.228  68.371  1.00  0.00    -0.322 C  
HETATM    9  C   UNL     1      -6.936  14.779  69.215  1.00  0.00    -0.149 C  
HETATM   10  C   UNL     1      -5.589  14.354  69.751  1.00  0.00    -0.099 C  
HETATM   11  C   UNL     1      -7.888  13.925  68.775  1.00  0.00    -0.079 C  
HETATM   12  C   UNL     1      -9.219  14.435  68.212  1.00  0.00    -0.201 C  
BRANCH  11  13
HETATM   13  C   UNL     1      -7.581  12.482  68.693  1.00  0.00    -0.080 C  
HETATM   14  O   UNL     1      -6.510  11.998  69.028  1.00  0.00    -0.076 OA 
BRANCH  13  15
HETATM   15  O   UNL     1      -8.628  11.786  68.175  1.00  0.00    -0.147 OA 
BRANCH  15  16
HETATM   16  C   UNL     1      -9.255  10.913  69.137  1.00  0.00    -0.060 C  
BRANCH  16  17
HETATM   17  C   UNL     1      -9.544   9.554  68.477  1.00  0.00    -0.142 C  
BRANCH  17  18
HETATM   18  N   UNL     1      -8.378   8.812  67.968  1.00  0.00    -0.118 NA 
HETATM   19  C   UNL     1      -9.451   6.511  67.668  1.00  0.00    -0.123 C  
HETATM   20  C   UNL     1      -8.383   7.388  68.373  1.00  0.00    -0.125 C  
HETATM   21  N   UNL     1      -9.375   6.538  66.185  1.00  0.00    -0.114 NA 
HETATM   22  C   UNL     1      -8.369   8.881  66.484  1.00  0.00    -0.115 C  
HETATM   23  C   UNL     1      -9.413   7.969  65.782  1.00  0.00     0.137 C  
BRANCH  21  24
HETATM   24  C   UNL     1      -8.157   5.836  65.676  1.00  0.00    -0.119 C  
BRANCH  24  25
HETATM   25  C   UNL     1      -8.394   4.346  65.376  1.00  0.00    -0.111 A  
HETATM   26  C   UNL     1      -9.703   3.825  65.427  1.00  0.00    -0.157 A  
HETATM   27  C   UNL     1      -7.358   3.476  65.002  1.00  0.00    -0.072 A  
HETATM   28  C   UNL     1      -9.959   2.486  65.124  1.00  0.00     0.423 A  
HETATM   29  C   UNL     1      -8.913   1.635  64.779  1.00  0.00    -0.117 A  
HETATM   30  C   UNL     1      -7.612   2.130  64.720  1.00  0.00    -0.068 A  
ENDBRANCH  24  25
BRANCH  24  31
HETATM   31  C   UNL     1      -7.506   6.578  64.498  1.00  0.00    -0.090 A  
HETATM   32  C   UNL     1      -6.065   7.909  62.482  1.00  0.00    -0.073 A  
HETATM   33  C   UNL     1      -6.849   8.636  63.373  1.00  0.00    -0.089 A  
HETATM   34  C   UNL     1      -6.725   5.859  63.575  1.00  0.00    -0.036 A  
HETATM   35  C   UNL     1      -7.561   7.977  64.377  1.00  0.00    -0.116 A  
HETATM   36  C   UNL     1      -6.003   6.521  62.581  1.00  0.00    -0.030 A  
ENDBRANCH  24  31
ENDBRANCH  21  24
ENDBRANCH  17  18
ENDBRANCH  16  17
ENDBRANCH  15  16
ENDBRANCH  13  15
ENDBRANCH  11  13
BRANCH  12  37
HETATM   37  C   UNL     1      -9.601  13.662  66.939  1.00  0.00    -0.262 A  
HETATM   38  C   UNL     1      -9.062  12.060  65.192  1.00  0.00     0.329 A  
HETATM   39  O   UNL     1     -13.492  13.706  65.494  1.00  0.00    -0.507 OA 
HETATM   40  C   UNL     1     -10.930  13.706  66.470  1.00  0.00    -0.295 A  
HETATM   41  O   UNL     1     -12.995  12.262  63.921  1.00  0.00    -0.753 OA 
HETATM   42  C   UNL     1     -11.309  12.925  65.371  1.00  0.00    -0.303 A  
HETATM   43  C   UNL     1     -10.381  12.093  64.736  1.00  0.00    -0.320 A  
HETATM   44  N   UNL     1     -12.700  12.967  64.896  1.00  0.00    -0.434 N  
HETATM   45  C   UNL     1      -8.672  12.846  66.278  1.00  0.00     0.256 A  
ENDBRANCH  12  37
ENDBRANCH   3   5
ENDBRANCH   2   3
TORSDOF 11
ENDMDL
MODEL      250
REMARK 921   NORMALIZED FREE ENERGY PREDICTED BY IDOCK:    4.59 KCAL/MOL
REMARK 922        TOTAL FREE ENERGY PREDICTED BY IDOCK:    5.69 KCAL/MOL
REMARK 923 INTER-LIGAND FREE ENERGY PREDICTED BY IDOCK:   -0.28 KCAL/MOL
REMARK 924 INTRA-LIGAND FREE ENERGY PREDICTED BY IDOCK:    5.97 KCAL/MOL
REMARK 927      BINDING AFFINITY PREDICTED BY RF-SCORE:    0.00 PKD
ROOT
HETATM    1  C   UNL     1      -9.289   6.492  70.568  1.00  0.00    -0.162 C  
HETATM    2  O   UNL     1      -8.466   7.643  70.360  1.00  0.00    -0.132 OA 
ENDROOT
BRANCH   2   3
HETATM    3  C   UNL     1      -8.833   8.711  71.112  1.00  0.00    -0.199 C  
HETATM    4  O   UNL     1      -9.877   8.793  71.745  1.00  0.00    -0.270 OA 
BRANCH   3   5
HETATM    5  C   UNL     1      -7.812   9.788  71.028  1.00  0.00     0.464 C  
HETATM    6  C   UNL     1      -6.944  10.019  72.048  1.00  0.00     1.782 C  
HETATM    7  N   UNL     1      -6.035  11.063  71.950  1.00  0.00     0.333 NA 
HETATM    8  C   UNL     1      -6.843   9.258  73.345  1.00  0.00     0.654 C  
HETATM    9  C   UNL     1      -6.061  12.037  70.975  1.00  0.00     0.674 C  
HETATM   10  C   UNL     1      -5.165  13.232  71.205  1.00  0.00    -0.176 C  
HETATM   11  C   UNL     1      -6.882  11.891  69.911  1.00  0.00     0.234 C  
HETATM   12  C   UNL     1      -7.789  10.664  69.765  1.00  0.00     0.029 C  
BRANCH  11  13
HETATM   13  C   UNL     1      -7.022  13.003  68.949  1.00  0.00    -0.088 C  
HETATM   14  O   UNL     1      -7.014  14.182  69.272  1.00  0.00    -0.118 OA 
BRANCH  13  15
HETATM   15  O   UNL     1      -7.185  12.539  67.682  1.00  0.00    -0.110 OA 
BRANCH  15  16
HETATM   16  C   UNL     1      -6.011  12.714  66.861  1.00  0.00     0.452 C  
BRANCH  16  17
HETATM   17  C   UNL     1      -5.430  11.337  66.504  1.00  0.00    -0.135 C  
BRANCH  17  18
HETATM   18  N   UNL     1      -6.263  10.478  65.644  1.00  0.00    -0.126 NA 
HETATM   19  C   UNL     1      -5.503   8.187  66.488  1.00  0.00    -0.028 C  
HETATM   20  C   UNL     1      -5.608   9.193  65.311  1.00  0.00    -0.049 C  
HETATM   21  N   UNL     1      -6.805   7.858  67.121  1.00  0.00    -0.071 NA 
HETATM   22  C   UNL     1      -7.543  10.190  66.341  1.00  0.00    -0.108 C  
HETATM   23  C   UNL     1      -7.439   9.151  67.491  1.00  0.00    -0.088 C  
BRANCH  21  24
HETATM   24  C   UNL     1      -7.672   7.037  66.220  1.00  0.00    -0.094 C  
BRANCH  24  25
HETATM   25  C   UNL     1      -6.952   6.569  64.943  1.00  0.00    -0.051 A  
HETATM   26  C   UNL     1      -5.972   5.559  65.027  1.00  0.00    -0.022 A  
HETATM   27  C   UNL     1      -7.263   7.077  63.672  1.00  0.00    -0.071 A  
HETATM   28  C   UNL     1      -5.326   5.085  63.882  1.00  0.00    -0.010 A  
HETATM   29  C   UNL     1      -5.633   5.620  62.634  1.00  0.00    -0.014 A  
HETATM   30  C   UNL     1      -6.599   6.617  62.530  1.00  0.00    -0.039 A  
ENDBRANCH  24  25
BRANCH  24  31
HETATM   31  C   UNL     1      -8.359   5.883  66.966  1.00  0.00    -0.105 A  
HETATM   32  C   UNL     1      -9.681   3.961  68.539  1.00  0.00    -0.114 A  
HETATM   33  C   UNL     1      -8.290   3.988  68.495  1.00  0.00    -0.097 A  
HETATM   34  C   UNL     1      -9.765   5.826  67.006  1.00  0.00    -0.155 A  
HETATM   35  C   UNL     1      -7.632   4.944  67.718  1.00  0.00    -0.083 A  
HETATM   36  C   UNL     1     -10.419   4.878  67.794  1.00  0.00     0.013 A  
ENDBRANCH  24  31
ENDBRANCH  21  24
ENDBRANCH  17  18
ENDBRANCH  16  17
ENDBRANCH  15  16
ENDBRANCH  13  15
ENDBRANCH  11  13
BRANCH  12  37
HETATM   37  C   UNL     1      -9.196  11.081  69.305  1.00  0.00     0.063 A  
HETATM   38  C   UNL     1     -11.613  10.838  69.395  1.00  0.00    -0.380 A  
HETATM   39  O   UNL     1      -9.770  14.480  66.993  1.00  0.00    -0.233 OA 
HETATM   40  C   UNL     1      -9.355  12.236  68.513  1.00  0.00    -0.101 A  
HETATM   41  O   UNL     1     -11.950  14.251  67.079  1.00  0.00    -0.414 OA 
HETATM   42  C   UNL     1     -10.639  12.679  68.174  1.00  0.00    -0.228 A  
HETATM   43  C   UNL     1     -11.771  11.989  68.621  1.00  0.00    -0.380 A  
HETATM   44  N   UNL     1     -10.797  13.892  67.357  1.00  0.00    -0.282 N  
HETATM   45  C   UNL     1     -10.336  10.380  69.725  1.00  0.00    -0.252 A  
ENDBRANCH  12  37
ENDBRANCH   3   5
ENDBRANCH   2   3
TORSDOF 11
ENDMDL
MODEL      251
REMARK 921   NORMALIZED FREE ENERGY PREDICTED BY IDOCK:    4.70 KCAL/MOL
REMARK 922        TOTAL FREE ENERGY PREDICTED BY IDOCK:    5.87 KCAL/MOL
REMARK 923 INTER-LIGAND FREE ENERGY PREDICTED BY IDOCK:   -2.26 KCAL/MOL
REMARK 924 INTRA-LIGAND FREE ENERGY PREDICTED BY IDOCK:    8.13 KCAL/MOL
REMARK 927      BINDING AFFINITY PREDICTED BY RF-SCORE:    0.00 PKD
ROOT
HETATM    1  C   UNL     1      -6.899  11.624  70.520  1.00  0.00     1.235 C  
HETATM    2  O   UNL     1      -7.096  11.080  69.212  1.00  0.00    -0.102 OA 
ENDROOT
BRANCH   2   3
HETATM    3  C   UNL     1      -6.822   9.753  69.133  1.00  0.00    -0.054 C  
HETATM    4  O   UNL     1      -6.279   9.100  70.014  1.00  0.00    -0.036 OA 
BRANCH   3   5
HETATM    5  C   UNL     1      -7.233   9.210  67.812  1.00  0.00    -0.080 C  
HETATM    6  C   UNL     1      -7.006   9.899  66.663  1.00  0.00    -0.086 C  
HETATM    7  N   UNL     1      -7.447   9.380  65.455  1.00  0.00    -0.097 NA 
HETATM    8  C   UNL     1      -6.314  11.231  66.525  1.00  0.00    -0.119 C  
HETATM    9  C   UNL     1      -8.288   8.296  65.327  1.00  0.00    -0.166 C  
HETATM   10  C   UNL     1      -8.869   8.063  63.952  1.00  0.00     0.661 C  
HETATM   11  C   UNL     1      -8.564   7.536  66.411  1.00  0.00    -0.145 C  
HETATM   12  C   UNL     1      -7.962   7.857  67.784  1.00  0.00    -0.124 C  
BRANCH  11  13
HETATM   13  C   UNL     1      -9.582   6.471  66.307  1.00  0.00    -0.046 C  
HETATM   14  O   UNL     1     -10.732   6.668  65.940  1.00  0.00     0.841 OA 
BRANCH  13  15
HETATM   15  O   UNL     1      -9.078   5.270  66.694  1.00  0.00    -0.118 OA 
BRANCH  15  16
HETATM   16  C   UNL     1      -8.636   4.459  65.586  1.00  0.00    -0.119 C  
BRANCH  16  17
HETATM   17  C   UNL     1      -7.670   3.379  66.099  1.00  0.00    -0.081 C  
BRANCH  17  18
HETATM   18  N   UNL     1      -7.215   3.516  67.493  1.00  0.00    -0.058 NA 
HETATM   19  C   UNL     1      -9.485   3.585  68.666  1.00  0.00    -0.141 C  
HETATM   20  C   UNL     1      -8.152   4.302  68.328  1.00  0.00    -0.081 C  
HETATM   21  N   UNL     1      -9.314   2.268  69.330  1.00  0.00    -0.124 NA 
HETATM   22  C   UNL     1      -7.068   2.164  68.091  1.00  0.00    -0.047 C  
HETATM   23  C   UNL     1      -8.406   1.469  68.465  1.00  0.00    -0.053 C  
BRANCH  21  24
HETATM   24  C   UNL     1      -8.793   2.410  70.725  1.00  0.00    -0.072 C  
BRANCH  24  25
HETATM   25  C   UNL     1      -7.562   3.328  70.823  1.00  0.00    -0.040 A  
HETATM   26  C   UNL     1      -7.739   4.708  71.049  1.00  0.00    -0.080 A  
HETATM   27  C   UNL     1      -6.248   2.840  70.745  1.00  0.00    -0.019 A  
HETATM   28  C   UNL     1      -6.642   5.563  71.182  1.00  0.00    -0.044 A  
HETATM   29  C   UNL     1      -5.348   5.061  71.076  1.00  0.00    -0.004 A  
HETATM   30  C   UNL     1      -5.151   3.701  70.856  1.00  0.00     0.000 A  
ENDBRANCH  24  25
BRANCH  24  31
HETATM   31  C   UNL     1      -9.896   2.793  71.723  1.00  0.00    -0.220 A  
HETATM   32  C   UNL     1     -11.705   3.547  73.740  1.00  0.00     0.206 A  
HETATM   33  C   UNL     1     -11.531   2.202  73.428  1.00  0.00    -0.263 A  
HETATM   34  C   UNL     1     -10.102   4.149  72.037  1.00  0.00    -0.234 A  
HETATM   35  C   UNL     1     -10.630   1.826  72.430  1.00  0.00    -0.177 A  
HETATM   36  C   UNL     1     -10.993   4.521  73.045  1.00  0.00    -0.308 A  
ENDBRANCH  24  31
ENDBRANCH  21  24
ENDBRANCH  17  18
ENDBRANCH  16  17
ENDBRANCH  15  16
ENDBRANCH  13  15
ENDBRANCH  11  13
BRANCH  12  37
HETATM   37  C   UNL     1      -9.027   7.732  68.885  1.00  0.00    -0.141 A  
HETATM   38  C   UNL     1     -11.183   6.923  69.665  1.00  0.00    -0.289 A  
HETATM   39  O   UNL     1      -8.222   8.904  72.785  1.00  0.00    -0.387 OA 
HETATM   40  C   UNL     1      -8.724   8.148  70.198  1.00  0.00    -0.130 A  
HETATM   41  O   UNL     1     -10.170   8.173  73.478  1.00  0.00    -0.042 OA 
HETATM   42  C   UNL     1      -9.651   7.945  71.228  1.00  0.00    -0.157 A  
HETATM   43  C   UNL     1     -10.877   7.323  70.968  1.00  0.00    -0.258 A  
HETATM   44  N   UNL     1      -9.322   8.371  72.596  1.00  0.00    -0.274 N  
HETATM   45  C   UNL     1     -10.270   7.135  68.630  1.00  0.00    -0.186 A  
ENDBRANCH  12  37
ENDBRANCH   3   5
ENDBRANCH   2   3
TORSDOF 11
ENDMDL
MODEL      252
REMARK 921   NORMALIZED FREE ENERGY PREDICTED BY IDOCK:    4.86 KCAL/MOL
REMARK 922        TOTAL FREE ENERGY PREDICTED BY IDOCK:    6.12 KCAL/MOL
REMARK 923 INTER-LIGAND FREE ENERGY PREDICTED BY IDOCK:   -3.14 KCAL/MOL
REMARK 924 INTRA-LIGAND FREE ENERGY PREDICTED BY IDOCK:    9.26 KCAL/MOL
REMARK 927      BINDING AFFINITY PREDICTED BY RF-SCORE:    0.00 PKD
ROOT
HETATM    1  C   UNL     1      -8.279  13.683  66.150  1.00  0.00     1.427 C  
HETATM    2  O   UNL     1      -7.923  14.585  67.201  1.00  0.00    -0.198 OA 
ENDROOT
BRANCH   2   3
HETATM    3  C   UNL     1      -8.655  14.410  68.331  1.00  0.00    -0.174 C  
HETATM    4  O   UNL     1      -9.501  15.194  68.742  1.00  0.00    -0.193 OA 
BRANCH   3   5
HETATM    5  C   UNL     1      -8.260  13.156  69.023  1.00  0.00     0.360 C  
HETATM    6  C   UNL     1      -7.087  13.064  69.702  1.00  0.00     0.380 C  
HETATM    7  N   UNL     1      -6.732  11.862  70.297  1.00  0.00     0.111 NA 
HETATM    8  C   UNL     1      -6.060  14.152  69.893  1.00  0.00    -0.140 C  
HETATM    9  C   UNL     1      -7.382  10.664  70.092  1.00  0.00     0.167 C  
HETATM   10  C   UNL     1      -6.678   9.429  70.605  1.00  0.00    -0.097 C  
HETATM   11  C   UNL     1      -8.565  10.653  69.439  1.00  0.00    -0.046 C  
HETATM   12  C   UNL     1      -9.201  11.946  68.917  1.00  0.00     0.135 C  
BRANCH  11  13
HETATM   13  C   UNL     1      -9.183   9.358  69.086  1.00  0.00    -0.155 C  
HETATM   14  O   UNL     1     -10.088   8.843  69.727  1.00  0.00    -0.188 OA 
BRANCH  13  15
HETATM   15  O   UNL     1      -8.596   8.817  67.986  1.00  0.00    -0.132 OA 
BRANCH  15  16
HETATM   16  C   UNL     1      -7.157   8.922  68.005  1.00  0.00    -0.079 C  
BRANCH  16  17
HETATM   17  C   UNL     1      -6.551   7.545  68.321  1.00  0.00    -0.050 C  
BRANCH  17  18
HETATM   18  N   UNL     1      -7.443   6.384  68.162  1.00  0.00    -0.092 NA 
HETATM   19  C   UNL     1      -6.912   5.782  65.735  1.00  0.00    -0.068 C  
HETATM   20  C   UNL     1      -7.959   6.243  66.781  1.00  0.00    -0.108 C  
HETATM   21  N   UNL     1      -6.234   4.506  66.076  1.00  0.00    -0.031 NA 
HETATM   22  C   UNL     1      -6.700   5.148  68.518  1.00  0.00    -0.050 C  
HETATM   23  C   UNL     1      -5.681   4.669  67.447  1.00  0.00    -0.022 C  
BRANCH  21  24
HETATM   24  C   UNL     1      -7.161   3.337  65.972  1.00  0.00    -0.071 C  
BRANCH  24  25
HETATM   25  C   UNL     1      -7.646   2.822  67.339  1.00  0.00    -0.065 A  
HETATM   26  C   UNL     1      -6.837   1.932  68.074  1.00  0.00    -0.035 A  
HETATM   27  C   UNL     1      -8.854   3.241  67.919  1.00  0.00    -0.156 A  
HETATM   28  C   UNL     1      -7.230   1.475  69.335  1.00  0.00    -0.036 A  
HETATM   29  C   UNL     1      -8.443   1.885  69.880  1.00  0.00    -0.083 A  
HETATM   30  C   UNL     1      -9.255   2.766  69.171  1.00  0.00    -0.215 A  
ENDBRANCH  24  25
BRANCH  24  31
HETATM   31  C   UNL     1      -8.318   3.597  64.996  1.00  0.00    -0.097 A  
HETATM   32  C   UNL     1     -10.377   3.814  63.091  1.00  0.00    -0.209 A  
HETATM   33  C   UNL     1      -9.192   4.524  62.920  1.00  0.00    -0.110 A  
HETATM   34  C   UNL     1      -9.532   2.904  65.163  1.00  0.00    -0.083 A  
HETATM   35  C   UNL     1      -8.167   4.413  63.862  1.00  0.00    -0.099 A  
HETATM   36  C   UNL     1     -10.548   3.006  64.212  1.00  0.00     0.081 A  
ENDBRANCH  24  31
ENDBRANCH  21  24
ENDBRANCH  17  18
ENDBRANCH  16  17
ENDBRANCH  15  16
ENDBRANCH  13  15
ENDBRANCH  11  13
BRANCH  12  37
HETATM   37  C   UNL     1      -9.753  11.744  67.496  1.00  0.00    -0.185 A  
HETATM   38  C   UNL     1      -9.755  10.559  65.373  1.00  0.00    -0.315 A  
HETATM   39  O   UNL     1     -13.167  13.731  66.223  1.00  0.00     0.030 OA 
HETATM   40  C   UNL     1     -10.909  12.442  67.092  1.00  0.00    -0.280 A  
HETATM   41  O   UNL     1     -13.160  12.658  64.311  1.00  0.00    -0.741 OA 
HETATM   42  C   UNL     1     -11.476  12.188  65.837  1.00  0.00    -0.363 A  
HETATM   43  C   UNL     1     -10.908  11.240  64.979  1.00  0.00    -0.285 A  
HETATM   44  N   UNL     1     -12.690  12.911  65.429  1.00  0.00    -0.393 N  
HETATM   45  C   UNL     1      -9.175  10.817  66.617  1.00  0.00    -0.184 A  
ENDBRANCH  12  37
ENDBRANCH   3   5
ENDBRANCH   2   3
TORSDOF 11
ENDMDL
MODEL      253
REMARK 921   NORMALIZED FREE ENERGY PREDICTED BY IDOCK:    4.90 KCAL/MOL
REMARK 922        TOTAL FREE ENERGY PREDICTED BY IDOCK:    6.19 KCAL/MOL
REMARK 923 INTER-LIGAND FREE ENERGY PREDICTED BY IDOCK:   -4.85 KCAL/MOL
REMARK 924 INTRA-LIGAND FREE ENERGY PREDICTED BY IDOCK:   11.03 KCAL/MOL
REMARK 927      BINDING AFFINITY PREDICTED BY RF-SCORE:    0.00 PKD
ROOT
HETATM    1  C   UNL     1     -12.625  12.944  66.545  1.00  0.00     0.467 C  
HETATM    2  O   UNL     1     -12.118  14.156  67.111  1.00  0.00    -0.426 OA 
ENDROOT
BRANCH   2   3
HETATM    3  C   UNL     1     -11.455  13.967  68.280  1.00  0.00    -0.304 C  
HETATM    4  O   UNL     1     -11.754  14.492  69.344  1.00  0.00    -0.281 OA 
BRANCH   3   5
HETATM    5  C   UNL     1     -10.288  13.068  68.082  1.00  0.00    -0.244 C  
HETATM    6  C   UNL     1      -9.682  12.955  66.871  1.00  0.00    -0.240 C  
HETATM    7  N   UNL     1      -8.624  12.071  66.714  1.00  0.00    -0.191 NA 
HETATM    8  C   UNL     1     -10.035  13.694  65.605  1.00  0.00    -0.261 C  
HETATM    9  C   UNL     1      -8.247  11.127  67.645  1.00  0.00    -0.118 C  
HETATM   10  C   UNL     1      -7.260  10.085  67.173  1.00  0.00    -0.090 C  
HETATM   11  C   UNL     1      -8.783  11.165  68.886  1.00  0.00    -0.086 C  
HETATM   12  C   UNL     1      -9.807  12.236  69.280  1.00  0.00     0.562 C  
BRANCH  11  13
HETATM   13  C   UNL     1      -8.496  10.066  69.831  1.00  0.00    -0.150 C  
HETATM   14  O   UNL     1      -9.343   9.547  70.543  1.00  0.00    -0.252 OA 
BRANCH  13  15
HETATM   15  O   UNL     1      -7.177   9.740  69.817  1.00  0.00    -0.076 OA 
BRANCH  15  16
HETATM   16  C   UNL     1      -6.762   9.016  70.995  1.00  0.00    -0.087 C  
BRANCH  16  17
HETATM   17  C   UNL     1      -6.520   7.543  70.628  1.00  0.00    -0.039 C  
BRANCH  17  18
HETATM   18  N   UNL     1      -7.401   6.972  69.595  1.00  0.00    -0.083 NA 
HETATM   19  C   UNL     1      -5.675   5.625  68.275  1.00  0.00    -0.012 C  
HETATM   20  C   UNL     1      -6.714   6.776  68.298  1.00  0.00    -0.068 C  
HETATM   21  N   UNL     1      -6.224   4.305  68.677  1.00  0.00    -0.031 NA 
HETATM   22  C   UNL     1      -7.909   5.657  70.064  1.00  0.00    -0.090 C  
HETATM   23  C   UNL     1      -6.876   4.498  69.999  1.00  0.00    -0.041 C  
BRANCH  21  24
HETATM   24  C   UNL     1      -7.166   3.757  67.653  1.00  0.00    -0.059 C  
BRANCH  24  25
HETATM   25  C   UNL     1      -8.316   4.719  67.310  1.00  0.00    -0.105 A  
HETATM   26  C   UNL     1      -8.144   5.675  66.288  1.00  0.00    -0.107 A  
HETATM   27  C   UNL     1      -9.568   4.658  67.944  1.00  0.00    -0.205 A  
HETATM   28  C   UNL     1      -9.181   6.538  65.925  1.00  0.00    -0.022 A  
HETATM   29  C   UNL     1     -10.405   6.476  66.584  1.00  0.00    -0.217 A  
HETATM   30  C   UNL     1     -10.597   5.538  67.595  1.00  0.00    -0.239 A  
ENDBRANCH  24  25
BRANCH  24  31
HETATM   31  C   UNL     1      -6.434   3.243  66.404  1.00  0.00    -0.036 A  
HETATM   32  C   UNL     1      -5.314   2.408  63.963  1.00  0.00    -0.008 A  
HETATM   33  C   UNL     1      -5.928   1.481  64.800  1.00  0.00    -0.013 A  
HETATM   34  C   UNL     1      -5.790   4.161  65.554  1.00  0.00    -0.022 A  
HETATM   35  C   UNL     1      -6.489   1.896  66.010  1.00  0.00    -0.024 A  
HETATM   36  C   UNL     1      -5.243   3.747  64.339  1.00  0.00    -0.009 A  
ENDBRANCH  24  31
ENDBRANCH  21  24
ENDBRANCH  17  18
ENDBRANCH  16  17
ENDBRANCH  15  16
ENDBRANCH  13  15
ENDBRANCH  11  13
BRANCH  12  37
HETATM   37  C   UNL     1     -10.966  11.612  70.074  1.00  0.00     0.244 A  
HETATM   38  C   UNL     1     -13.023  11.836  71.350  1.00  0.00    -0.408 A  
HETATM   39  O   UNL     1     -11.555   7.503  70.127  1.00  0.00    -0.166 OA 
HETATM   40  C   UNL     1     -11.132  10.212  70.079  1.00  0.00    -0.368 A  
HETATM   41  O   UNL     1     -13.409   7.717  71.280  1.00  0.00    -0.302 OA 
HETATM   42  C   UNL     1     -12.242   9.641  70.716  1.00  0.00    -0.230 A  
HETATM   43  C   UNL     1     -13.195  10.451  71.343  1.00  0.00    -0.459 A  
HETATM   44  N   UNL     1     -12.414   8.181  70.705  1.00  0.00     0.136 N  
HETATM   45  C   UNL     1     -11.912  12.412  70.731  1.00  0.00    -0.087 A  
ENDBRANCH  12  37
ENDBRANCH   3   5
ENDBRANCH   2   3
TORSDOF 11
ENDMDL
MODEL      254
REMARK 921   NORMALIZED FREE ENERGY PREDICTED BY IDOCK:    5.37 KCAL/MOL
REMARK 922        TOTAL FREE ENERGY PREDICTED BY IDOCK:    6.97 KCAL/MOL
REMARK 923 INTER-LIGAND FREE ENERGY PREDICTED BY IDOCK:    6.47 KCAL/MOL
REMARK 924 INTRA-LIGAND FREE ENERGY PREDICTED BY IDOCK:    0.50 KCAL/MOL
REMARK 927      BINDING AFFINITY PREDICTED BY RF-SCORE:    0.00 PKD
ROOT
HETATM    1  C   UNL     1      -9.766  16.428  71.085  1.00  0.00     3.412 C  
HETATM    2  O   UNL     1      -8.702  16.738  70.180  1.00  0.00     1.350 OA 
ENDROOT
BRANCH   2   3
HETATM    3  C   UNL     1      -7.484  16.332  70.622  1.00  0.00     2.484 C  
HETATM    4  O   UNL     1      -6.716  17.021  71.280  1.00  0.00     2.621 OA 
BRANCH   3   5
HETATM    5  C   UNL     1      -7.193  14.949  70.160  1.00  0.00     0.119 C  
HETATM    6  C   UNL     1      -6.215  14.203  70.736  1.00  0.00    -0.101 C  
HETATM    7  N   UNL     1      -5.942  12.934  70.247  1.00  0.00    -0.153 NA 
HETATM    8  C   UNL     1      -5.331  14.601  71.891  1.00  0.00    -0.094 C  
HETATM    9  C   UNL     1      -6.452  12.421  69.073  1.00  0.00    -0.097 C  
HETATM   10  C   UNL     1      -5.820  11.141  68.578  1.00  0.00    -0.042 C  
HETATM   11  C   UNL     1      -7.441  13.083  68.432  1.00  0.00    -0.128 C  
HETATM   12  C   UNL     1      -8.008  14.397  68.980  1.00  0.00    -0.057 C  
BRANCH  11  13
HETATM   13  C   UNL     1      -7.877  12.614  67.100  1.00  0.00    -0.108 C  
HETATM   14  O   UNL     1      -7.151  12.599  66.117  1.00  0.00     1.124 OA 
BRANCH  13  15
HETATM   15  O   UNL     1      -9.182  12.236  67.116  1.00  0.00    -0.184 OA 
BRANCH  15  16
HETATM   16  C   UNL     1      -9.572  11.503  65.936  1.00  0.00    -0.230 C  
BRANCH  16  17
HETATM   17  C   UNL     1     -10.920  10.809  66.191  1.00  0.00     0.033 C  
BRANCH  17  18
HETATM   18  N   UNL     1     -10.861   9.424  66.688  1.00  0.00     0.006 NA 
HETATM   19  C   UNL     1      -8.572   9.490  67.825  1.00  0.00    -0.115 C  
HETATM   20  C   UNL     1      -9.482   8.886  66.724  1.00  0.00    -0.187 C  
HETATM   21  N   UNL     1      -9.120   9.367  69.200  1.00  0.00    -0.143 NA 
HETATM   22  C   UNL     1     -11.422   9.378  68.063  1.00  0.00     0.756 C  
HETATM   23  C   UNL     1     -10.489   9.946  69.167  1.00  0.00    -0.217 C  
BRANCH  21  24
HETATM   24  C   UNL     1      -9.114   7.949  69.677  1.00  0.00    -0.153 C  
BRANCH  24  25
HETATM   25  C   UNL     1      -7.720   7.301  69.639  1.00  0.00    -0.105 A  
HETATM   26  C   UNL     1      -6.638   7.937  70.282  1.00  0.00    -0.037 A  
HETATM   27  C   UNL     1      -7.479   6.060  69.026  1.00  0.00    -0.086 A  
HETATM   28  C   UNL     1      -5.367   7.357  70.299  1.00  0.00    -0.023 A  
HETATM   29  C   UNL     1      -5.146   6.139  69.664  1.00  0.00    -0.012 A  
HETATM   30  C   UNL     1      -6.201   5.492  69.026  1.00  0.00    -0.029 A  
ENDBRANCH  24  25
BRANCH  24  31
HETATM   31  C   UNL     1      -9.802   7.791  71.042  1.00  0.00    -0.186 A  
HETATM   32  C   UNL     1     -10.878   7.284  73.591  1.00  0.00    -0.169 A  
HETATM   33  C   UNL     1     -11.561   6.869  72.451  1.00  0.00    -0.278 A  
HETATM   34  C   UNL     1      -9.137   8.222  72.204  1.00  0.00    -0.279 A  
HETATM   35  C   UNL     1     -11.026   7.116  71.185  1.00  0.00    -0.272 A  
HETATM   36  C   UNL     1      -9.667   7.961  73.468  1.00  0.00    -0.248 A  
ENDBRANCH  24  31
ENDBRANCH  21  24
ENDBRANCH  17  18
ENDBRANCH  16  17
ENDBRANCH  15  16
ENDBRANCH  13  15
ENDBRANCH  11  13
BRANCH  12  37
HETATM   37  C   UNL     1      -8.188  15.423  67.849  1.00  0.00    -0.150 A  
HETATM   38  C   UNL     1      -7.268  17.077  66.322  1.00  0.00    -0.269 A  
HETATM   39  O   UNL     1     -11.766  15.703  65.764  1.00  0.00     0.143 OA 
HETATM   40  C   UNL     1      -9.420  15.499  67.167  1.00  0.00    -0.223 A  
HETATM   41  O   UNL     1     -10.928  17.196  64.393  1.00  0.00    -0.917 OA 
HETATM   42  C   UNL     1      -9.560  16.359  66.071  1.00  0.00    -0.319 A  
HETATM   43  C   UNL     1      -8.484  17.142  65.639  1.00  0.00     0.530 A  
HETATM   44  N   UNL     1     -10.844  16.422  65.358  1.00  0.00    -0.300 N  
HETATM   45  C   UNL     1      -7.124  16.233  67.426  1.00  0.00    -0.200 A  
ENDBRANCH  12  37
ENDBRANCH   3   5
ENDBRANCH   2   3
TORSDOF 11
ENDMDL
MODEL      255
REMARK 921   NORMALIZED FREE ENERGY PREDICTED BY IDOCK:    5.55 KCAL/MOL
REMARK 922        TOTAL FREE ENERGY PREDICTED BY IDOCK:    7.26 KCAL/MOL
REMARK 923 INTER-LIGAND FREE ENERGY PREDICTED BY IDOCK:    1.43 KCAL/MOL
REMARK 924 INTRA-LIGAND FREE ENERGY PREDICTED BY IDOCK:    5.83 KCAL/MOL
REMARK 927      BINDING AFFINITY PREDICTED BY RF-SCORE:    0.00 PKD
ROOT
HETATM    1  C   UNL     1      -8.758   7.402  66.028  1.00  0.00    -0.153 C  
HETATM    2  O   UNL     1      -9.625   8.460  66.444  1.00  0.00    -0.213 OA 
ENDROOT
BRANCH   2   3
HETATM    3  C   UNL     1      -9.640   9.514  65.588  1.00  0.00    -0.277 C  
HETATM    4  O   UNL     1      -8.962   9.596  64.572  1.00  0.00    -0.214 OA 
BRANCH   3   5
HETATM    5  C   UNL     1     -10.561  10.573  66.076  1.00  0.00    -0.164 C  
HETATM    6  C   UNL     1     -11.375  11.249  65.222  1.00  0.00     0.091 C  
HETATM    7  N   UNL     1     -12.187  12.263  65.708  1.00  0.00    -0.603 NA 
HETATM    8  C   UNL     1     -11.506  11.039  63.735  1.00  0.00     0.476 C  
HETATM    9  C   UNL     1     -12.101  12.796  66.977  1.00  0.00    -0.182 C  
HETATM   10  C   UNL     1     -12.878  14.070  67.216  1.00  0.00     0.953 C  
HETATM   11  C   UNL     1     -11.328  12.186  67.903  1.00  0.00    -0.361 C  
HETATM   12  C   UNL     1     -10.541  10.913  67.574  1.00  0.00    -0.271 C  
BRANCH  11  13
HETATM   13  C   UNL     1     -11.116  12.841  69.211  1.00  0.00    -0.133 C  
HETATM   14  O   UNL     1     -11.813  12.633  70.193  1.00  0.00    -0.318 OA 
BRANCH  13  15
HETATM   15  O   UNL     1     -10.074  13.712  69.160  1.00  0.00    -0.019 OA 
BRANCH  15  16
HETATM   16  C   UNL     1      -9.628  14.135  70.465  1.00  0.00     2.688 C  
BRANCH  16  17
HETATM   17  C   UNL     1      -8.785  15.413  70.325  1.00  0.00     0.861 C  
BRANCH  17  18
HETATM   18  N   UNL     1      -8.542  15.891  68.953  1.00  0.00    -0.206 NA 
HETATM   19  C   UNL     1     -10.950  16.384  68.252  1.00  0.00    -0.355 C  
HETATM   20  C   UNL     1      -9.651  15.567  68.028  1.00  0.00    -0.203 C  
HETATM   21  N   UNL     1     -10.758  17.855  68.199  1.00  0.00    -0.332 NA 
HETATM   22  C   UNL     1      -8.361  17.365  68.977  1.00  0.00    -0.066 C  
HETATM   23  C   UNL     1      -9.671  18.179  69.161  1.00  0.00    -0.098 C  
BRANCH  21  24
HETATM   24  C   UNL     1     -10.450  18.327  66.814  1.00  0.00    -0.365 C  
BRANCH  24  25
HETATM   25  C   UNL     1      -9.053  18.960  66.683  1.00  0.00    -0.338 A  
HETATM   26  C   UNL     1      -8.917  20.362  66.730  1.00  0.00    -0.338 A  
HETATM   27  C   UNL     1      -7.884  18.192  66.564  1.00  0.00    -0.287 A  
HETATM   28  C   UNL     1      -7.660  20.968  66.653  1.00  0.00     0.062 A  
HETATM   29  C   UNL     1      -6.516  20.187  66.511  1.00  0.00    -0.231 A  
HETATM   30  C   UNL     1      -6.629  18.800  66.465  1.00  0.00    -0.218 A  
ENDBRANCH  24  25
BRANCH  24  31
HETATM   31  C   UNL     1     -10.706  17.241  65.758  1.00  0.00    -0.132 A  
HETATM   32  C   UNL     1     -11.392  15.160  63.994  1.00  0.00     0.290 A  
HETATM   33  C   UNL     1     -10.270  15.041  64.810  1.00  0.00    -0.121 A  
HETATM   34  C   UNL     1     -11.824  17.353  64.910  1.00  0.00     2.645 A  
HETATM   35  C   UNL     1      -9.932  16.071  65.689  1.00  0.00    -0.346 A  
HETATM   36  C   UNL     1     -12.168  16.315  64.043  1.00  0.00     1.027 A  
ENDBRANCH  24  31
ENDBRANCH  21  24
ENDBRANCH  17  18
ENDBRANCH  16  17
ENDBRANCH  15  16
ENDBRANCH  13  15
ENDBRANCH  11  13
BRANCH  12  37
HETATM   37  C   UNL     1      -9.117  10.993  68.147  1.00  0.00    -0.155 A  
HETATM   38  C   UNL     1      -6.962  12.105  68.319  1.00  0.00    -0.080 A  
HETATM   39  O   UNL     1      -7.909   8.495  71.234  1.00  0.00    -0.096 OA 
HETATM   40  C   UNL     1      -8.736  10.123  69.189  1.00  0.00    -0.173 A  
HETATM   41  O   UNL     1      -5.967   9.504  71.380  1.00  0.00    -0.074 OA 
HETATM   42  C   UNL     1      -7.475  10.256  69.785  1.00  0.00    -0.165 A  
HETATM   43  C   UNL     1      -6.589  11.253  69.360  1.00  0.00    -0.116 A  
HETATM   44  N   UNL     1      -7.091   9.353  70.880  1.00  0.00    -0.110 N  
HETATM   45  C   UNL     1      -8.210  11.970  67.709  1.00  0.00    -0.151 A  
ENDBRANCH  12  37
ENDBRANCH   3   5
ENDBRANCH   2   3
TORSDOF 11
ENDMDL
MODEL      256
REMARK 921   NORMALIZED FREE ENERGY PREDICTED BY IDOCK:    5.95 KCAL/MOL
REMARK 922        TOTAL FREE ENERGY PREDICTED BY IDOCK:    7.91 KCAL/MOL
REMARK 923 INTER-LIGAND FREE ENERGY PREDICTED BY IDOCK:   -1.36 KCAL/MOL
REMARK 924 INTRA-LIGAND FREE ENERGY PREDICTED BY IDOCK:    9.27 KCAL/MOL
REMARK 927      BINDING AFFINITY PREDICTED BY RF-SCORE:    0.00 PKD
ROOT
HETATM    1  C   UNL     1     -10.265   8.107  68.904  1.00  0.00    -0.210 C  
HETATM    2  O   UNL     1      -9.114   7.574  68.243  1.00  0.00    -0.133 OA 
ENDROOT
BRANCH   2   3
HETATM    3  C   UNL     1      -9.345   7.238  66.948  1.00  0.00    -0.156 C  
HETATM    4  O   UNL     1     -10.013   6.280  66.584  1.00  0.00    -0.166 OA 
BRANCH   3   5
HETATM    5  C   UNL     1      -8.640   8.172  66.031  1.00  0.00    -0.165 C  
HETATM    6  C   UNL     1      -8.583   7.939  64.693  1.00  0.00     0.147 C  
HETATM    7  N   UNL     1      -7.876   8.809  63.876  1.00  0.00    -0.133 NA 
HETATM    8  C   UNL     1      -9.211   6.792  63.943  1.00  0.00     1.827 C  
HETATM    9  C   UNL     1      -7.039   9.805  64.330  1.00  0.00    -0.129 C  
HETATM   10  C   UNL     1      -6.153  10.454  63.292  1.00  0.00    -0.122 C  
HETATM   11  C   UNL     1      -7.033  10.122  65.644  1.00  0.00    -0.125 C  
HETATM   12  C   UNL     1      -7.938   9.393  66.645  1.00  0.00    -0.108 C  
BRANCH  11  13
HETATM   13  C   UNL     1      -6.029  11.079  66.153  1.00  0.00    -0.132 C  
HETATM   14  O   UNL     1      -5.139  11.556  65.463  1.00  0.00    -0.271 OA 
BRANCH  13  15
HETATM   15  O   UNL     1      -6.214  11.329  67.476  1.00  0.00    -0.056 OA 
BRANCH  15  16
HETATM   16  C   UNL     1      -5.295  12.310  67.999  1.00  0.00    -0.068 C  
BRANCH  16  17
HETATM   17  C   UNL     1      -5.825  13.719  67.691  1.00  0.00    -0.036 C  
BRANCH  17  18
HETATM   18  N   UNL     1      -7.285  13.902  67.767  1.00  0.00    -0.148 NA 
HETATM   19  C   UNL     1      -7.364  16.028  69.184  1.00  0.00    -0.209 C  
HETATM   20  C   UNL     1      -7.719  14.525  69.037  1.00  0.00    -0.113 C  
HETATM   21  N   UNL     1      -7.878  16.883  68.084  1.00  0.00    -0.183 NA 
HETATM   22  C   UNL     1      -7.726  14.765  66.641  1.00  0.00     0.604 C  
HETATM   23  C   UNL     1      -7.403  16.275  66.813  1.00  0.00    -0.208 C  
BRANCH  21  24
HETATM   24  C   UNL     1      -9.368  17.014  68.130  1.00  0.00    -0.254 C  
BRANCH  24  25
HETATM   25  C   UNL     1      -9.906  18.150  67.242  1.00  0.00    -0.316 A  
HETATM   26  C   UNL     1     -10.255  17.881  65.904  1.00  0.00    -0.228 A  
HETATM   27  C   UNL     1     -10.113  19.452  67.725  1.00  0.00    -0.508 A  
HETATM   28  C   UNL     1     -10.782  18.881  65.081  1.00  0.00     0.807 A  
HETATM   29  C   UNL     1     -10.956  20.171  65.574  1.00  0.00     0.010 A  
HETATM   30  C   UNL     1     -10.620  20.456  66.894  1.00  0.00    -0.035 A  
ENDBRANCH  24  25
BRANCH  24  31
HETATM   31  C   UNL     1     -10.078  15.676  67.872  1.00  0.00    -0.225 A  
HETATM   32  C   UNL     1     -11.601  13.382  67.297  1.00  0.00    -0.400 A  
HETATM   33  C   UNL     1     -11.483  13.829  68.610  1.00  0.00    -0.336 A  
HETATM   34  C   UNL     1     -10.191  15.197  66.554  1.00  0.00    -0.283 A  
HETATM   35  C   UNL     1     -10.731  14.970  68.896  1.00  0.00    -0.240 A  
HETATM   36  C   UNL     1     -10.955  14.065  66.269  1.00  0.00    -0.300 A  
ENDBRANCH  24  31
ENDBRANCH  21  24
ENDBRANCH  17  18
ENDBRANCH  16  17
ENDBRANCH  15  16
ENDBRANCH  13  15
ENDBRANCH  11  13
BRANCH  12  37
HETATM   37  C   UNL     1      -7.163   9.052  67.928  1.00  0.00    -0.080 A  
HETATM   38  C   UNL     1      -5.650   7.609  69.168  1.00  0.00    -0.026 A  
HETATM   39  O   UNL     1      -6.912  11.763  71.061  1.00  0.00     1.620 OA 
HETATM   40  C   UNL     1      -7.106   9.992  68.977  1.00  0.00    -0.069 A  
HETATM   41  O   UNL     1      -5.549  10.454  72.173  1.00  0.00    -0.306 OA 
HETATM   42  C   UNL     1      -6.320   9.731  70.107  1.00  0.00    -0.076 A  
HETATM   43  C   UNL     1      -5.582   8.546  70.202  1.00  0.00    -0.021 A  
HETATM   44  N   UNL     1      -6.255  10.722  71.190  1.00  0.00     0.255 N  
HETATM   45  C   UNL     1      -6.443   7.854  68.046  1.00  0.00    -0.052 A  
ENDBRANCH  12  37
ENDBRANCH   3   5
ENDBRANCH   2   3
TORSDOF 11
ENDMDL
MODEL      257
REMARK 921   NORMALIZED FREE ENERGY PREDICTED BY IDOCK:    6.69 KCAL/MOL
REMARK 922        TOTAL FREE ENERGY PREDICTED BY IDOCK:    9.13 KCAL/MOL
REMARK 923 INTER-LIGAND FREE ENERGY PREDICTED BY IDOCK:    3.02 KCAL/MOL
REMARK 924 INTRA-LIGAND FREE ENERGY PREDICTED BY IDOCK:    6.12 KCAL/MOL
REMARK 927      BINDING AFFINITY PREDICTED BY RF-SCORE:    0.00 PKD
ROOT
HETATM    1  C   UNL     1     -11.784   3.721  66.504  1.00  0.00     7.512 C  
HETATM    2  O   UNL     1     -11.355   5.039  66.151  1.00  0.00     0.181 OA 
ENDROOT
BRANCH   2   3
HETATM    3  C   UNL     1     -10.083   5.313  66.539  1.00  0.00    -0.229 C  
HETATM    4  O   UNL     1      -9.089   5.126  65.851  1.00  0.00    -0.145 OA 
BRANCH   3   5
HETATM    5  C   UNL     1     -10.060   5.832  67.931  1.00  0.00    -0.197 C  
HETATM    6  C   UNL     1     -10.362   7.129  68.206  1.00  0.00    -0.195 C  
HETATM    7  N   UNL     1     -10.284   7.587  69.513  1.00  0.00    -0.201 NA 
HETATM    8  C   UNL     1     -10.779   8.192  67.223  1.00  0.00    -0.263 C  
HETATM    9  C   UNL     1      -9.726   6.884  70.559  1.00  0.00    -0.172 C  
HETATM   10  C   UNL     1      -9.488   7.663  71.832  1.00  0.00    -0.183 C  
HETATM   11  C   UNL     1      -9.405   5.582  70.389  1.00  0.00    -0.198 C  
HETATM   12  C   UNL     1      -9.646   4.869  69.054  1.00  0.00    -0.224 C  
BRANCH  11  13
HETATM   13  C   UNL     1      -8.668   4.874  71.456  1.00  0.00    -0.130 C  
HETATM   14  O   UNL     1      -9.208   4.359  72.424  1.00  0.00    -0.118 OA 
BRANCH  13  15
HETATM   15  O   UNL     1      -7.328   4.901  71.229  1.00  0.00    -0.064 OA 
BRANCH  15  16
HETATM   16  C   UNL     1      -6.847   6.207  70.847  1.00  0.00    -0.063 C  
BRANCH  16  17
HETATM   17  C   UNL     1      -6.113   6.104  69.500  1.00  0.00    -0.029 C  
BRANCH  17  18
HETATM   18  N   UNL     1      -5.529   7.351  68.976  1.00  0.00    -0.018 NA 
HETATM   19  C   UNL     1      -7.177   7.813  67.076  1.00  0.00    -0.089 C  
HETATM   20  C   UNL     1      -5.722   7.505  67.516  1.00  0.00    -0.035 C  
HETATM   21  N   UNL     1      -7.762   9.017  67.719  1.00  0.00    -0.096 NA 
HETATM   22  C   UNL     1      -6.161   8.508  69.660  1.00  0.00    -0.039 C  
HETATM   23  C   UNL     1      -7.603   8.837  69.186  1.00  0.00    -0.088 C  
BRANCH  21  24
HETATM   24  C   UNL     1      -7.123  10.277  67.228  1.00  0.00    -0.088 C  
BRANCH  24  25
HETATM   25  C   UNL     1      -6.704  10.211  65.749  1.00  0.00    -0.110 A  
HETATM   26  C   UNL     1      -5.638  11.011  65.291  1.00  0.00     0.070 A  
HETATM   27  C   UNL     1      -7.313   9.341  64.830  1.00  0.00    -0.103 A  
HETATM   28  C   UNL     1      -5.208  10.947  63.963  1.00  0.00    -0.002 A  
HETATM   29  C   UNL     1      -5.842  10.095  63.063  1.00  0.00    -0.127 A  
HETATM   30  C   UNL     1      -6.895   9.295  63.496  1.00  0.00    -0.091 A  
ENDBRANCH  24  25
BRANCH  24  31
HETATM   31  C   UNL     1      -7.968  11.521  67.547  1.00  0.00    -0.133 A  
HETATM   32  C   UNL     1      -9.511  13.853  67.847  1.00  0.00    -0.212 A  
HETATM   33  C   UNL     1      -8.161  13.862  68.189  1.00  0.00    -0.158 A  
HETATM   34  C   UNL     1      -9.338  11.525  67.227  1.00  0.00    -0.170 A  
HETATM   35  C   UNL     1      -7.393  12.706  68.036  1.00  0.00    -0.114 A  
HETATM   36  C   UNL     1     -10.100  12.686  67.368  1.00  0.00    -0.218 A  
ENDBRANCH  24  31
ENDBRANCH  21  24
ENDBRANCH  17  18
ENDBRANCH  16  17
ENDBRANCH  15  16
ENDBRANCH  13  15
ENDBRANCH  11  13
BRANCH  12  37
HETATM   37  C   UNL     1      -8.434   4.001  68.676  1.00  0.00    -0.102 A  
HETATM   38  C   UNL     1      -6.876   2.204  69.179  1.00  0.00    -0.033 A  
HETATM   39  O   UNL     1      -6.794   4.157  64.866  1.00  0.00    -0.047 OA 
HETATM   40  C   UNL     1      -7.895   4.086  67.376  1.00  0.00    -0.091 A  
HETATM   41  O   UNL     1      -5.392   2.537  65.331  1.00  0.00    -0.008 OA 
HETATM   42  C   UNL     1      -6.857   3.228  66.992  1.00  0.00    -0.049 A  
HETATM   43  C   UNL     1      -6.352   2.278  67.887  1.00  0.00    -0.028 A  
HETATM   44  N   UNL     1      -6.310   3.313  65.630  1.00  0.00    -0.031 N  
HETATM   45  C   UNL     1      -7.901   3.066  69.575  1.00  0.00    -0.052 A  
ENDBRANCH  12  37
ENDBRANCH   3   5
ENDBRANCH   2   3
TORSDOF 11
ENDMDL
MODEL      258
REMARK 921   NORMALIZED FREE ENERGY PREDICTED BY IDOCK:    6.90 KCAL/MOL
REMARK 922        TOTAL FREE ENERGY PREDICTED BY IDOCK:    9.48 KCAL/MOL
REMARK 923 INTER-LIGAND FREE ENERGY PREDICTED BY IDOCK:   -1.26 KCAL/MOL
REMARK 924 INTRA-LIGAND FREE ENERGY PREDICTED BY IDOCK:   10.74 KCAL/MOL
REMARK 927      BINDING AFFINITY PREDICTED BY RF-SCORE:    0.00 PKD
ROOT
HETATM    1  C   UNL     1     -10.435  15.604  71.207  1.00  0.00     0.652 C  
HETATM    2  O   UNL     1     -10.714  14.710  70.126  1.00  0.00    -0.096 OA 
ENDROOT
BRANCH   2   3
HETATM    3  C   UNL     1     -11.680  15.165  69.288  1.00  0.00    -0.329 C  
HETATM    4  O   UNL     1     -12.257  16.238  69.404  1.00  0.00    -0.036 OA 
BRANCH   3   5
HETATM    5  C   UNL     1     -11.973  14.160  68.231  1.00  0.00    -0.367 C  
HETATM    6  C   UNL     1     -12.268  12.871  68.545  1.00  0.00     0.037 C  
HETATM    7  N   UNL     1     -12.489  11.953  67.529  1.00  0.00     0.355 NA 
HETATM    8  C   UNL     1     -12.378  12.275  69.925  1.00  0.00    -0.121 C  
HETATM    9  C   UNL     1     -12.239  12.186  66.194  1.00  0.00     0.245 C  
HETATM   10  C   UNL     1     -12.281  10.976  65.289  1.00  0.00     2.305 C  
HETATM   11  C   UNL     1     -11.951  13.440  65.779  1.00  0.00    -0.447 C  
HETATM   12  C   UNL     1     -11.893  14.612  66.765  1.00  0.00    -0.334 C  
BRANCH  11  13
HETATM   13  C   UNL     1     -11.533  13.660  64.379  1.00  0.00    -0.386 C  
HETATM   14  O   UNL     1     -12.313  13.702  63.439  1.00  0.00    -0.719 OA 
BRANCH  13  15
HETATM   15  O   UNL     1     -10.183  13.779  64.283  1.00  0.00    -0.322 OA 
BRANCH  15  16
HETATM   16  C   UNL     1      -9.541  12.573  63.820  1.00  0.00     0.377 C  
BRANCH  16  17
HETATM   17  C   UNL     1     -10.573  11.434  63.773  1.00  0.00    -0.403 C  
BRANCH  17  18
HETATM   18  N   UNL     1     -10.158  10.149  64.361  1.00  0.00    -0.191 NA 
HETATM   19  C   UNL     1      -7.682  10.182  63.725  1.00  0.00    -0.141 C  
HETATM   20  C   UNL     1      -9.067   9.496  63.602  1.00  0.00    -0.103 C  
HETATM   21  N   UNL     1      -7.204  10.337  65.123  1.00  0.00    -0.140 NA 
HETATM   22  C   UNL     1      -9.692  10.380  65.753  1.00  0.00    -0.228 C  
HETATM   23  C   UNL     1      -8.286  11.030  65.870  1.00  0.00    -0.100 C  
BRANCH  21  24
HETATM   24  C   UNL     1      -6.842   9.022  65.737  1.00  0.00    -0.076 C  
BRANCH  24  25
HETATM   25  C   UNL     1      -6.267   9.152  67.158  1.00  0.00    -0.058 A  
HETATM   26  C   UNL     1      -6.167  10.425  67.755  1.00  0.00    -0.056 A  
HETATM   27  C   UNL     1      -5.875   8.039  67.919  1.00  0.00    -0.042 A  
HETATM   28  C   UNL     1      -5.685  10.575  69.058  1.00  0.00    -0.040 A  
HETATM   29  C   UNL     1      -5.280   9.459  69.785  1.00  0.00    -0.033 A  
HETATM   30  C   UNL     1      -5.373   8.193  69.215  1.00  0.00    -0.030 A  
ENDBRANCH  24  25
BRANCH  24  31
HETATM   31  C   UNL     1      -7.991   8.005  65.656  1.00  0.00    -0.114 A  
HETATM   32  C   UNL     1      -9.957   5.994  65.713  1.00  0.00     0.335 A  
HETATM   33  C   UNL     1      -9.030   6.032  64.676  1.00  0.00     0.389 A  
HETATM   34  C   UNL     1      -8.950   7.963  66.684  1.00  0.00    -0.179 A  
HETATM   35  C   UNL     1      -8.050   7.027  64.649  1.00  0.00    -0.083 A  
HETATM   36  C   UNL     1      -9.919   6.960  66.717  1.00  0.00    -0.248 A  
ENDBRANCH  24  31
ENDBRANCH  21  24
ENDBRANCH  17  18
ENDBRANCH  16  17
ENDBRANCH  15  16
ENDBRANCH  13  15
ENDBRANCH  11  13
BRANCH  12  37
HETATM   37  C   UNL     1     -10.670  15.500  66.481  1.00  0.00    -0.304 A  
HETATM   38  C   UNL     1      -8.307  15.749  65.968  1.00  0.00     0.243 A  
HETATM   39  O   UNL     1     -11.089  19.579  65.837  1.00  0.00    -0.260 OA 
HETATM   40  C   UNL     1     -10.847  16.883  66.277  1.00  0.00     0.026 A  
HETATM   41  O   UNL     1      -8.955  19.793  65.378  1.00  0.00    -0.112 OA 
HETATM   42  C   UNL     1      -9.753  17.682  65.918  1.00  0.00    -0.031 A  
HETATM   43  C   UNL     1      -8.484  17.117  65.753  1.00  0.00     0.213 A  
HETATM   44  N   UNL     1      -9.948  19.122  65.694  1.00  0.00     0.017 N  
HETATM   45  C   UNL     1      -9.388  14.948  66.341  1.00  0.00    -0.327 A  
ENDBRANCH  12  37
ENDBRANCH   3   5
ENDBRANCH   2   3
TORSDOF 11
ENDMDL
MODEL      259
REMARK 921   NORMALIZED FREE ENERGY PREDICTED BY IDOCK:    7.17 KCAL/MOL
REMARK 922        TOTAL FREE ENERGY PREDICTED BY IDOCK:    9.93 KCAL/MOL
REMARK 923 INTER-LIGAND FREE ENERGY PREDICTED BY IDOCK:   -3.33 KCAL/MOL
REMARK 924 INTRA-LIGAND FREE ENERGY PREDICTED BY IDOCK:   13.25 KCAL/MOL
REMARK 927      BINDING AFFINITY PREDICTED BY RF-SCORE:    0.00 PKD
ROOT
HETATM    1  C   UNL     1     -12.344  11.026  67.570  1.00  0.00     1.916 C  
HETATM    2  O   UNL     1     -12.081  12.416  67.786  1.00  0.00    -0.447 OA 
ENDROOT
BRANCH   2   3
HETATM    3  C   UNL     1     -11.768  12.711  69.073  1.00  0.00    -0.318 C  
HETATM    4  O   UNL     1     -12.043  12.008  70.036  1.00  0.00    -0.310 OA 
BRANCH   3   5
HETATM    5  C   UNL     1     -11.081  14.027  69.157  1.00  0.00    -0.294 C  
HETATM    6  C   UNL     1     -11.192  14.811  70.262  1.00  0.00    -0.195 C  
HETATM    7  N   UNL     1     -10.574  16.053  70.284  1.00  0.00    -0.258 NA 
HETATM    8  C   UNL     1     -11.950  14.497  71.526  1.00  0.00    -0.362 C  
HETATM    9  C   UNL     1     -10.007  16.666  69.188  1.00  0.00    -0.263 C  
HETATM   10  C   UNL     1      -9.638  18.122  69.357  1.00  0.00     0.198 C  
HETATM   11  C   UNL     1      -9.839  15.963  68.045  1.00  0.00    -0.218 C  
HETATM   12  C   UNL     1     -10.270  14.496  67.940  1.00  0.00    -0.231 C  
BRANCH  11  13
HETATM   13  C   UNL     1      -9.374  16.662  66.829  1.00  0.00    -0.244 C  
HETATM   14  O   UNL     1      -9.962  17.610  66.327  1.00  0.00    -0.318 OA 
BRANCH  13  15
HETATM   15  O   UNL     1      -8.239  16.097  66.341  1.00  0.00    -0.290 OA 
BRANCH  15  16
HETATM   16  C   UNL     1      -8.176  14.673  66.568  1.00  0.00     0.359 C  
BRANCH  16  17
HETATM   17  C   UNL     1      -7.500  14.403  67.922  1.00  0.00    -0.152 C  
BRANCH  17  18
HETATM   18  N   UNL     1      -7.588  13.025  68.435  1.00  0.00    -0.128 NA 
HETATM   19  C   UNL     1      -7.394  11.748  66.229  1.00  0.00     0.320 C  
HETATM   20  C   UNL     1      -8.239  12.099  67.481  1.00  0.00    -0.167 C  
HETATM   21  N   UNL     1      -6.057  11.181  66.539  1.00  0.00    -0.133 NA 
HETATM   22  C   UNL     1      -6.219  12.525  68.720  1.00  0.00    -0.074 C  
HETATM   23  C   UNL     1      -5.392  12.136  67.464  1.00  0.00    -0.103 C  
BRANCH  21  24
HETATM   24  C   UNL     1      -6.156   9.805  67.118  1.00  0.00    -0.059 C  
BRANCH  24  25
HETATM   25  C   UNL     1      -5.952   9.770  68.642  1.00  0.00    -0.042 A  
HETATM   26  C   UNL     1      -6.322   8.620  69.368  1.00  0.00    -0.041 A  
HETATM   27  C   UNL     1      -5.361  10.829  69.350  1.00  0.00    -0.037 A  
HETATM   28  C   UNL     1      -6.116   8.541  70.748  1.00  0.00    -0.033 A  
HETATM   29  C   UNL     1      -5.550   9.613  71.433  1.00  0.00    -0.074 A  
HETATM   30  C   UNL     1      -5.175  10.757  70.734  1.00  0.00    -0.091 A  
ENDBRANCH  24  25
BRANCH  24  31
HETATM   31  C   UNL     1      -7.436   9.078  66.677  1.00  0.00    -0.086 A  
HETATM   32  C   UNL     1      -9.849   7.989  65.726  1.00  0.00     0.435 A  
HETATM   33  C   UNL     1      -9.752   8.422  67.046  1.00  0.00    -0.268 A  
HETATM   34  C   UNL     1      -7.546   8.616  65.353  1.00  0.00    -0.087 A  
HETATM   35  C   UNL     1      -8.556   8.967  67.517  1.00  0.00    -0.120 A  
HETATM   36  C   UNL     1      -8.747   8.084  64.880  1.00  0.00     0.085 A  
ENDBRANCH  24  31
ENDBRANCH  21  24
ENDBRANCH  17  18
ENDBRANCH  16  17
ENDBRANCH  15  16
ENDBRANCH  13  15
ENDBRANCH  11  13
BRANCH  12  37
HETATM   37  C   UNL     1     -10.993  14.238  66.608  1.00  0.00    -0.310 A  
HETATM   38  C   UNL     1     -12.616  14.885  64.918  1.00  0.00    -0.005 A  
HETATM   39  O   UNL     1      -9.717  11.248  64.026  1.00  0.00    -0.237 OA 
HETATM   40  C   UNL     1     -10.540  13.208  65.759  1.00  0.00    -0.293 A  
HETATM   41  O   UNL     1     -11.186  11.839  62.509  1.00  0.00     0.688 OA 
HETATM   42  C   UNL     1     -11.127  13.031  64.499  1.00  0.00    -0.351 A  
HETATM   43  C   UNL     1     -12.158  13.874  64.071  1.00  0.00    -0.437 A  
HETATM   44  N   UNL     1     -10.640  11.962  63.615  1.00  0.00    -0.401 N  
HETATM   45  C   UNL     1     -12.046  15.059  66.180  1.00  0.00     0.149 A  
ENDBRANCH  12  37
ENDBRANCH   3   5
ENDBRANCH   2   3
TORSDOF 11
ENDMDL
MODEL      260
REMARK 921   NORMALIZED FREE ENERGY PREDICTED BY IDOCK:    7.40 KCAL/MOL
REMARK 922        TOTAL FREE ENERGY PREDICTED BY IDOCK:   10.30 KCAL/MOL
REMARK 923 INTER-LIGAND FREE ENERGY PREDICTED BY IDOCK:   -1.23 KCAL/MOL
REMARK 924 INTRA-LIGAND FREE ENERGY PREDICTED BY IDOCK:   11.53 KCAL/MOL
REMARK 927      BINDING AFFINITY PREDICTED BY RF-SCORE:    0.00 PKD
ROOT
HETATM    1  C   UNL     1     -11.183   5.425  71.109  1.00  0.00     0.155 C  
HETATM    2  O   UNL     1      -9.779   5.161  71.057  1.00  0.00    -0.164 OA 
ENDROOT
BRANCH   2   3
HETATM    3  C   UNL     1      -9.089   6.064  70.314  1.00  0.00    -0.151 C  
HETATM    4  O   UNL     1      -7.986   5.865  69.821  1.00  0.00    -0.097 OA 
BRANCH   3   5
HETATM    5  C   UNL     1      -9.837   7.345  70.218  1.00  0.00    -0.187 C  
HETATM    6  C   UNL     1     -10.818   7.657  71.104  1.00  0.00    -0.235 C  
HETATM    7  N   UNL     1     -11.526   8.841  70.954  1.00  0.00    -0.280 NA 
HETATM    8  C   UNL     1     -11.271   6.836  72.285  1.00  0.00    -0.295 C  
HETATM    9  C   UNL     1     -11.458   9.659  69.846  1.00  0.00    -0.100 C  
HETATM   10  C   UNL     1     -12.506  10.744  69.756  1.00  0.00    -0.231 C  
HETATM   11  C   UNL     1     -10.505   9.438  68.913  1.00  0.00    -0.236 C  
HETATM   12  C   UNL     1      -9.496   8.293  69.058  1.00  0.00    -0.155 C  
BRANCH  11  13
HETATM   13  C   UNL     1     -10.530  10.216  67.657  1.00  0.00    -0.245 C  
HETATM   14  O   UNL     1     -11.401  10.099  66.807  1.00  0.00     0.028 OA 
BRANCH  13  15
HETATM   15  O   UNL     1      -9.455  11.043  67.570  1.00  0.00    -0.162 OA 
BRANCH  15  16
HETATM   16  C   UNL     1      -9.732  12.252  66.834  1.00  0.00    -0.212 C  
BRANCH  16  17
HETATM   17  C   UNL     1      -8.694  13.323  67.206  1.00  0.00    -0.214 C  
BRANCH  17  18
HETATM   18  N   UNL     1      -9.218  14.668  67.503  1.00  0.00    -0.188 NA 
HETATM   19  C   UNL     1     -11.612  14.047  68.149  1.00  0.00    -0.334 C  
HETATM   20  C   UNL     1     -10.658  14.805  67.189  1.00  0.00    -0.285 C  
HETATM   21  N   UNL     1     -11.445  14.407  69.579  1.00  0.00    -0.274 NA 
HETATM   22  C   UNL     1      -9.019  14.958  68.947  1.00  0.00    -0.184 C  
HETATM   23  C   UNL     1     -10.005  14.227  69.900  1.00  0.00     0.725 C  
BRANCH  21  24
HETATM   24  C   UNL     1     -11.922  15.796  69.864  1.00  0.00    -0.332 C  
BRANCH  24  25
HETATM   25  C   UNL     1     -11.871  16.163  71.357  1.00  0.00    -0.490 A  
HETATM   26  C   UNL     1     -11.195  17.330  71.765  1.00  0.00     1.386 A  
HETATM   27  C   UNL     1     -12.517  15.401  72.345  1.00  0.00    -0.463 A  
HETATM   28  C   UNL     1     -11.161  17.712  73.109  1.00  0.00     1.871 A  
HETATM   29  C   UNL     1     -11.788  16.929  74.073  1.00  0.00    -0.018 A  
HETATM   30  C   UNL     1     -12.464  15.773  73.692  1.00  0.00    -0.692 A  
ENDBRANCH  24  25
BRANCH  24  31
HETATM   31  C   UNL     1     -11.231  16.842  68.976  1.00  0.00     0.034 A  
HETATM   32  C   UNL     1     -10.082  18.959  67.522  1.00  0.00    -0.424 A  
HETATM   33  C   UNL     1     -11.195  18.290  67.018  1.00  0.00     0.456 A  
HETATM   34  C   UNL     1     -10.093  17.515  69.459  1.00  0.00     0.059 A  
HETATM   35  C   UNL     1     -11.769  17.243  67.741  1.00  0.00     1.067 A  
HETATM   36  C   UNL     1      -9.530  18.571  68.741  1.00  0.00    -0.334 A  
ENDBRANCH  24  31
ENDBRANCH  21  24
ENDBRANCH  17  18
ENDBRANCH  16  17
ENDBRANCH  15  16
ENDBRANCH  13  15
ENDBRANCH  11  13
BRANCH  12  37
HETATM   37  C   UNL     1      -9.315   7.557  67.721  1.00  0.00    -0.150 A  
HETATM   38  C   UNL     1      -8.419   7.456  65.463  1.00  0.00    -0.126 A  
HETATM   39  O   UNL     1     -10.449   3.587  67.292  1.00  0.00     1.063 OA 
HETATM   40  C   UNL     1      -9.720   6.212  67.606  1.00  0.00    -0.121 A  
HETATM   41  O   UNL     1      -9.639   3.507  65.255  1.00  0.00    -0.162 OA 
HETATM   42  C   UNL     1      -9.467   5.504  66.424  1.00  0.00    -0.155 A  
HETATM   43  C   UNL     1      -8.808   6.119  65.354  1.00  0.00    -0.016 A  
HETATM   44  N   UNL     1      -9.881   4.097  66.317  1.00  0.00    -0.208 N  
HETATM   45  C   UNL     1      -8.680   8.173  66.632  1.00  0.00    -0.152 A  
ENDBRANCH  12  37
ENDBRANCH   3   5
ENDBRANCH   2   3
TORSDOF 11
ENDMDL
MODEL      261
REMARK 921   NORMALIZED FREE ENERGY PREDICTED BY IDOCK:    7.81 KCAL/MOL
REMARK 922        TOTAL FREE ENERGY PREDICTED BY IDOCK:   10.97 KCAL/MOL
REMARK 923 INTER-LIGAND FREE ENERGY PREDICTED BY IDOCK:    1.50 KCAL/MOL
REMARK 924 INTRA-LIGAND FREE ENERGY PREDICTED BY IDOCK:    9.46 KCAL/MOL
REMARK 927      BINDING AFFINITY PREDICTED BY RF-SCORE:    0.00 PKD
ROOT
HETATM    1  C   UNL     1      -7.028  15.127  71.865  1.00  0.00     2.567 C  
HETATM    2  O   UNL     1      -6.998  15.867  70.641  1.00  0.00     0.732 OA 
ENDROOT
BRANCH   2   3
HETATM    3  C   UNL     1      -6.368  15.213  69.632  1.00  0.00    -0.146 C  
HETATM    4  O   UNL     1      -5.161  15.235  69.433  1.00  0.00    -0.093 OA 
BRANCH   3   5
HETATM    5  C   UNL     1      -7.351  14.498  68.776  1.00  0.00    -0.129 C  
HETATM    6  C   UNL     1      -6.947  13.643  67.799  1.00  0.00    -0.162 C  
HETATM    7  N   UNL     1      -7.893  13.031  66.991  1.00  0.00    -0.047 NA 
HETATM    8  C   UNL     1      -5.530  13.264  67.454  1.00  0.00     0.114 C  
HETATM    9  C   UNL     1      -9.230  13.367  66.955  1.00  0.00    -0.248 C  
HETATM   10  C   UNL     1     -10.032  12.780  65.817  1.00  0.00    -0.259 C  
HETATM   11  C   UNL     1      -9.731  14.200  67.894  1.00  0.00    -0.224 C  
HETATM   12  C   UNL     1      -8.844  14.783  69.000  1.00  0.00    -0.136 C  
BRANCH  11  13
HETATM   13  C   UNL     1     -11.123  14.679  67.765  1.00  0.00    -0.298 C  
HETATM   14  O   UNL     1     -11.605  15.082  66.716  1.00  0.00    -0.312 OA 
BRANCH  13  15
HETATM   15  O   UNL     1     -11.770  14.636  68.959  1.00  0.00    -0.277 OA 
BRANCH  15  16
HETATM   16  C   UNL     1     -11.868  13.302  69.499  1.00  0.00    -0.327 C  
BRANCH  16  17
HETATM   17  C   UNL     1     -10.455  12.730  69.702  1.00  0.00     0.778 C  
BRANCH  17  18
HETATM   18  N   UNL     1     -10.368  11.294  70.020  1.00  0.00     0.546 NA 
HETATM   19  C   UNL     1     -10.821  10.327  67.697  1.00  0.00    -0.307 C  
HETATM   20  C   UNL     1     -11.260  10.466  69.178  1.00  0.00    -0.246 C  
HETATM   21  N   UNL     1      -9.445   9.798  67.520  1.00  0.00    -0.146 NA 
HETATM   22  C   UNL     1      -8.969  10.836  69.819  1.00  0.00     0.461 C  
HETATM   23  C   UNL     1      -8.548  10.660  68.334  1.00  0.00    -0.134 C  
BRANCH  21  24
HETATM   24  C   UNL     1      -9.349   8.356  67.903  1.00  0.00    -0.135 C  
BRANCH  24  25
HETATM   25  C   UNL     1      -8.249   7.596  67.140  1.00  0.00    -0.118 A  
HETATM   26  C   UNL     1      -7.716   8.145  65.957  1.00  0.00    -0.090 A  
HETATM   27  C   UNL     1      -7.709   6.385  67.602  1.00  0.00    -0.102 A  
HETATM   28  C   UNL     1      -6.690   7.501  65.260  1.00  0.00    -0.044 A  
HETATM   29  C   UNL     1      -6.187   6.289  65.723  1.00  0.00    -0.037 A  
HETATM   30  C   UNL     1      -6.697   5.730  66.892  1.00  0.00    -0.058 A  
ENDBRANCH  24  25
BRANCH  24  31
HETATM   31  C   UNL     1      -9.254   8.162  69.424  1.00  0.00    -0.155 A  
HETATM   32  C   UNL     1      -8.860   7.626  72.157  1.00  0.00    -0.161 A  
HETATM   33  C   UNL     1      -9.926   7.040  71.478  1.00  0.00    -0.187 A  
HETATM   34  C   UNL     1      -8.196   8.761  70.132  1.00  0.00    -0.117 A  
HETATM   35  C   UNL     1     -10.119   7.302  70.121  1.00  0.00    -0.192 A  
HETATM   36  C   UNL     1      -7.996   8.487  71.485  1.00  0.00    -0.169 A  
ENDBRANCH  24  31
ENDBRANCH  21  24
ENDBRANCH  17  18
ENDBRANCH  16  17
ENDBRANCH  15  16
ENDBRANCH  13  15
ENDBRANCH  11  13
BRANCH  12  37
HETATM   37  C   UNL     1      -9.141  16.278  69.200  1.00  0.00    -0.230 A  
HETATM   38  C   UNL     1     -10.222  18.078  70.427  1.00  0.00     1.670 A  
HETATM   39  O   UNL     1      -7.083  19.176  67.054  1.00  0.00    -0.203 OA 
HETATM   40  C   UNL     1      -8.431  17.236  68.448  1.00  0.00    -0.254 A  
HETATM   41  O   UNL     1      -8.066  20.791  68.166  1.00  0.00     0.105 OA 
HETATM   42  C   UNL     1      -8.622  18.601  68.696  1.00  0.00    -0.307 A  
HETATM   43  C   UNL     1      -9.508  19.026  69.692  1.00  0.00     0.341 A  
HETATM   44  N   UNL     1      -7.868  19.594  67.916  1.00  0.00    -0.292 N  
HETATM   45  C   UNL     1     -10.048  16.715  70.176  1.00  0.00     0.530 A  
ENDBRANCH  12  37
ENDBRANCH   3   5
ENDBRANCH   2   3
TORSDOF 11
ENDMDL
MODEL      262
REMARK 921   NORMALIZED FREE ENERGY PREDICTED BY IDOCK:    8.09 KCAL/MOL
REMARK 922        TOTAL FREE ENERGY PREDICTED BY IDOCK:   11.44 KCAL/MOL
REMARK 923 INTER-LIGAND FREE ENERGY PREDICTED BY IDOCK:   -0.71 KCAL/MOL
REMARK 924 INTRA-LIGAND FREE ENERGY PREDICTED BY IDOCK:   12.14 KCAL/MOL
REMARK 927      BINDING AFFINITY PREDICTED BY RF-SCORE:    0.00 PKD
ROOT
HETATM    1  C   UNL     1     -11.281   7.659  66.279  1.00  0.00     2.448 C  
HETATM    2  O   UNL     1     -10.088   8.433  66.133  1.00  0.00    -0.182 OA 
ENDROOT
BRANCH   2   3
HETATM    3  C   UNL     1      -8.998   7.856  66.699  1.00  0.00    -0.151 C  
HETATM    4  O   UNL     1      -8.109   7.287  66.079  1.00  0.00    -0.108 OA 
BRANCH   3   5
HETATM    5  C   UNL     1      -9.053   7.971  68.180  1.00  0.00    -0.134 C  
HETATM    6  C   UNL     1     -10.220   7.815  68.858  1.00  0.00    -0.211 C  
HETATM    7  N   UNL     1     -10.239   7.976  70.236  1.00  0.00    -0.197 NA 
HETATM    8  C   UNL     1     -11.571   7.485  68.276  1.00  0.00     1.119 C  
HETATM    9  C   UNL     1      -9.197   8.487  70.980  1.00  0.00    -0.182 C  
HETATM   10  C   UNL     1      -9.515   8.840  72.414  1.00  0.00    -0.181 C  
HETATM   11  C   UNL     1      -7.989   8.665  70.398  1.00  0.00    -0.101 C  
HETATM   12  C   UNL     1      -7.753   8.313  68.925  1.00  0.00    -0.102 C  
BRANCH  11  13
HETATM   13  C   UNL     1      -6.920   9.353  71.151  1.00  0.00    -0.009 C  
HETATM   14  O   UNL     1      -6.605  10.519  70.966  1.00  0.00    -0.326 OA 
BRANCH  13  15
HETATM   15  O   UNL     1      -6.329   8.513  72.042  1.00  0.00    -0.061 OA 
BRANCH  15  16
HETATM   16  C   UNL     1      -7.050   8.414  73.287  1.00  0.00    -0.072 C  
BRANCH  16  17
HETATM   17  C   UNL     1      -6.227   7.585  74.287  1.00  0.00    -0.081 C  
BRANCH  17  18
HETATM   18  N   UNL     1      -5.834   6.234  73.851  1.00  0.00    -0.060 NA 
HETATM   19  C   UNL     1      -7.970   5.558  72.620  1.00  0.00    -0.103 C  
HETATM   20  C   UNL     1      -6.979   5.297  73.784  1.00  0.00    -0.081 C  
HETATM   21  N   UNL     1      -7.339   5.566  71.276  1.00  0.00    -0.082 NA 
HETATM   22  C   UNL     1      -5.214   6.320  72.504  1.00  0.00    -0.031 C  
HETATM   23  C   UNL     1      -6.217   6.540  71.338  1.00  0.00    -0.041 C  
BRANCH  21  24
HETATM   24  C   UNL     1      -6.886   4.201  70.865  1.00  0.00    -0.032 C  
BRANCH  24  25
HETATM   25  C   UNL     1      -6.765   3.219  72.043  1.00  0.00    -0.019 A  
HETATM   26  C   UNL     1      -5.535   3.090  72.718  1.00  0.00     0.000 A  
HETATM   27  C   UNL     1      -7.854   2.469  72.515  1.00  0.00    -0.054 A  
HETATM   28  C   UNL     1      -5.401   2.236  73.816  1.00  0.00     0.000 A  
HETATM   29  C   UNL     1      -6.488   1.483  74.252  1.00  0.00    -0.012 A  
HETATM   30  C   UNL     1      -7.713   1.598  73.600  1.00  0.00    -0.040 A  
ENDBRANCH  24  25
BRANCH  24  31
HETATM   31  C   UNL     1      -7.723   3.635  69.707  1.00  0.00    -0.051 A  
HETATM   32  C   UNL     1      -9.079   2.742  67.410  1.00  0.00    -0.208 A  
HETATM   33  C   UNL     1      -9.632   3.746  68.200  1.00  0.00    -0.176 A  
HETATM   34  C   UNL     1      -7.189   2.606  68.909  1.00  0.00    -0.044 A  
HETATM   35  C   UNL     1      -8.958   4.193  69.338  1.00  0.00    -0.161 A  
HETATM   36  C   UNL     1      -7.859   2.171  67.764  1.00  0.00    -0.059 A  
ENDBRANCH  24  31
ENDBRANCH  21  24
ENDBRANCH  17  18
ENDBRANCH  16  17
ENDBRANCH  15  16
ENDBRANCH  13  15
ENDBRANCH  11  13
BRANCH  12  37
HETATM   37  C   UNL     1      -6.940   9.417  68.228  1.00  0.00    -0.071 A  
HETATM   38  C   UNL     1      -5.209  10.107  66.667  1.00  0.00    -0.040 A  
HETATM   39  O   UNL     1      -8.021  13.410  68.568  1.00  0.00    -0.139 OA 
HETATM   40  C   UNL     1      -7.329  10.764  68.372  1.00  0.00    -0.092 A  
HETATM   41  O   UNL     1      -6.455  14.023  67.160  1.00  0.00    -0.187 OA 
HETATM   42  C   UNL     1      -6.657  11.766  67.661  1.00  0.00    -0.085 A  
HETATM   43  C   UNL     1      -5.603  11.440  66.799  1.00  0.00    -0.129 A  
HETATM   44  N   UNL     1      -7.077  13.167  67.807  1.00  0.00    -0.131 N  
HETATM   45  C   UNL     1      -5.865   9.104  67.384  1.00  0.00    -0.046 A  
ENDBRANCH  12  37
ENDBRANCH   3   5
ENDBRANCH   2   3
TORSDOF 11
ENDMDL
MODEL      263
REMARK 921   NORMALIZED FREE ENERGY PREDICTED BY IDOCK:    8.15 KCAL/MOL
REMARK 922        TOTAL FREE ENERGY PREDICTED BY IDOCK:   11.52 KCAL/MOL
REMARK 923 INTER-LIGAND FREE ENERGY PREDICTED BY IDOCK:   -0.55 KCAL/MOL
REMARK 924 INTRA-LIGAND FREE ENERGY PREDICTED BY IDOCK:   12.07 KCAL/MOL
REMARK 927      BINDING AFFINITY PREDICTED BY RF-SCORE:    0.00 PKD
ROOT
HETATM    1  C   UNL     1      -7.131  11.383  70.421  1.00  0.00     1.207 C  
HETATM    2  O   UNL     1      -7.352  10.033  70.004  1.00  0.00    -0.137 OA 
ENDROOT
BRANCH   2   3
HETATM    3  C   UNL     1      -8.290   9.387  70.743  1.00  0.00    -0.131 C  
HETATM    4  O   UNL     1      -8.470   9.555  71.942  1.00  0.00     0.093 OA 
BRANCH   3   5
HETATM    5  C   UNL     1      -9.041   8.417  69.905  1.00  0.00    -0.146 C  
HETATM    6  C   UNL     1     -10.357   8.602  69.618  1.00  0.00    -0.213 C  
HETATM    7  N   UNL     1     -11.035   7.650  68.871  1.00  0.00    -0.000 NA 
HETATM    8  C   UNL     1     -11.224   9.761  70.039  1.00  0.00    -0.297 C  
HETATM    9  C   UNL     1     -10.538   6.405  68.550  1.00  0.00    -0.252 C  
HETATM   10  C   UNL     1     -11.530   5.421  67.975  1.00  0.00     1.859 C  
HETATM   11  C   UNL     1      -9.235   6.129  68.783  1.00  0.00    -0.124 C  
HETATM   12  C   UNL     1      -8.296   7.171  69.401  1.00  0.00    -0.133 C  
BRANCH  11  13
HETATM   13  C   UNL     1      -8.742   4.750  68.582  1.00  0.00    -0.097 C  
HETATM   14  O   UNL     1      -9.375   3.884  67.995  1.00  0.00    -0.150 OA 
BRANCH  13  15
HETATM   15  O   UNL     1      -7.522   4.577  69.156  1.00  0.00    -0.055 OA 
BRANCH  15  16
HETATM   16  C   UNL     1      -6.717   3.589  68.480  1.00  0.00    -0.045 C  
BRANCH  16  17
HETATM   17  C   UNL     1      -7.635   2.550  67.816  1.00  0.00    -0.056 C  
BRANCH  17  18
HETATM   18  N   UNL     1      -8.053   2.835  66.432  1.00  0.00    -0.081 NA 
HETATM   19  C   UNL     1      -6.630   4.912  65.989  1.00  0.00    -0.045 C  
HETATM   20  C   UNL     1      -8.041   4.281  66.115  1.00  0.00    -0.102 C  
HETATM   21  N   UNL     1      -5.754   4.245  64.993  1.00  0.00    -0.014 NA 
HETATM   22  C   UNL     1      -7.134   2.138  65.495  1.00  0.00    -0.052 C  
HETATM   23  C   UNL     1      -5.736   2.799  65.342  1.00  0.00    -0.018 C  
BRANCH  21  24
HETATM   24  C   UNL     1      -6.218   4.486  63.592  1.00  0.00    -0.022 C  
BRANCH  24  25
HETATM   25  C   UNL     1      -7.443   3.639  63.202  1.00  0.00    -0.054 A  
HETATM   26  C   UNL     1      -8.730   4.211  63.255  1.00  0.00    -0.112 A  
HETATM   27  C   UNL     1      -7.333   2.317  62.744  1.00  0.00    -0.041 A  
HETATM   28  C   UNL     1      -9.860   3.483  62.873  1.00  0.00    -0.126 A  
HETATM   29  C   UNL     1      -9.729   2.166  62.444  1.00  0.00    -0.088 A  
HETATM   30  C   UNL     1      -8.466   1.582  62.382  1.00  0.00    -0.061 A  
ENDBRANCH  24  25
BRANCH  24  31
HETATM   31  C   UNL     1      -6.414   5.980  63.292  1.00  0.00    -0.029 A  
HETATM   32  C   UNL     1      -6.803   8.753  63.029  1.00  0.00    -0.090 A  
HETATM   33  C   UNL     1      -7.835   7.872  62.716  1.00  0.00    -0.143 A  
HETATM   34  C   UNL     1      -5.377   6.884  63.583  1.00  0.00    -0.028 A  
HETATM   35  C   UNL     1      -7.645   6.496  62.851  1.00  0.00    -0.085 A  
HETATM   36  C   UNL     1      -5.574   8.260  63.461  1.00  0.00    -0.062 A  
ENDBRANCH  24  31
ENDBRANCH  21  24
ENDBRANCH  17  18
ENDBRANCH  16  17
ENDBRANCH  15  16
ENDBRANCH  13  15
ENDBRANCH  11  13
BRANCH  12  37
HETATM   37  C   UNL     1      -7.411   6.529  70.482  1.00  0.00    -0.090 A  
HETATM   38  C   UNL     1      -5.250   6.254  71.563  1.00  0.00    -0.022 A  
HETATM   39  O   UNL     1      -9.074   4.313  73.573  1.00  0.00    -0.102 OA 
HETATM   40  C   UNL     1      -8.007   5.774  71.513  1.00  0.00    -0.113 A  
HETATM   41  O   UNL     1      -7.120   4.069  74.538  1.00  0.00    -0.061 OA 
HETATM   42  C   UNL     1      -7.220   5.272  72.556  1.00  0.00    -0.092 A  
HETATM   43  C   UNL     1      -5.843   5.518  72.591  1.00  0.00    -0.027 A  
HETATM   44  N   UNL     1      -7.851   4.496  73.634  1.00  0.00    -0.089 N  
HETATM   45  C   UNL     1      -6.026   6.746  70.511  1.00  0.00    -0.024 A  
ENDBRANCH  12  37
ENDBRANCH   3   5
ENDBRANCH   2   3
TORSDOF 11
ENDMDL
MODEL      264
REMARK 921   NORMALIZED FREE ENERGY PREDICTED BY IDOCK:    8.19 KCAL/MOL
REMARK 922        TOTAL FREE ENERGY PREDICTED BY IDOCK:   11.60 KCAL/MOL
REMARK 923 INTER-LIGAND FREE ENERGY PREDICTED BY IDOCK:   -2.94 KCAL/MOL
REMARK 924 INTRA-LIGAND FREE ENERGY PREDICTED BY IDOCK:   14.54 KCAL/MOL
REMARK 927      BINDING AFFINITY PREDICTED BY RF-SCORE:    0.00 PKD
ROOT
HETATM    1  C   UNL     1     -10.581   5.683  72.886  1.00  0.00    -0.232 C  
HETATM    2  O   UNL     1      -9.432   6.311  72.312  1.00  0.00    -0.150 OA 
ENDROOT
BRANCH   2   3
HETATM    3  C   UNL     1      -9.624   6.718  71.031  1.00  0.00    -0.170 C  
HETATM    4  O   UNL     1      -9.031   6.269  70.060  1.00  0.00    -0.146 OA 
BRANCH   3   5
HETATM    5  C   UNL     1     -10.625   7.816  70.975  1.00  0.00    -0.226 C  
HETATM    6  C   UNL     1     -11.703   7.832  71.802  1.00  0.00    -0.284 C  
HETATM    7  N   UNL     1     -12.640   8.848  71.688  1.00  0.00    -0.329 NA 
HETATM    8  C   UNL     1     -12.038   6.828  72.876  1.00  0.00     0.449 C  
HETATM    9  C   UNL     1     -12.684   9.761  70.656  1.00  0.00    -0.088 C  
HETATM   10  C   UNL     1     -13.935  10.604  70.567  1.00  0.00     1.651 C  
HETATM   11  C   UNL     1     -11.651   9.833  69.787  1.00  0.00    -0.081 C  
HETATM   12  C   UNL     1     -10.428   8.918  69.923  1.00  0.00    -0.223 C  
BRANCH  11  13
HETATM   13  C   UNL     1     -11.767  10.701  68.596  1.00  0.00    -0.158 C  
HETATM   14  O   UNL     1     -12.280  11.810  68.616  1.00  0.00    -0.405 OA 
BRANCH  13  15
HETATM   15  O   UNL     1     -11.259  10.091  67.493  1.00  0.00    -0.228 OA 
BRANCH  15  16
HETATM   16  C   UNL     1     -10.882  11.022  66.457  1.00  0.00    -0.209 C  
BRANCH  16  17
HETATM   17  C   UNL     1      -9.658  11.829  66.919  1.00  0.00    -0.193 C  
BRANCH  17  18
HETATM   18  N   UNL     1      -9.928  13.154  67.502  1.00  0.00    -0.220 NA 
HETATM   19  C   UNL     1      -7.642  13.623  68.546  1.00  0.00    -0.130 C  
HETATM   20  C   UNL     1      -9.164  13.401  68.746  1.00  0.00     0.112 C  
HETATM   21  N   UNL     1      -7.309  14.725  67.608  1.00  0.00    -0.171 NA 
HETATM   22  C   UNL     1      -9.571  14.202  66.512  1.00  0.00    -0.296 C  
HETATM   23  C   UNL     1      -8.046  14.449  66.346  1.00  0.00     0.892 C  
BRANCH  21  24
HETATM   24  C   UNL     1      -7.643  16.065  68.181  1.00  0.00    -0.136 C  
BRANCH  24  25
HETATM   25  C   UNL     1      -7.267  17.234  67.253  1.00  0.00    -0.191 A  
HETATM   26  C   UNL     1      -8.079  17.529  66.140  1.00  0.00    -0.244 A  
HETATM   27  C   UNL     1      -6.161  18.064  67.495  1.00  0.00    -0.165 A  
HETATM   28  C   UNL     1      -7.788  18.606  65.299  1.00  0.00     1.111 A  
HETATM   29  C   UNL     1      -6.672  19.401  65.544  1.00  0.00    -0.309 A  
HETATM   30  C   UNL     1      -5.858  19.128  66.640  1.00  0.00    -0.171 A  
ENDBRANCH  24  25
BRANCH  24  31
HETATM   31  C   UNL     1      -9.098  16.144  68.668  1.00  0.00    -0.218 A  
HETATM   32  C   UNL     1     -11.757  15.999  69.574  1.00  0.00    -0.275 A  
HETATM   33  C   UNL     1     -11.492  16.259  68.233  1.00  0.00    -0.207 A  
HETATM   34  C   UNL     1      -9.386  15.904  70.025  1.00  0.00     0.370 A  
HETATM   35  C   UNL     1     -10.172  16.326  67.781  1.00  0.00    -0.270 A  
HETATM   36  C   UNL     1     -10.706  15.823  70.471  1.00  0.00    -0.253 A  
ENDBRANCH  24  31
ENDBRANCH  21  24
ENDBRANCH  17  18
ENDBRANCH  16  17
ENDBRANCH  15  16
ENDBRANCH  13  15
ENDBRANCH  11  13
BRANCH  12  37
HETATM   37  C   UNL     1     -10.011   8.364  68.551  1.00  0.00    -0.203 A  
HETATM   38  C   UNL     1     -10.380   6.871  66.668  1.00  0.00    -0.214 A  
HETATM   39  O   UNL     1      -6.997  10.169  66.340  1.00  0.00    -0.095 OA 
HETATM   40  C   UNL     1      -8.977   8.995  67.830  1.00  0.00    -0.135 A  
HETATM   41  O   UNL     1      -7.337   8.816  64.647  1.00  0.00    -0.093 OA 
HETATM   42  C   UNL     1      -8.659   8.559  66.537  1.00  0.00    -0.121 A  
HETATM   43  C   UNL     1      -9.365   7.505  65.949  1.00  0.00     0.022 A  
HETATM   44  N   UNL     1      -7.588   9.231  65.788  1.00  0.00    -0.097 N  
HETATM   45  C   UNL     1     -10.694   7.289  67.963  1.00  0.00    -0.209 A  
ENDBRANCH  12  37
ENDBRANCH   3   5
ENDBRANCH   2   3
TORSDOF 11
ENDMDL
MODEL      265
REMARK 921   NORMALIZED FREE ENERGY PREDICTED BY IDOCK:    8.24 KCAL/MOL
REMARK 922        TOTAL FREE ENERGY PREDICTED BY IDOCK:   11.68 KCAL/MOL
REMARK 923 INTER-LIGAND FREE ENERGY PREDICTED BY IDOCK:    0.73 KCAL/MOL
REMARK 924 INTRA-LIGAND FREE ENERGY PREDICTED BY IDOCK:   10.95 KCAL/MOL
REMARK 927      BINDING AFFINITY PREDICTED BY RF-SCORE:    0.00 PKD
ROOT
HETATM    1  C   UNL     1     -12.860  12.230  66.569  1.00  0.00     2.384 C  
HETATM    2  O   UNL     1     -12.742  13.476  67.260  1.00  0.00     0.105 OA 
ENDROOT
BRANCH   2   3
HETATM    3  C   UNL     1     -12.104  13.372  68.453  1.00  0.00    -0.235 C  
HETATM    4  O   UNL     1     -12.651  13.445  69.546  1.00  0.00    -0.068 OA 
BRANCH   3   5
HETATM    5  C   UNL     1     -10.641  13.199  68.252  1.00  0.00    -0.260 C  
HETATM    6  C   UNL     1     -10.022  13.663  67.134  1.00  0.00    -0.247 C  
HETATM    7  N   UNL     1      -8.664  13.442  66.962  1.00  0.00    -0.211 NA 
HETATM    8  C   UNL     1     -10.656  14.414  65.991  1.00  0.00    -0.304 C  
HETATM    9  C   UNL     1      -7.900  12.603  67.745  1.00  0.00    -0.154 C  
HETATM   10  C   UNL     1      -6.517  12.285  67.226  1.00  0.00    -0.152 C  
HETATM   11  C   UNL     1      -8.422  12.101  68.887  1.00  0.00     0.204 C  
HETATM   12  C   UNL     1      -9.850  12.443  69.330  1.00  0.00     0.594 C  
BRANCH  11  13
HETATM   13  C   UNL     1      -7.662  11.084  69.643  1.00  0.00     0.153 C  
HETATM   14  O   UNL     1      -8.187  10.190  70.291  1.00  0.00    -0.107 OA 
BRANCH  13  15
HETATM   15  O   UNL     1      -6.323  11.295  69.540  1.00  0.00    -0.082 OA 
BRANCH  15  16
HETATM   16  C   UNL     1      -5.564  10.072  69.453  1.00  0.00    -0.038 C  
BRANCH  16  17
HETATM   17  C   UNL     1      -5.228   9.784  67.981  1.00  0.00    -0.039 C  
BRANCH  17  18
HETATM   18  N   UNL     1      -6.185   8.941  67.243  1.00  0.00    -0.058 NA 
HETATM   19  C   UNL     1      -6.940  10.621  65.471  1.00  0.00    -0.050 C  
HETATM   20  C   UNL     1      -7.311   9.714  66.673  1.00  0.00    -0.090 C  
HETATM   21  N   UNL     1      -6.296   9.901  64.344  1.00  0.00    -0.117 NA 
HETATM   22  C   UNL     1      -5.473   8.255  66.134  1.00  0.00    -0.031 C  
HETATM   23  C   UNL     1      -5.141   9.159  64.916  1.00  0.00    -0.040 C  
BRANCH  21  24
HETATM   24  C   UNL     1      -7.257   8.998  63.637  1.00  0.00    -0.093 C  
BRANCH  24  25
HETATM   25  C   UNL     1      -7.232   7.552  64.161  1.00  0.00    -0.080 A  
HETATM   26  C   UNL     1      -8.184   7.140  65.115  1.00  0.00    -0.114 A  
HETATM   27  C   UNL     1      -6.319   6.594  63.691  1.00  0.00    -0.041 A  
HETATM   28  C   UNL     1      -8.213   5.824  65.584  1.00  0.00    -0.128 A  
HETATM   29  C   UNL     1      -7.283   4.898  65.122  1.00  0.00    -0.064 A  
HETATM   30  C   UNL     1      -6.335   5.284  64.178  1.00  0.00    -0.022 A  
ENDBRANCH  24  25
BRANCH  24  31
HETATM   31  C   UNL     1      -8.677   9.583  63.589  1.00  0.00    -0.239 A  
HETATM   32  C   UNL     1     -11.154  10.915  63.521  1.00  0.00     0.348 A  
HETATM   33  C   UNL     1     -10.739  10.275  64.686  1.00  0.00     0.619 A  
HETATM   34  C   UNL     1      -9.124  10.217  62.415  1.00  0.00    -0.311 A  
HETATM   35  C   UNL     1      -9.507   9.618  64.722  1.00  0.00    -0.256 A  
HETATM   36  C   UNL     1     -10.348  10.885  62.386  1.00  0.00     0.613 A  
ENDBRANCH  24  31
ENDBRANCH  21  24
ENDBRANCH  17  18
ENDBRANCH  16  17
ENDBRANCH  15  16
ENDBRANCH  13  15
ENDBRANCH  11  13
BRANCH  12  37
HETATM   37  C   UNL     1     -10.578  11.185  69.831  1.00  0.00     0.147 A  
HETATM   38  C   UNL     1     -12.239  10.125  71.254  1.00  0.00    -0.496 A  
HETATM   39  O   UNL     1     -10.085   7.528  67.930  1.00  0.00    -0.165 OA 
HETATM   40  C   UNL     1     -10.381   9.956  69.168  1.00  0.00    -0.225 A  
HETATM   41  O   UNL     1     -11.584   6.580  69.221  1.00  0.00    -0.309 OA 
HETATM   42  C   UNL     1     -11.116   8.829  69.554  1.00  0.00     0.020 A  
HETATM   43  C   UNL     1     -12.054   8.911  70.589  1.00  0.00    -0.045 A  
HETATM   44  N   UNL     1     -10.914   7.554  68.849  1.00  0.00    -0.022 N  
HETATM   45  C   UNL     1     -11.499  11.250  70.886  1.00  0.00     0.435 A  
ENDBRANCH  12  37
ENDBRANCH   3   5
ENDBRANCH   2   3
TORSDOF 11
ENDMDL
MODEL      266
REMARK 921   NORMALIZED FREE ENERGY PREDICTED BY IDOCK:    8.41 KCAL/MOL
REMARK 922        TOTAL FREE ENERGY PREDICTED BY IDOCK:   11.96 KCAL/MOL
REMARK 923 INTER-LIGAND FREE ENERGY PREDICTED BY IDOCK:   -5.37 KCAL/MOL
REMARK 924 INTRA-LIGAND FREE ENERGY PREDICTED BY IDOCK:   17.33 KCAL/MOL
REMARK 927      BINDING AFFINITY PREDICTED BY RF-SCORE:    0.00 PKD
ROOT
HETATM    1  C   UNL     1     -12.366  11.017  67.482  1.00  0.00     1.916 C  
HETATM    2  O   UNL     1     -12.017  12.403  67.549  1.00  0.00    -0.482 OA 
ENDROOT
BRANCH   2   3
HETATM    3  C   UNL     1     -11.394  12.746  68.705  1.00  0.00    -0.288 C  
HETATM    4  O   UNL     1     -11.227  11.995  69.657  1.00  0.00    -0.202 OA 
BRANCH   3   5
HETATM    5  C   UNL     1     -10.979  14.173  68.674  1.00  0.00    -0.275 C  
HETATM    6  C   UNL     1     -11.248  15.010  69.710  1.00  0.00    -0.277 C  
HETATM    7  N   UNL     1     -10.885  16.346  69.623  1.00  0.00    -0.338 NA 
HETATM    8  C   UNL     1     -11.938  14.660  71.004  1.00  0.00    -0.399 C  
HETATM    9  C   UNL     1     -10.442  16.965  68.475  1.00  0.00    -0.361 C  
HETATM   10  C   UNL     1     -10.366  18.473  68.519  1.00  0.00    -0.315 C  
HETATM   11  C   UNL     1     -10.132  16.216  67.392  1.00  0.00    -0.257 C  
HETATM   12  C   UNL     1     -10.268  14.689  67.413  1.00  0.00    -0.240 C  
BRANCH  11  13
HETATM   13  C   UNL     1      -9.806  16.889  66.118  1.00  0.00    -0.297 C  
HETATM   14  O   UNL     1     -10.637  17.443  65.413  1.00  0.00    -0.638 OA 
BRANCH  13  15
HETATM   15  O   UNL     1      -8.481  16.783  65.832  1.00  0.00    -0.484 OA 
BRANCH  15  16
HETATM   16  C   UNL     1      -7.830  15.722  66.561  1.00  0.00    -0.063 C  
BRANCH  16  17
HETATM   17  C   UNL     1      -7.844  16.053  68.063  1.00  0.00    -0.137 C  
BRANCH  17  18
HETATM   18  N   UNL     1      -7.671  14.918  68.985  1.00  0.00    -0.144 NA 
HETATM   19  C   UNL     1      -6.846  13.156  67.326  1.00  0.00     0.013 C  
HETATM   20  C   UNL     1      -7.928  13.610  68.341  1.00  0.00    -0.147 C  
HETATM   21  N   UNL     1      -5.473  13.099  67.889  1.00  0.00    -0.110 NA 
HETATM   22  C   UNL     1      -6.280  14.923  69.506  1.00  0.00    -0.123 C  
HETATM   23  C   UNL     1      -5.205  14.428  68.499  1.00  0.00    -0.100 C  
BRANCH  21  24
HETATM   24  C   UNL     1      -5.321  11.982  68.872  1.00  0.00    -0.050 C  
BRANCH  24  25
HETATM   25  C   UNL     1      -5.459  12.436  70.336  1.00  0.00    -0.150 A  
HETATM   26  C   UNL     1      -5.133  11.543  71.376  1.00  0.00    -0.061 A  
HETATM   27  C   UNL     1      -5.857  13.736  70.689  1.00  0.00    -0.187 A  
HETATM   28  C   UNL     1      -5.211  11.936  72.715  1.00  0.00     0.594 A  
HETATM   29  C   UNL     1      -5.631  13.222  73.042  1.00  0.00     0.497 A  
HETATM   30  C   UNL     1      -5.956  14.120  72.029  1.00  0.00     0.141 A  
ENDBRANCH  24  25
BRANCH  24  31
HETATM   31  C   UNL     1      -6.224  10.785  68.538  1.00  0.00    -0.046 A  
HETATM   32  C   UNL     1      -7.954   8.736  67.688  1.00  0.00    -0.106 A  
HETATM   33  C   UNL     1      -8.341   9.594  68.714  1.00  0.00    -0.111 A  
HETATM   34  C   UNL     1      -5.841   9.895  67.517  1.00  0.00    -0.053 A  
HETATM   35  C   UNL     1      -7.485  10.614  69.134  1.00  0.00    -0.123 A  
HETATM   36  C   UNL     1      -6.705   8.885  67.090  1.00  0.00    -0.066 A  
ENDBRANCH  24  31
ENDBRANCH  21  24
ENDBRANCH  17  18
ENDBRANCH  16  17
ENDBRANCH  15  16
ENDBRANCH  13  15
ENDBRANCH  11  13
BRANCH  12  37
HETATM   37  C   UNL     1     -10.917  14.185  66.115  1.00  0.00    -0.309 A  
HETATM   38  C   UNL     1     -12.234  14.584  64.111  1.00  0.00    -0.372 A  
HETATM   39  O   UNL     1     -10.063  10.406  64.623  1.00  0.00    -0.345 OA 
HETATM   40  C   UNL     1     -10.613  12.892  65.641  1.00  0.00    -0.295 A  
HETATM   41  O   UNL     1     -11.256  10.776  62.820  1.00  0.00     0.826 OA 
HETATM   42  C   UNL     1     -11.120  12.462  64.408  1.00  0.00    -0.333 A  
HETATM   43  C   UNL     1     -11.922  13.309  63.635  1.00  0.00    -0.547 A  
HETATM   44  N   UNL     1     -10.787  11.118  63.915  1.00  0.00    -0.354 N  
HETATM   45  C   UNL     1     -11.746  15.015  65.345  1.00  0.00    -0.170 A  
ENDBRANCH  12  37
ENDBRANCH   3   5
ENDBRANCH   2   3
TORSDOF 11
ENDMDL
MODEL      267
REMARK 921   NORMALIZED FREE ENERGY PREDICTED BY IDOCK:    9.29 KCAL/MOL
REMARK 922        TOTAL FREE ENERGY PREDICTED BY IDOCK:   13.40 KCAL/MOL
REMARK 923 INTER-LIGAND FREE ENERGY PREDICTED BY IDOCK:    0.35 KCAL/MOL
REMARK 924 INTRA-LIGAND FREE ENERGY PREDICTED BY IDOCK:   13.05 KCAL/MOL
REMARK 927      BINDING AFFINITY PREDICTED BY RF-SCORE:    0.00 PKD
ROOT
HETATM    1  C   UNL     1      -6.994  10.840  70.183  1.00  0.00     0.002 C  
HETATM    2  O   UNL     1      -6.813   9.507  69.697  1.00  0.00    -0.055 OA 
ENDROOT
BRANCH   2   3
HETATM    3  C   UNL     1      -7.800   8.656  70.078  1.00  0.00    -0.103 C  
HETATM    4  O   UNL     1      -7.625   7.497  70.429  1.00  0.00    -0.086 OA 
BRANCH   3   5
HETATM    5  C   UNL     1      -9.129   9.313  69.970  1.00  0.00    -0.229 C  
HETATM    6  C   UNL     1     -10.018   9.280  70.997  1.00  0.00    -0.293 C  
HETATM    7  N   UNL     1     -11.267   9.866  70.841  1.00  0.00    -0.340 NA 
HETATM    8  C   UNL     1      -9.820   8.647  72.350  1.00  0.00    -0.315 C  
HETATM    9  C   UNL     1     -11.776  10.318  69.643  1.00  0.00    -0.160 C  
HETATM   10  C   UNL     1     -13.248  10.661  69.634  1.00  0.00     0.935 C  
HETATM   11  C   UNL     1     -10.965  10.401  68.564  1.00  0.00    -0.302 C  
HETATM   12  C   UNL     1      -9.488  10.000  68.643  1.00  0.00    -0.156 C  
BRANCH  11  13
HETATM   13  C   UNL     1     -11.547  10.738  67.248  1.00  0.00     0.259 C  
HETATM   14  O   UNL     1     -12.623  11.300  67.108  1.00  0.00     1.342 OA 
BRANCH  13  15
HETATM   15  O   UNL     1     -10.745  10.317  66.235  1.00  0.00    -0.123 OA 
BRANCH  15  16
HETATM   16  C   UNL     1     -10.471  11.349  65.265  1.00  0.00    -0.283 C  
BRANCH  16  17
HETATM   17  C   UNL     1     -11.510  12.474  65.413  1.00  0.00    -0.344 C  
BRANCH  17  18
HETATM   18  N   UNL     1     -11.172  13.558  66.352  1.00  0.00    -0.303 NA 
HETATM   19  C   UNL     1      -8.881  12.733  67.131  1.00  0.00    -0.202 C  
HETATM   20  C   UNL     1     -10.347  13.095  67.490  1.00  0.00    -0.225 C  
HETATM   21  N   UNL     1      -8.131  13.831  66.470  1.00  0.00     0.536 NA 
HETATM   22  C   UNL     1     -10.424  14.615  65.624  1.00  0.00    -0.342 C  
HETATM   23  C   UNL     1      -8.945  14.263  65.304  1.00  0.00     1.705 C  
BRANCH  21  24
HETATM   24  C   UNL     1      -7.844  14.957  67.412  1.00  0.00    -0.199 C  
BRANCH  24  25
HETATM   25  C   UNL     1      -9.115  15.620  67.971  1.00  0.00    -0.183 A  
HETATM   26  C   UNL     1      -9.697  16.702  67.279  1.00  0.00    -0.245 A  
HETATM   27  C   UNL     1      -9.760  15.161  69.130  1.00  0.00    -0.232 A  
HETATM   28  C   UNL     1     -10.872  17.303  67.738  1.00  0.00    -0.261 A  
HETATM   29  C   UNL     1     -11.481  16.847  68.903  1.00  0.00     0.270 A  
HETATM   30  C   UNL     1     -10.924  15.778  69.600  1.00  0.00    -0.306 A  
ENDBRANCH  24  25
BRANCH  24  31
HETATM   31  C   UNL     1      -6.855  14.555  68.517  1.00  0.00    -0.096 A  
HETATM   32  C   UNL     1      -5.211  13.587  70.584  1.00  0.00    -0.125 A  
HETATM   33  C   UNL     1      -6.074  14.653  70.822  1.00  0.00    -0.115 A  
HETATM   34  C   UNL     1      -5.960  13.493  68.289  1.00  0.00    -0.100 A  
HETATM   35  C   UNL     1      -6.894  15.131  69.798  1.00  0.00    -0.179 A  
HETATM   36  C   UNL     1      -5.152  13.007  69.318  1.00  0.00    -0.073 A  
ENDBRANCH  24  31
ENDBRANCH  21  24
ENDBRANCH  17  18
ENDBRANCH  16  17
ENDBRANCH  15  16
ENDBRANCH  13  15
ENDBRANCH  11  13
BRANCH  12  37
HETATM   37  C   UNL     1      -9.085   9.169  67.414  1.00  0.00    -0.142 A  
HETATM   38  C   UNL     1      -7.476   8.583  65.689  1.00  0.00    -0.085 A  
HETATM   39  O   UNL     1     -11.377   5.941  66.169  1.00  0.00     0.302 OA 
HETATM   40  C   UNL     1      -9.891   8.085  67.012  1.00  0.00    -0.295 A  
HETATM   41  O   UNL     1      -9.921   5.421  64.614  1.00  0.00     0.625 OA 
HETATM   42  C   UNL     1      -9.480   7.262  65.957  1.00  0.00     0.084 A  
HETATM   43  C   UNL     1      -8.268   7.500  65.299  1.00  0.00    -0.130 A  
HETATM   44  N   UNL     1     -10.320   6.125  65.552  1.00  0.00     1.019 N  
HETATM   45  C   UNL     1      -7.886   9.417  66.730  1.00  0.00    -0.105 A  
ENDBRANCH  12  37
ENDBRANCH   3   5
ENDBRANCH   2   3
TORSDOF 11
ENDMDL
MODEL      268
REMARK 921   NORMALIZED FREE ENERGY PREDICTED BY IDOCK:    9.71 KCAL/MOL
REMARK 922        TOTAL FREE ENERGY PREDICTED BY IDOCK:   14.09 KCAL/MOL
REMARK 923 INTER-LIGAND FREE ENERGY PREDICTED BY IDOCK:    0.97 KCAL/MOL
REMARK 924 INTRA-LIGAND FREE ENERGY PREDICTED BY IDOCK:   13.12 KCAL/MOL
REMARK 927      BINDING AFFINITY PREDICTED BY RF-SCORE:    0.00 PKD
ROOT
HETATM    1  C   UNL     1      -5.641  12.039  67.030  1.00  0.00    -0.112 C  
HETATM    2  O   UNL     1      -6.435  10.855  66.912  1.00  0.00    -0.079 OA 
ENDROOT
BRANCH   2   3
HETATM    3  C   UNL     1      -7.531  10.860  67.714  1.00  0.00    -0.094 C  
HETATM    4  O   UNL     1      -8.338   9.944  67.799  1.00  0.00    -0.114 OA 
BRANCH   3   5
HETATM    5  C   UNL     1      -7.640  12.151  68.444  1.00  0.00    -0.128 C  
HETATM    6  C   UNL     1      -6.603  12.637  69.177  1.00  0.00    -0.099 C  
HETATM    7  N   UNL     1      -6.760  13.822  69.882  1.00  0.00     0.008 NA 
HETATM    8  C   UNL     1      -5.239  12.018  69.342  1.00  0.00    -0.064 C  
HETATM    9  C   UNL     1      -7.962  14.468  70.073  1.00  0.00     0.630 C  
HETATM   10  C   UNL     1      -7.964  15.580  71.095  1.00  0.00     3.249 C  
HETATM   11  C   UNL     1      -9.050  14.067  69.377  1.00  0.00     0.598 C  
HETATM   12  C   UNL     1      -8.977  12.904  68.381  1.00  0.00    -0.124 C  
BRANCH  11  13
HETATM   13  C   UNL     1     -10.367  14.656  69.695  1.00  0.00    -0.003 C  
HETATM   14  O   UNL     1     -11.319  14.006  70.103  1.00  0.00    -0.178 OA 
BRANCH  13  15
HETATM   15  O   UNL     1     -10.379  15.993  69.448  1.00  0.00    -0.234 OA 
BRANCH  15  16
HETATM   16  C   UNL     1     -10.475  16.306  68.043  1.00  0.00    -0.293 C  
BRANCH  16  17
HETATM   17  C   UNL     1      -9.293  15.664  67.297  1.00  0.00    -0.215 C  
BRANCH  17  18
HETATM   18  N   UNL     1      -8.049  16.452  67.240  1.00  0.00    -0.161 NA 
HETATM   19  C   UNL     1      -8.879  18.439  65.862  1.00  0.00     0.229 C  
HETATM   20  C   UNL     1      -7.918  17.228  65.986  1.00  0.00    -0.161 C  
HETATM   21  N   UNL     1      -8.780  19.408  66.983  1.00  0.00    -0.283 NA 
HETATM   22  C   UNL     1      -8.020  17.397  68.386  1.00  0.00    -0.259 C  
HETATM   23  C   UNL     1      -8.954  18.630  68.238  1.00  0.00    -0.318 C  
BRANCH  21  24
HETATM   24  C   UNL     1      -7.488  20.162  66.956  1.00  0.00    -0.280 C  
BRANCH  24  25
HETATM   25  C   UNL     1      -6.708  20.078  68.280  1.00  0.00    -0.324 A  
HETATM   26  C   UNL     1      -6.262  18.825  68.747  1.00  0.00    -0.246 A  
HETATM   27  C   UNL     1      -6.372  21.215  69.032  1.00  0.00     0.475 A  
HETATM   28  C   UNL     1      -5.518  18.718  69.925  1.00  0.00    -0.236 A  
HETATM   29  C   UNL     1      -5.218  19.856  70.668  1.00  0.00    -0.256 A  
HETATM   30  C   UNL     1      -5.646  21.104  70.222  1.00  0.00     0.283 A  
ENDBRANCH  24  25
BRANCH  24  31
HETATM   31  C   UNL     1      -6.626  19.795  65.739  1.00  0.00    -0.265 A  
HETATM   32  C   UNL     1      -5.288  19.022  63.388  1.00  0.00    -0.282 A  
HETATM   33  C   UNL     1      -5.162  18.258  64.545  1.00  0.00    -0.021 A  
HETATM   34  C   UNL     1      -6.724  20.566  64.566  1.00  0.00    -0.182 A  
HETATM   35  C   UNL     1      -5.829  18.638  65.711  1.00  0.00    -0.223 A  
HETATM   36  C   UNL     1      -6.067  20.176  63.398  1.00  0.00    -0.125 A  
ENDBRANCH  24  31
ENDBRANCH  21  24
ENDBRANCH  17  18
ENDBRANCH  16  17
ENDBRANCH  15  16
ENDBRANCH  13  15
ENDBRANCH  11  13
BRANCH  12  37
HETATM   37  C   UNL     1     -10.192  11.976  68.540  1.00  0.00    -0.218 A  
HETATM   38  C   UNL     1     -12.159  10.883  67.619  1.00  0.00     0.852 A  
HETATM   39  O   UNL     1     -10.677   9.653  71.946  1.00  0.00    -0.030 OA 
HETATM   40  C   UNL     1     -10.331  11.208  69.714  1.00  0.00     0.220 A  
HETATM   41  O   UNL     1     -12.451   8.675  71.107  1.00  0.00    -0.276 OA 
HETATM   42  C   UNL     1     -11.379  10.285  69.825  1.00  0.00    -0.273 A  
HETATM   43  C   UNL     1     -12.289  10.113  68.776  1.00  0.00     1.236 A  
HETATM   44  N   UNL     1     -11.510   9.479  71.048  1.00  0.00    -0.319 N  
HETATM   45  C   UNL     1     -11.126  11.816  67.506  1.00  0.00    -0.330 A  
ENDBRANCH  12  37
ENDBRANCH   3   5
ENDBRANCH   2   3
TORSDOF 11
ENDMDL
MODEL      269
REMARK 921   NORMALIZED FREE ENERGY PREDICTED BY IDOCK:    9.81 KCAL/MOL
REMARK 922        TOTAL FREE ENERGY PREDICTED BY IDOCK:   14.26 KCAL/MOL
REMARK 923 INTER-LIGAND FREE ENERGY PREDICTED BY IDOCK:    3.92 KCAL/MOL
REMARK 924 INTRA-LIGAND FREE ENERGY PREDICTED BY IDOCK:   10.34 KCAL/MOL
REMARK 927      BINDING AFFINITY PREDICTED BY RF-SCORE:    0.00 PKD
ROOT
HETATM    1  C   UNL     1      -9.289   6.492  70.568  1.00  0.00    -0.162 C  
HETATM    2  O   UNL     1      -8.455   7.639  70.378  1.00  0.00    -0.132 OA 
ENDROOT
BRANCH   2   3
HETATM    3  C   UNL     1      -8.825   8.705  71.132  1.00  0.00    -0.199 C  
HETATM    4  O   UNL     1      -9.877   8.789  71.752  1.00  0.00    -0.270 OA 
BRANCH   3   5
HETATM    5  C   UNL     1      -7.795   9.775  71.068  1.00  0.00     0.464 C  
HETATM    6  C   UNL     1      -6.939   9.993  72.101  1.00  0.00     1.957 C  
HETATM    7  N   UNL     1      -6.022  11.032  72.023  1.00  0.00     0.483 NA 
HETATM    8  C   UNL     1      -6.861   9.223  73.394  1.00  0.00     0.654 C  
HETATM    9  C   UNL     1      -6.029  12.012  71.053  1.00  0.00     0.419 C  
HETATM   10  C   UNL     1      -5.128  13.199  71.302  1.00  0.00    -0.168 C  
HETATM   11  C   UNL     1      -6.836  11.878  69.977  1.00  0.00     0.383 C  
HETATM   12  C   UNL     1      -7.750  10.658  69.812  1.00  0.00    -0.018 C  
BRANCH  11  13
HETATM   13  C   UNL     1      -6.956  12.997  69.020  1.00  0.00    -0.056 C  
HETATM   14  O   UNL     1      -6.944  14.174  69.351  1.00  0.00    -0.120 OA 
BRANCH  13  15
HETATM   15  O   UNL     1      -7.105  12.542  67.749  1.00  0.00    -0.099 OA 
BRANCH  15  16
HETATM   16  C   UNL     1      -5.866  12.512  67.011  1.00  0.00     0.123 C  
BRANCH  16  17
HETATM   17  C   UNL     1      -5.491  11.053  66.704  1.00  0.00    -0.095 C  
BRANCH  17  18
HETATM   18  N   UNL     1      -6.393  10.322  65.798  1.00  0.00    -0.102 NA 
HETATM   19  C   UNL     1      -6.069   7.955  66.709  1.00  0.00    -0.049 C  
HETATM   20  C   UNL     1      -5.933   8.943  65.520  1.00  0.00    -0.051 C  
HETATM   21  N   UNL     1      -7.445   7.850  67.256  1.00  0.00    -0.091 NA 
HETATM   22  C   UNL     1      -7.746  10.255  66.409  1.00  0.00    -0.116 C  
HETATM   23  C   UNL     1      -7.886   9.235  67.572  1.00  0.00    -0.096 C  
BRANCH  21  24
HETATM   24  C   UNL     1      -8.372   7.162  66.305  1.00  0.00    -0.129 C  
BRANCH  24  25
HETATM   25  C   UNL     1      -9.084   8.129  65.343  1.00  0.00     0.051 A  
HETATM   26  C   UNL     1      -9.919   9.138  65.862  1.00  0.00    -0.232 A  
HETATM   27  C   UNL     1      -8.900   8.082  63.951  1.00  0.00     0.661 A  
HETATM   28  C   UNL     1     -10.551  10.056  65.019  1.00  0.00     0.535 A  
HETATM   29  C   UNL     1     -10.374   9.975  63.641  1.00  0.00     1.109 A  
HETATM   30  C   UNL     1      -9.551   8.987  63.107  1.00  0.00     1.560 A  
ENDBRANCH  24  25
BRANCH  24  31
HETATM   31  C   UNL     1      -7.693   5.994  65.573  1.00  0.00    -0.093 A  
HETATM   32  C   UNL     1      -6.716   3.760  64.171  1.00  0.00    -0.044 A  
HETATM   33  C   UNL     1      -6.692   3.774  65.563  1.00  0.00    -0.048 A  
HETATM   34  C   UNL     1      -7.688   5.970  64.166  1.00  0.00    -0.108 A  
HETATM   35  C   UNL     1      -7.181   4.881  66.260  1.00  0.00    -0.077 A  
HETATM   36  C   UNL     1      -7.212   4.857  63.472  1.00  0.00    -0.049 A  
ENDBRANCH  24  31
ENDBRANCH  21  24
ENDBRANCH  17  18
ENDBRANCH  16  17
ENDBRANCH  15  16
ENDBRANCH  13  15
ENDBRANCH  11  13
BRANCH  12  37
HETATM   37  C   UNL     1      -9.147  11.088  69.336  1.00  0.00     0.196 A  
HETATM   38  C   UNL     1     -11.558  11.164  69.640  1.00  0.00    -0.398 A  
HETATM   39  O   UNL     1      -9.610  13.731  66.169  1.00  0.00    -0.274 OA 
HETATM   40  C   UNL     1      -9.269  11.979  68.251  1.00  0.00    -0.192 A  
HETATM   41  O   UNL     1     -11.784  13.791  66.450  1.00  0.00    -0.343 OA 
HETATM   42  C   UNL     1     -10.532  12.455  67.875  1.00  0.00    -0.215 A  
HETATM   43  C   UNL     1     -11.678  12.058  68.574  1.00  0.00    -0.387 A  
HETATM   44  N   UNL     1     -10.649  13.395  66.751  1.00  0.00    -0.276 N  
HETATM   45  C   UNL     1     -10.305  10.674  70.011  1.00  0.00     0.016 A  
ENDBRANCH  12  37
ENDBRANCH   3   5
ENDBRANCH   2   3
TORSDOF 11
ENDMDL
MODEL      270
REMARK 921   NORMALIZED FREE ENERGY PREDICTED BY IDOCK:   10.01 KCAL/MOL
REMARK 922        TOTAL FREE ENERGY PREDICTED BY IDOCK:   14.59 KCAL/MOL
REMARK 923 INTER-LIGAND FREE ENERGY PREDICTED BY IDOCK:   10.20 KCAL/MOL
REMARK 924 INTRA-LIGAND FREE ENERGY PREDICTED BY IDOCK:    4.39 KCAL/MOL
REMARK 927      BINDING AFFINITY PREDICTED BY RF-SCORE:    0.00 PKD
ROOT
HETATM    1  C   UNL     1      -6.127  16.204  68.311  1.00  0.00    -0.109 C  
HETATM    2  O   UNL     1      -5.622  15.478  67.187  1.00  0.00    -0.320 OA 
ENDROOT
BRANCH   2   3
HETATM    3  C   UNL     1      -6.487  14.545  66.716  1.00  0.00     1.847 C  
HETATM    4  O   UNL     1      -7.425  14.778  65.965  1.00  0.00     1.803 OA 
BRANCH   3   5
HETATM    5  C   UNL     1      -6.164  13.204  67.270  1.00  0.00     0.112 C  
HETATM    6  C   UNL     1      -5.674  12.212  66.481  1.00  0.00     0.494 C  
HETATM    7  N   UNL     1      -5.429  10.960  67.027  1.00  0.00    -0.047 NA 
HETATM    8  C   UNL     1      -5.357  12.296  65.010  1.00  0.00     4.444 C  
HETATM    9  C   UNL     1      -5.831  10.560  68.283  1.00  0.00    -0.043 C  
HETATM   10  C   UNL     1      -5.715   9.083  68.579  1.00  0.00    -0.041 C  
HETATM   11  C   UNL     1      -6.320  11.477  69.148  1.00  0.00    -0.078 C  
HETATM   12  C   UNL     1      -6.439  12.955  68.761  1.00  0.00    -0.085 C  
BRANCH  11  13
HETATM   13  C   UNL     1      -6.892  11.024  70.433  1.00  0.00     0.395 C  
HETATM   14  O   UNL     1      -6.584  11.499  71.516  1.00  0.00     1.488 OA 
BRANCH  13  15
HETATM   15  O   UNL     1      -7.772  10.005  70.246  1.00  0.00    -0.172 OA 
BRANCH  15  16
HETATM   16  C   UNL     1      -7.719   9.014  71.294  1.00  0.00    -0.080 C  
BRANCH  16  17
HETATM   17  C   UNL     1      -6.300   8.974  71.885  1.00  0.00    -0.027 C  
BRANCH  17  18
HETATM   18  N   UNL     1      -5.533   7.736  71.663  1.00  0.00    -0.035 NA 
HETATM   19  C   UNL     1      -7.374   6.021  72.116  1.00  0.00    -0.094 C  
HETATM   20  C   UNL     1      -5.997   6.615  72.511  1.00  0.00    -0.042 C  
HETATM   21  N   UNL     1      -7.454   5.560  70.707  1.00  0.00    -0.085 NA 
HETATM   22  C   UNL     1      -5.660   7.335  70.238  1.00  0.00    -0.024 C  
HETATM   23  C   UNL     1      -7.027   6.704  69.858  1.00  0.00    -0.063 C  
BRANCH  21  24
HETATM   24  C   UNL     1      -6.624   4.337  70.473  1.00  0.00    -0.032 C  
BRANCH  24  25
HETATM   25  C   UNL     1      -6.526   3.423  71.706  1.00  0.00    -0.015 A  
HETATM   26  C   UNL     1      -5.259   3.078  72.218  1.00  0.00     0.000 A  
HETATM   27  C   UNL     1      -7.659   2.948  72.387  1.00  0.00    -0.053 A  
HETATM   28  C   UNL     1      -5.134   2.281  73.359  1.00  0.00     0.000 A  
HETATM   29  C   UNL     1      -6.271   1.801  74.003  1.00  0.00    -0.004 A  
HETATM   30  C   UNL     1      -7.532   2.133  73.515  1.00  0.00    -0.041 A  
ENDBRANCH  24  25
BRANCH  24  31
HETATM   31  C   UNL     1      -7.050   3.577  69.208  1.00  0.00    -0.045 A  
HETATM   32  C   UNL     1      -7.875   1.956  67.062  1.00  0.00    -0.066 A  
HETATM   33  C   UNL     1      -6.524   2.237  67.243  1.00  0.00    -0.032 A  
HETATM   34  C   UNL     1      -8.414   3.300  68.995  1.00  0.00    -0.094 A  
HETATM   35  C   UNL     1      -6.113   3.038  68.311  1.00  0.00    -0.025 A  
HETATM   36  C   UNL     1      -8.820   2.488  67.936  1.00  0.00    -0.161 A  
ENDBRANCH  24  31
ENDBRANCH  21  24
ENDBRANCH  17  18
ENDBRANCH  16  17
ENDBRANCH  15  16
ENDBRANCH  13  15
ENDBRANCH  11  13
BRANCH  12  37
HETATM   37  C   UNL     1      -7.790  13.528  69.221  1.00  0.00     0.406 A  
HETATM   38  C   UNL     1      -9.088  15.240  70.360  1.00  0.00     0.939 A  
HETATM   39  O   UNL     1     -11.369  11.936  67.848  1.00  0.00    -0.248 OA 
HETATM   40  C   UNL     1      -8.987  12.958  68.743  1.00  0.00     0.175 A  
HETATM   41  O   UNL     1     -12.531  13.483  68.881  1.00  0.00    -0.117 OA 
HETATM   42  C   UNL     1     -10.219  13.536  69.076  1.00  0.00     0.042 A  
HETATM   43  C   UNL     1     -10.273  14.683  69.876  1.00  0.00     0.172 A  
HETATM   44  N   UNL     1     -11.462  12.942  68.563  1.00  0.00    -0.286 N  
HETATM   45  C   UNL     1      -7.857  14.661  70.045  1.00  0.00     0.443 A  
ENDBRANCH  12  37
ENDBRANCH   3   5
ENDBRANCH   2   3
TORSDOF 11
ENDMDL
MODEL      271
REMARK 921   NORMALIZED FREE ENERGY PREDICTED BY IDOCK:   10.36 KCAL/MOL
REMARK 922        TOTAL FREE ENERGY PREDICTED BY IDOCK:   15.16 KCAL/MOL
REMARK 923 INTER-LIGAND FREE ENERGY PREDICTED BY IDOCK:   -2.00 KCAL/MOL
REMARK 924 INTRA-LIGAND FREE ENERGY PREDICTED BY IDOCK:   17.16 KCAL/MOL
REMARK 927      BINDING AFFINITY PREDICTED BY RF-SCORE:    0.00 PKD
ROOT
HETATM    1  C   UNL     1     -11.184   9.428  71.514  1.00  0.00    -0.386 C  
HETATM    2  O   UNL     1     -11.877   9.133  70.298  1.00  0.00    -0.113 OA 
ENDROOT
BRANCH   2   3
HETATM    3  C   UNL     1     -11.050   8.956  69.237  1.00  0.00     0.092 C  
HETATM    4  O   UNL     1     -11.223   9.445  68.128  1.00  0.00    -0.027 OA 
BRANCH   3   5
HETATM    5  C   UNL     1      -9.926   8.051  69.593  1.00  0.00    -0.188 C  
HETATM    6  C   UNL     1      -9.778   7.573  70.856  1.00  0.00    -0.173 C  
HETATM    7  N   UNL     1      -8.690   6.767  71.160  1.00  0.00    -0.136 NA 
HETATM    8  C   UNL     1     -10.681   7.827  72.035  1.00  0.00    -0.282 C  
HETATM    9  C   UNL     1      -7.610   6.561  70.329  1.00  0.00    -0.096 C  
HETATM   10  C   UNL     1      -6.412   5.883  70.951  1.00  0.00    -0.040 C  
HETATM   11  C   UNL     1      -7.667   6.987  69.047  1.00  0.00    -0.109 C  
HETATM   12  C   UNL     1      -8.908   7.700  68.497  1.00  0.00    -0.130 C  
BRANCH  11  13
HETATM   13  C   UNL     1      -6.456   6.904  68.204  1.00  0.00    -0.050 C  
HETATM   14  O   UNL     1      -6.068   7.814  67.486  1.00  0.00    -0.046 OA 
BRANCH  13  15
HETATM   15  O   UNL     1      -5.863   5.686  68.316  1.00  0.00    -0.015 OA 
BRANCH  15  16
HETATM   16  C   UNL     1      -6.377   4.719  67.378  1.00  0.00    -0.040 C  
BRANCH  16  17
HETATM   17  C   UNL     1      -7.537   3.947  68.028  1.00  0.00    -0.066 C  
BRANCH  17  18
HETATM   18  N   UNL     1      -7.758   4.184  69.465  1.00  0.00    -0.053 NA 
HETATM   19  C   UNL     1      -9.551   2.416  69.907  1.00  0.00     0.020 C  
HETATM   20  C   UNL     1      -9.152   3.915  69.884  1.00  0.00    -0.122 C  
HETATM   21  N   UNL     1      -8.674   1.568  70.754  1.00  0.00    -0.051 NA 
HETATM   22  C   UNL     1      -6.851   3.304  70.247  1.00  0.00    -0.034 C  
HETATM   23  C   UNL     1      -7.279   1.811  70.301  1.00  0.00    -0.033 C  
BRANCH  21  24
HETATM   24  C   UNL     1      -8.858   1.857  72.210  1.00  0.00    -0.068 C  
BRANCH  24  25
HETATM   25  C   UNL     1      -7.578   2.367  72.894  1.00  0.00    -0.045 A  
HETATM   26  C   UNL     1      -6.437   1.541  72.942  1.00  0.00    -0.010 A  
HETATM   27  C   UNL     1      -7.476   3.656  73.442  1.00  0.00    -0.061 A  
HETATM   28  C   UNL     1      -5.246   1.987  73.522  1.00  0.00     0.000 A  
HETATM   29  C   UNL     1      -5.176   3.260  74.080  1.00  0.00     0.000 A  
HETATM   30  C   UNL     1      -6.291   4.093  74.042  1.00  0.00    -0.041 A  
ENDBRANCH  24  25
BRANCH  24  31
HETATM   31  C   UNL     1     -10.070   2.762  72.476  1.00  0.00    -0.235 A  
HETATM   32  C   UNL     1     -12.418   4.289  72.740  1.00  0.00     1.116 A  
HETATM   33  C   UNL     1     -11.280   4.854  72.171  1.00  0.00     0.089 A  
HETATM   34  C   UNL     1     -11.223   2.215  73.068  1.00  0.00    -0.129 A  
HETATM   35  C   UNL     1     -10.115   4.095  72.035  1.00  0.00    -0.234 A  
HETATM   36  C   UNL     1     -12.390   2.971  73.189  1.00  0.00     0.745 A  
ENDBRANCH  24  31
ENDBRANCH  21  24
ENDBRANCH  17  18
ENDBRANCH  16  17
ENDBRANCH  15  16
ENDBRANCH  13  15
ENDBRANCH  11  13
BRANCH  12  37
HETATM   37  C   UNL     1      -8.503   8.916  67.648  1.00  0.00    -0.121 A  
HETATM   38  C   UNL     1      -8.667  10.223  65.605  1.00  0.00    -0.176 A  
HETATM   39  O   UNL     1      -6.284  12.021  69.281  1.00  0.00    -0.078 OA 
HETATM   40  C   UNL     1      -7.741   9.949  68.231  1.00  0.00    -0.085 A  
HETATM   41  O   UNL     1      -6.437  13.191  67.432  1.00  0.00    -0.180 OA 
HETATM   42  C   UNL     1      -7.454  11.106  67.496  1.00  0.00    -0.104 A  
HETATM   43  C   UNL     1      -7.924  11.251  66.187  1.00  0.00    -0.038 A  
HETATM   44  N   UNL     1      -6.669  12.184  68.116  1.00  0.00    -0.064 N  
HETATM   45  C   UNL     1      -8.945   9.059  66.325  1.00  0.00    -0.199 A  
ENDBRANCH  12  37
ENDBRANCH   3   5
ENDBRANCH   2   3
TORSDOF 11
ENDMDL
MODEL      272
REMARK 921   NORMALIZED FREE ENERGY PREDICTED BY IDOCK:   10.72 KCAL/MOL
REMARK 922        TOTAL FREE ENERGY PREDICTED BY IDOCK:   15.76 KCAL/MOL
REMARK 923 INTER-LIGAND FREE ENERGY PREDICTED BY IDOCK:   -4.60 KCAL/MOL
REMARK 924 INTRA-LIGAND FREE ENERGY PREDICTED BY IDOCK:   20.36 KCAL/MOL
REMARK 927      BINDING AFFINITY PREDICTED BY RF-SCORE:    0.00 PKD
ROOT
HETATM    1  C   UNL     1     -10.511  13.989  65.051  1.00  0.00    -0.420 C  
HETATM    2  O   UNL     1     -11.305  14.603  66.070  1.00  0.00    -0.339 OA 
ENDROOT
BRANCH   2   3
HETATM    3  C   UNL     1     -12.415  13.891  66.389  1.00  0.00    -0.370 C  
HETATM    4  O   UNL     1     -13.504  14.015  65.844  1.00  0.00    -0.296 OA 
BRANCH   3   5
HETATM    5  C   UNL     1     -12.139  12.968  67.521  1.00  0.00    -0.279 C  
HETATM    6  C   UNL     1     -11.845  13.440  68.761  1.00  0.00    -0.351 C  
HETATM    7  N   UNL     1     -11.548  12.547  69.781  1.00  0.00    -0.258 NA 
HETATM    8  C   UNL     1     -11.783  14.883  69.192  1.00  0.00    -0.338 C  
HETATM    9  C   UNL     1     -11.325  11.199  69.602  1.00  0.00    -0.294 C  
HETATM   10  C   UNL     1     -10.745  10.459  70.785  1.00  0.00     0.165 C  
HETATM   11  C   UNL     1     -11.602  10.632  68.407  1.00  0.00    -0.269 C  
HETATM   12  C   UNL     1     -12.157  11.458  67.241  1.00  0.00     0.587 C  
BRANCH  11  13
HETATM   13  C   UNL     1     -11.219   9.224  68.169  1.00  0.00     0.280 C  
HETATM   14  O   UNL     1     -11.113   8.731  67.056  1.00  0.00     0.072 OA 
BRANCH  13  15
HETATM   15  O   UNL     1     -11.033   8.562  69.341  1.00  0.00    -0.147 OA 
BRANCH  15  16
HETATM   16  C   UNL     1      -9.803   8.922  70.004  1.00  0.00    -0.174 C  
BRANCH  16  17
HETATM   17  C   UNL     1      -8.620   8.268  69.272  1.00  0.00    -0.138 C  
BRANCH  17  18
HETATM   18  N   UNL     1      -7.954   9.084  68.243  1.00  0.00    -0.104 NA 
HETATM   19  C   UNL     1      -7.575  11.223  69.590  1.00  0.00     0.258 C  
HETATM   20  C   UNL     1      -8.248  10.529  68.377  1.00  0.00    -0.121 C  
HETATM   21  N   UNL     1      -6.098  11.077  69.630  1.00  0.00    -0.071 NA 
HETATM   22  C   UNL     1      -6.485   8.889  68.344  1.00  0.00    -0.055 C  
HETATM   23  C   UNL     1      -5.811   9.621  69.537  1.00  0.00    -0.033 C  
BRANCH  21  24
HETATM   24  C   UNL     1      -5.431  11.859  68.544  1.00  0.00    -0.052 C  
BRANCH  24  25
HETATM   25  C   UNL     1      -5.305  11.079  67.223  1.00  0.00    -0.047 A  
HETATM   26  C   UNL     1      -5.242   9.672  67.248  1.00  0.00    -0.035 A  
HETATM   27  C   UNL     1      -5.297  11.713  65.970  1.00  0.00     0.315 A  
HETATM   28  C   UNL     1      -5.165   8.931  66.066  1.00  0.00    -0.033 A  
HETATM   29  C   UNL     1      -5.135   9.582  64.835  1.00  0.00    -0.044 A  
HETATM   30  C   UNL     1      -5.199  10.972  64.788  1.00  0.00     0.110 A  
ENDBRANCH  24  25
BRANCH  24  31
HETATM   31  C   UNL     1      -6.062  13.246  68.352  1.00  0.00    -0.086 A  
HETATM   32  C   UNL     1      -7.370  15.734  68.242  1.00  0.00    -0.121 A  
HETATM   33  C   UNL     1      -7.761  14.703  67.391  1.00  0.00    -0.226 A  
HETATM   34  C   UNL     1      -5.667  14.306  69.189  1.00  0.00    -0.092 A  
HETATM   35  C   UNL     1      -7.115  13.467  67.448  1.00  0.00    -0.108 A  
HETATM   36  C   UNL     1      -6.324  15.537  69.140  1.00  0.00    -0.120 A  
ENDBRANCH  24  31
ENDBRANCH  21  24
ENDBRANCH  17  18
ENDBRANCH  16  17
ENDBRANCH  15  16
ENDBRANCH  13  15
ENDBRANCH  11  13
BRANCH  12  37
HETATM   37  C   UNL     1     -11.448  11.087  65.928  1.00  0.00     0.412 A  
HETATM   38  C   UNL     1     -11.045  11.460  63.559  1.00  0.00    -0.373 A  
HETATM   39  O   UNL     1      -8.312   8.368  65.883  1.00  0.00    -0.118 OA 
HETATM   40  C   UNL     1     -10.393  10.153  65.946  1.00  0.00    -0.221 A  
HETATM   41  O   UNL     1      -7.958   8.710  63.746  1.00  0.00    -0.144 OA 
HETATM   42  C   UNL     1      -9.675   9.885  64.774  1.00  0.00    -0.235 A  
HETATM   43  C   UNL     1      -9.991  10.544  63.581  1.00  0.00    -0.299 A  
HETATM   44  N   UNL     1      -8.568   8.918  64.805  1.00  0.00    -0.176 N  
HETATM   45  C   UNL     1     -11.775  11.722  64.720  1.00  0.00    -0.212 A  
ENDBRANCH  12  37
ENDBRANCH   3   5
ENDBRANCH   2   3
TORSDOF 11
ENDMDL
MODEL      273
REMARK 921   NORMALIZED FREE ENERGY PREDICTED BY IDOCK:   10.94 KCAL/MOL
REMARK 922        TOTAL FREE ENERGY PREDICTED BY IDOCK:   16.11 KCAL/MOL
REMARK 923 INTER-LIGAND FREE ENERGY PREDICTED BY IDOCK:    4.18 KCAL/MOL
REMARK 924 INTRA-LIGAND FREE ENERGY PREDICTED BY IDOCK:   11.93 KCAL/MOL
REMARK 927      BINDING AFFINITY PREDICTED BY RF-SCORE:    0.00 PKD
ROOT
HETATM    1  C   UNL     1     -11.610  17.865  66.663  1.00  0.00     1.825 C  
HETATM    2  O   UNL     1     -11.013  17.872  65.363  1.00  0.00    -0.447 OA 
ENDROOT
BRANCH   2   3
HETATM    3  C   UNL     1      -9.766  18.409  65.347  1.00  0.00     1.111 C  
HETATM    4  O   UNL     1      -9.327  19.127  64.458  1.00  0.00     3.573 OA 
BRANCH   3   5
HETATM    5  C   UNL     1      -8.991  17.971  66.537  1.00  0.00    -0.280 C  
HETATM    6  C   UNL     1      -7.691  18.331  66.705  1.00  0.00    -0.236 C  
HETATM    7  N   UNL     1      -6.988  17.864  67.806  1.00  0.00    -0.196 NA 
HETATM    8  C   UNL     1      -6.867  19.208  65.796  1.00  0.00    -0.307 C  
HETATM    9  C   UNL     1      -7.437  16.884  68.665  1.00  0.00    -0.226 C  
HETATM   10  C   UNL     1      -6.415  16.324  69.626  1.00  0.00    -0.190 C  
HETATM   11  C   UNL     1      -8.721  16.468  68.586  1.00  0.00    -0.244 C  
HETATM   12  C   UNL     1      -9.691  17.061  67.558  1.00  0.00    -0.251 C  
BRANCH  11  13
HETATM   13  C   UNL     1      -9.157  15.314  69.400  1.00  0.00    -0.228 C  
HETATM   14  O   UNL     1     -10.201  15.290  70.035  1.00  0.00    -0.269 OA 
BRANCH  13  15
HETATM   15  O   UNL     1      -8.237  14.314  69.365  1.00  0.00     0.101 OA 
BRANCH  15  16
HETATM   16  C   UNL     1      -8.796  13.048  68.956  1.00  0.00     0.505 C  
BRANCH  16  17
HETATM   17  C   UNL     1      -7.872  12.398  67.913  1.00  0.00    -0.145 C  
BRANCH  17  18
HETATM   18  N   UNL     1      -8.191  11.012  67.529  1.00  0.00    -0.116 NA 
HETATM   19  C   UNL     1      -6.014  10.400  66.336  1.00  0.00    -0.075 C  
HETATM   20  C   UNL     1      -7.550  10.606  66.258  1.00  0.00    -0.137 C  
HETATM   21  N   UNL     1      -5.586   9.422  67.369  1.00  0.00    -0.041 NA 
HETATM   22  C   UNL     1      -7.734  10.093  68.604  1.00  0.00    -0.092 C  
HETATM   23  C   UNL     1      -6.199   9.859  68.651  1.00  0.00    -0.041 C  
BRANCH  21  24
HETATM   24  C   UNL     1      -5.967   8.023  67.003  1.00  0.00    -0.052 C  
BRANCH  24  25
HETATM   25  C   UNL     1      -6.984   7.396  67.974  1.00  0.00    -0.075 A  
HETATM   26  C   UNL     1      -6.526   6.738  69.133  1.00  0.00    -0.036 A  
HETATM   27  C   UNL     1      -8.371   7.493  67.780  1.00  0.00    -0.119 A  
HETATM   28  C   UNL     1      -7.423   6.192  70.054  1.00  0.00    -0.087 A  
HETATM   29  C   UNL     1      -8.794   6.278  69.829  1.00  0.00    -0.140 A  
HETATM   30  C   UNL     1      -9.267   6.926  68.692  1.00  0.00    -0.130 A  
ENDBRANCH  24  25
BRANCH  24  31
HETATM   31  C   UNL     1      -6.402   7.902  65.535  1.00  0.00    -0.041 A  
HETATM   32  C   UNL     1      -7.094   7.949  62.809  1.00  0.00    -0.087 A  
HETATM   33  C   UNL     1      -8.077   8.116  63.780  1.00  0.00    -0.112 A  
HETATM   34  C   UNL     1      -5.425   7.713  64.539  1.00  0.00    -0.033 A  
HETATM   35  C   UNL     1      -7.734   8.098  65.133  1.00  0.00    -0.107 A  
HETATM   36  C   UNL     1      -5.769   7.746  63.187  1.00  0.00    -0.055 A  
ENDBRANCH  24  31
ENDBRANCH  21  24
ENDBRANCH  17  18
ENDBRANCH  16  17
ENDBRANCH  15  16
ENDBRANCH  13  15
ENDBRANCH  11  13
BRANCH  12  37
HETATM   37  C   UNL     1     -10.524  15.952  66.896  1.00  0.00    -0.309 A  
HETATM   38  C   UNL     1     -12.650  14.830  66.531  1.00  0.00     0.428 A  
HETATM   39  O   UNL     1      -8.927  13.588  63.881  1.00  0.00     2.757 OA 
HETATM   40  C   UNL     1      -9.948  15.161  65.881  1.00  0.00    -0.355 A  
HETATM   41  O   UNL     1     -10.848  12.580  63.562  1.00  0.00    -0.440 OA 
HETATM   42  C   UNL     1     -10.729  14.217  65.203  1.00  0.00    -0.388 A  
HETATM   43  C   UNL     1     -12.083  14.056  65.517  1.00  0.00    -0.423 A  
HETATM   44  N   UNL     1     -10.123  13.404  64.137  1.00  0.00    -0.044 N  
HETATM   45  C   UNL     1     -11.874  15.763  67.223  1.00  0.00     0.440 A  
ENDBRANCH  12  37
ENDBRANCH   3   5
ENDBRANCH   2   3
TORSDOF 11
ENDMDL
MODEL      274
REMARK 921   NORMALIZED FREE ENERGY PREDICTED BY IDOCK:   11.10 KCAL/MOL
REMARK 922        TOTAL FREE ENERGY PREDICTED BY IDOCK:   16.38 KCAL/MOL
REMARK 923 INTER-LIGAND FREE ENERGY PREDICTED BY IDOCK:   -1.28 KCAL/MOL
REMARK 924 INTRA-LIGAND FREE ENERGY PREDICTED BY IDOCK:   17.66 KCAL/MOL
REMARK 927      BINDING AFFINITY PREDICTED BY RF-SCORE:    0.00 PKD
ROOT
HETATM    1  C   UNL     1      -9.535  13.528  65.605  1.00  0.00     0.127 C  
HETATM    2  O   UNL     1      -8.413  13.967  66.376  1.00  0.00     0.178 OA 
ENDROOT
BRANCH   2   3
HETATM    3  C   UNL     1      -8.736  14.312  67.649  1.00  0.00    -0.191 C  
HETATM    4  O   UNL     1      -8.794  15.460  68.067  1.00  0.00    -0.163 OA 
BRANCH   3   5
HETATM    5  C   UNL     1      -8.970  13.100  68.477  1.00  0.00    -0.048 C  
HETATM    6  C   UNL     1      -7.959  12.514  69.172  1.00  0.00     0.433 C  
HETATM    7  N   UNL     1      -8.207  11.357  69.897  1.00  0.00     0.995 NA 
HETATM    8  C   UNL     1      -6.526  12.974  69.251  1.00  0.00    -0.103 C  
HETATM    9  C   UNL     1      -9.367  10.616  69.819  1.00  0.00     0.263 C  
HETATM   10  C   UNL     1      -9.329   9.253  70.469  1.00  0.00    -0.316 C  
HETATM   11  C   UNL     1     -10.435  11.120  69.161  1.00  0.00    -0.211 C  
HETATM   12  C   UNL     1     -10.384  12.501  68.496  1.00  0.00    -0.233 C  
BRANCH  11  13
HETATM   13  C   UNL     1     -11.620  10.265  68.947  1.00  0.00    -0.065 C  
HETATM   14  O   UNL     1     -12.652  10.364  69.595  1.00  0.00    -0.103 OA 
BRANCH  13  15
HETATM   15  O   UNL     1     -11.396   9.352  67.965  1.00  0.00     0.077 OA 
BRANCH  15  16
HETATM   16  C   UNL     1      -9.996   9.063  67.773  1.00  0.00    -0.187 C  
BRANCH  16  17
HETATM   17  C   UNL     1      -9.608   7.839  68.619  1.00  0.00    -0.154 C  
BRANCH  17  18
HETATM   18  N   UNL     1      -9.301   6.602  67.880  1.00  0.00    -0.111 NA 
HETATM   19  C   UNL     1      -6.827   7.017  67.386  1.00  0.00    -0.073 C  
HETATM   20  C   UNL     1      -8.263   6.797  66.843  1.00  0.00    -0.113 C  
HETATM   21  N   UNL     1      -6.346   5.936  68.283  1.00  0.00    -0.042 NA 
HETATM   22  C   UNL     1      -8.826   5.570  68.837  1.00  0.00    -0.107 C  
HETATM   23  C   UNL     1      -7.373   5.774  69.346  1.00  0.00    -0.071 C  
BRANCH  21  24
HETATM   24  C   UNL     1      -6.095   4.664  67.537  1.00  0.00    -0.027 C  
BRANCH  24  25
HETATM   25  C   UNL     1      -7.086   3.543  67.895  1.00  0.00    -0.051 A  
HETATM   26  C   UNL     1      -6.847   2.736  69.025  1.00  0.00    -0.037 A  
HETATM   27  C   UNL     1      -8.262   3.313  67.163  1.00  0.00    -0.083 A  
HETATM   28  C   UNL     1      -7.746   1.735  69.401  1.00  0.00    -0.045 A  
HETATM   29  C   UNL     1      -8.893   1.508  68.647  1.00  0.00    -0.120 A  
HETATM   30  C   UNL     1      -9.150   2.295  67.527  1.00  0.00    -0.196 A  
ENDBRANCH  24  25
BRANCH  24  31
HETATM   31  C   UNL     1      -5.982   4.890  66.022  1.00  0.00    -0.023 A  
HETATM   32  C   UNL     1      -5.536   5.142  63.256  1.00  0.00    -0.013 A  
HETATM   33  C   UNL     1      -5.234   6.200  64.109  1.00  0.00    -0.017 A  
HETATM   34  C   UNL     1      -6.301   3.840  65.141  1.00  0.00    -0.028 A  
HETATM   35  C   UNL     1      -5.450   6.074  65.483  1.00  0.00    -0.013 A  
HETATM   36  C   UNL     1      -6.070   3.963  63.770  1.00  0.00    -0.014 A  
ENDBRANCH  24  31
ENDBRANCH  21  24
ENDBRANCH  17  18
ENDBRANCH  16  17
ENDBRANCH  15  16
ENDBRANCH  13  15
ENDBRANCH  11  13
BRANCH  12  37
HETATM   37  C   UNL     1     -11.030  12.454  67.101  1.00  0.00    -0.304 A  
HETATM   38  C   UNL     1     -12.063  11.210  65.286  1.00  0.00     1.508 A  
HETATM   39  O   UNL     1     -12.060  15.943  65.102  1.00  0.00     0.427 OA 
HETATM   40  C   UNL     1     -11.358  13.658  66.446  1.00  0.00    -0.331 A  
HETATM   41  O   UNL     1     -12.988  14.812  63.468  1.00  0.00    -0.252 OA 
HETATM   42  C   UNL     1     -12.037  13.624  65.221  1.00  0.00    -0.406 A  
HETATM   43  C   UNL     1     -12.401  12.403  64.643  1.00  0.00    -0.518 A  
HETATM   44  N   UNL     1     -12.388  14.885  64.550  1.00  0.00    -0.398 N  
HETATM   45  C   UNL     1     -11.373  11.235  66.499  1.00  0.00    -0.122 A  
ENDBRANCH  12  37
ENDBRANCH   3   5
ENDBRANCH   2   3
TORSDOF 11
ENDMDL
MODEL      275
REMARK 921   NORMALIZED FREE ENERGY PREDICTED BY IDOCK:   11.93 KCAL/MOL
REMARK 922        TOTAL FREE ENERGY PREDICTED BY IDOCK:   17.75 KCAL/MOL
REMARK 923 INTER-LIGAND FREE ENERGY PREDICTED BY IDOCK:   -0.75 KCAL/MOL
REMARK 924 INTRA-LIGAND FREE ENERGY PREDICTED BY IDOCK:   18.50 KCAL/MOL
REMARK 927      BINDING AFFINITY PREDICTED BY RF-SCORE:    0.00 PKD
ROOT
HETATM    1  C   UNL     1      -9.052   7.664  69.577  1.00  0.00    -0.146 C  
HETATM    2  O   UNL     1      -7.821   7.336  68.926  1.00  0.00    -0.113 OA 
ENDROOT
BRANCH   2   3
HETATM    3  C   UNL     1      -7.904   7.369  67.571  1.00  0.00    -0.112 C  
HETATM    4  O   UNL     1      -8.306   6.447  66.874  1.00  0.00    -0.109 OA 
BRANCH   3   5
HETATM    5  C   UNL     1      -7.398   8.665  67.046  1.00  0.00    -0.080 C  
HETATM    6  C   UNL     1      -6.925   8.776  65.777  1.00  0.00    -0.076 C  
HETATM    7  N   UNL     1      -6.418   9.991  65.339  1.00  0.00    -0.098 NA 
HETATM    8  C   UNL     1      -6.864   7.691  64.732  1.00  0.00    -0.051 C  
HETATM    9  C   UNL     1      -6.162  11.073  66.153  1.00  0.00    -0.104 C  
HETATM   10  C   UNL     1      -5.357  12.193  65.536  1.00  0.00     2.629 C  
HETATM   11  C   UNL     1      -6.605  11.064  67.430  1.00  0.00    -0.069 C  
HETATM   12  C   UNL     1      -7.387   9.872  67.996  1.00  0.00    -0.084 C  
BRANCH  11  13
HETATM   13  C   UNL     1      -6.198  12.152  68.344  1.00  0.00    -0.052 C  
HETATM   14  O   UNL     1      -5.710  13.206  67.964  1.00  0.00    -0.091 OA 
BRANCH  13  15
HETATM   15  O   UNL     1      -6.414  11.810  69.641  1.00  0.00    -0.120 OA 
BRANCH  15  16
HETATM   16  C   UNL     1      -5.984  12.826  70.571  1.00  0.00    -0.063 C  
BRANCH  16  17
HETATM   17  C   UNL     1      -6.727  14.138  70.271  1.00  0.00     0.084 C  
BRANCH  17  18
HETATM   18  N   UNL     1      -7.696  14.103  69.162  1.00  0.00    -0.040 NA 
HETATM   19  C   UNL     1      -9.612  15.406  70.243  1.00  0.00     0.383 C  
HETATM   20  C   UNL     1      -9.101  14.077  69.628  1.00  0.00     1.028 C  
HETATM   21  N   UNL     1      -9.475  16.581  69.345  1.00  0.00    -0.141 NA 
HETATM   22  C   UNL     1      -7.503  15.305  68.310  1.00  0.00    -0.112 C  
HETATM   23  C   UNL     1      -8.053  16.626  68.914  1.00  0.00    -0.235 C  
BRANCH  21  24
HETATM   24  C   UNL     1     -10.419  16.510  68.186  1.00  0.00    -0.313 C  
BRANCH  24  25
HETATM   25  C   UNL     1     -10.468  17.808  67.362  1.00  0.00    -0.367 A  
HETATM   26  C   UNL     1     -10.196  19.041  67.988  1.00  0.00    -0.476 A  
HETATM   27  C   UNL     1     -10.728  17.817  65.982  1.00  0.00    -0.119 A  
HETATM   28  C   UNL     1     -10.195  20.235  67.261  1.00  0.00    -0.495 A  
HETATM   29  C   UNL     1     -10.480  20.222  65.898  1.00  0.00    -0.305 A  
HETATM   30  C   UNL     1     -10.748  19.015  65.260  1.00  0.00     0.402 A  
ENDBRANCH  24  25
BRANCH  24  31
HETATM   31  C   UNL     1     -10.179  15.267  67.316  1.00  0.00    -0.248 A  
HETATM   32  C   UNL     1      -9.634  12.864  65.959  1.00  0.00    -0.172 A  
HETATM   33  C   UNL     1      -8.802  13.966  65.785  1.00  0.00     0.928 A  
HETATM   34  C   UNL     1     -11.021  14.149  67.463  1.00  0.00    -0.292 A  
HETATM   35  C   UNL     1      -9.069  15.158  66.461  1.00  0.00    -0.328 A  
HETATM   36  C   UNL     1     -10.743  12.954  66.796  1.00  0.00    -0.276 A  
ENDBRANCH  24  31
ENDBRANCH  21  24
ENDBRANCH  17  18
ENDBRANCH  16  17
ENDBRANCH  15  16
ENDBRANCH  13  15
ENDBRANCH  11  13
BRANCH  12  37
HETATM   37  C   UNL     1      -6.888   9.517  69.406  1.00  0.00    -0.049 A  
HETATM   38  C   UNL     1      -5.133   9.490  71.088  1.00  0.00    -0.042 A  
HETATM   39  O   UNL     1      -9.519   8.212  72.340  1.00  0.00    -0.198 OA 
HETATM   40  C   UNL     1      -7.807   9.067  70.376  1.00  0.00    -0.121 A  
HETATM   41  O   UNL     1      -7.928   8.190  73.850  1.00  0.00    -0.189 OA 
HETATM   42  C   UNL     1      -7.379   8.838  71.690  1.00  0.00    -0.069 A  
HETATM   43  C   UNL     1      -6.046   9.058  72.053  1.00  0.00    -0.051 A  
HETATM   44  N   UNL     1      -8.346   8.382  72.699  1.00  0.00    -0.166 N  
HETATM   45  C   UNL     1      -5.548   9.707  69.773  1.00  0.00    -0.033 A  
ENDBRANCH  12  37
ENDBRANCH   3   5
ENDBRANCH   2   3
TORSDOF 11
ENDMDL
MODEL      276
REMARK 921   NORMALIZED FREE ENERGY PREDICTED BY IDOCK:   12.15 KCAL/MOL
REMARK 922        TOTAL FREE ENERGY PREDICTED BY IDOCK:   18.10 KCAL/MOL
REMARK 923 INTER-LIGAND FREE ENERGY PREDICTED BY IDOCK:    9.82 KCAL/MOL
REMARK 924 INTRA-LIGAND FREE ENERGY PREDICTED BY IDOCK:    8.28 KCAL/MOL
REMARK 927      BINDING AFFINITY PREDICTED BY RF-SCORE:    0.00 PKD
ROOT
HETATM    1  C   UNL     1     -12.372  16.968  68.086  1.00  0.00     2.341 C  
HETATM    2  O   UNL     1     -11.526  16.100  68.845  1.00  0.00    -0.352 OA 
ENDROOT
BRANCH   2   3
HETATM    3  C   UNL     1     -10.390  15.749  68.191  1.00  0.00    -0.242 C  
HETATM    4  O   UNL     1     -10.319  15.515  66.992  1.00  0.00    -0.267 OA 
BRANCH   3   5
HETATM    5  C   UNL     1      -9.249  15.648  69.139  1.00  0.00    -0.254 C  
HETATM    6  C   UNL     1      -8.792  16.736  69.813  1.00  0.00     0.898 C  
HETATM    7  N   UNL     1      -7.696  16.610  70.654  1.00  0.00     2.936 NA 
HETATM    8  C   UNL     1      -9.342  18.138  69.753  1.00  0.00     0.989 C  
HETATM    9  C   UNL     1      -6.883  15.499  70.721  1.00  0.00     0.885 C  
HETATM   10  C   UNL     1      -5.591  15.666  71.487  1.00  0.00     0.341 C  
HETATM   11  C   UNL     1      -7.259  14.361  70.095  1.00  0.00     0.278 C  
HETATM   12  C   UNL     1      -8.571  14.280  69.307  1.00  0.00     0.264 C  
BRANCH  11  13
HETATM   13  C   UNL     1      -6.317  13.223  70.039  1.00  0.00    -0.016 C  
HETATM   14  O   UNL     1      -5.127  13.317  70.301  1.00  0.00    -0.085 OA 
BRANCH  13  15
HETATM   15  O   UNL     1      -6.944  12.087  69.636  1.00  0.00     0.001 OA 
BRANCH  15  16
HETATM   16  C   UNL     1      -7.023  11.087  70.673  1.00  0.00     1.078 C  
BRANCH  16  17
HETATM   17  C   UNL     1      -7.853   9.895  70.170  1.00  0.00    -0.171 C  
BRANCH  17  18
HETATM   18  N   UNL     1      -7.180   8.976  69.236  1.00  0.00    -0.064 NA 
HETATM   19  C   UNL     1      -8.895   7.081  69.209  1.00  0.00    -0.139 C  
HETATM   20  C   UNL     1      -7.454   7.553  69.534  1.00  0.00    -0.093 C  
HETATM   21  N   UNL     1      -9.307   7.316  67.802  1.00  0.00    -0.128 NA 
HETATM   22  C   UNL     1      -7.640   9.267  67.853  1.00  0.00    -0.084 C  
HETATM   23  C   UNL     1      -9.069   8.756  67.521  1.00  0.00    -0.133 C  
BRANCH  21  24
HETATM   24  C   UNL     1      -8.575   6.423  66.851  1.00  0.00    -0.110 C  
BRANCH  24  25
HETATM   25  C   UNL     1      -9.485   5.388  66.166  1.00  0.00    -0.171 A  
HETATM   26  C   UNL     1      -8.957   4.136  65.793  1.00  0.00    -0.129 A  
HETATM   27  C   UNL     1     -10.851   5.618  65.935  1.00  0.00     0.343 A  
HETATM   28  C   UNL     1      -9.764   3.159  65.204  1.00  0.00    -0.018 A  
HETATM   29  C   UNL     1     -11.110   3.418  64.962  1.00  0.00     1.252 A  
HETATM   30  C   UNL     1     -11.652   4.648  65.325  1.00  0.00     1.086 A  
ENDBRANCH  24  25
BRANCH  24  31
HETATM   31  C   UNL     1      -7.723   7.215  65.847  1.00  0.00    -0.101 A  
HETATM   32  C   UNL     1      -6.122   8.415  63.870  1.00  0.00    -0.071 A  
HETATM   33  C   UNL     1      -5.595   8.161  65.134  1.00  0.00    -0.044 A  
HETATM   34  C   UNL     1      -8.244   7.498  64.571  1.00  0.00    -0.036 A  
HETATM   35  C   UNL     1      -6.388   7.562  66.114  1.00  0.00    -0.042 A  
HETATM   36  C   UNL     1      -7.445   8.085  63.588  1.00  0.00    -0.118 A  
ENDBRANCH  24  31
ENDBRANCH  21  24
ENDBRANCH  17  18
ENDBRANCH  16  17
ENDBRANCH  15  16
ENDBRANCH  13  15
ENDBRANCH  11  13
BRANCH  12  37
HETATM   37  C   UNL     1      -8.355  13.554  67.969  1.00  0.00    -0.168 A  
HETATM   38  C   UNL     1      -7.078  12.034  66.565  1.00  0.00     0.285 A  
HETATM   39  O   UNL     1     -11.275  13.593  65.018  1.00  0.00    -0.303 OA 
HETATM   40  C   UNL     1      -9.363  13.595  66.984  1.00  0.00    -0.249 A  
HETATM   41  O   UNL     1     -10.114  12.223  63.758  1.00  0.00    -0.385 OA 
HETATM   42  C   UNL     1      -9.219  12.854  65.804  1.00  0.00     0.239 A  
HETATM   43  C   UNL     1      -8.083  12.064  65.595  1.00  0.00     1.018 A  
HETATM   44  N   UNL     1     -10.280  12.892  64.788  1.00  0.00    -0.306 N  
HETATM   45  C   UNL     1      -7.208  12.781  67.737  1.00  0.00    -0.132 A  
ENDBRANCH  12  37
ENDBRANCH   3   5
ENDBRANCH   2   3
TORSDOF 11
ENDMDL
MODEL      277
REMARK 921   NORMALIZED FREE ENERGY PREDICTED BY IDOCK:   13.02 KCAL/MOL
REMARK 922        TOTAL FREE ENERGY PREDICTED BY IDOCK:   19.52 KCAL/MOL
REMARK 923 INTER-LIGAND FREE ENERGY PREDICTED BY IDOCK:    0.65 KCAL/MOL
REMARK 924 INTRA-LIGAND FREE ENERGY PREDICTED BY IDOCK:   18.87 KCAL/MOL
REMARK 927      BINDING AFFINITY PREDICTED BY RF-SCORE:    0.00 PKD
ROOT
HETATM    1  C   UNL     1      -6.162  13.028  68.031  1.00  0.00    -0.112 C  
HETATM    2  O   UNL     1      -7.077  13.596  68.972  1.00  0.00    -0.110 OA 
ENDROOT
BRANCH   2   3
HETATM    3  C   UNL     1      -8.371  13.544  68.564  1.00  0.00    -0.097 C  
HETATM    4  O   UNL     1      -9.111  14.515  68.467  1.00  0.00    -0.182 OA 
BRANCH   3   5
HETATM    5  C   UNL     1      -8.779  12.141  68.290  1.00  0.00    -0.178 C  
HETATM    6  C   UNL     1      -8.164  11.402  67.330  1.00  0.00    -0.145 C  
HETATM    7  N   UNL     1      -8.605  10.112  67.073  1.00  0.00    -0.129 NA 
HETATM    8  C   UNL     1      -7.014  11.827  66.453  1.00  0.00     0.224 C  
HETATM    9  C   UNL     1      -9.765   9.564  67.577  1.00  0.00    -0.155 C  
HETATM   10  C   UNL     1     -10.205   8.257  66.960  1.00  0.00    -0.380 C  
HETATM   11  C   UNL     1     -10.441  10.218  68.548  1.00  0.00    -0.217 C  
HETATM   12  C   UNL     1      -9.948  11.560  69.100  1.00  0.00     0.050 C  
BRANCH  11  13
HETATM   13  C   UNL     1     -11.760   9.708  68.977  1.00  0.00     0.488 C  
HETATM   14  O   UNL     1     -12.734  10.424  69.165  1.00  0.00     0.041 OA 
BRANCH  13  15
HETATM   15  O   UNL     1     -11.732   8.361  69.156  1.00  0.00     0.789 OA 
BRANCH  15  16
HETATM   16  C   UNL     1     -11.164   7.655  68.033  1.00  0.00     0.466 C  
BRANCH  16  17
HETATM   17  C   UNL     1     -11.233   6.141  68.297  1.00  0.00    -0.086 C  
BRANCH  17  18
HETATM   18  N   UNL     1     -10.589   5.662  69.532  1.00  0.00    -0.301 NA 
HETATM   19  C   UNL     1      -8.223   5.276  68.643  1.00  0.00    -0.093 C  
HETATM   20  C   UNL     1      -9.510   4.682  69.273  1.00  0.00    -0.162 C  
HETATM   21  N   UNL     1      -7.622   6.385  69.426  1.00  0.00    -0.093 NA 
HETATM   22  C   UNL     1     -10.011   6.821  70.259  1.00  0.00    -0.178 C  
HETATM   23  C   UNL     1      -8.699   7.386  69.647  1.00  0.00    -0.137 C  
BRANCH  21  24
HETATM   24  C   UNL     1      -7.023   5.902  70.709  1.00  0.00    -0.063 C  
BRANCH  24  25
HETATM   25  C   UNL     1      -7.485   6.706  71.937  1.00  0.00    -0.091 A  
HETATM   26  C   UNL     1      -8.834   7.100  72.043  1.00  0.00    -0.135 A  
HETATM   27  C   UNL     1      -6.623   7.029  72.996  1.00  0.00    -0.065 A  
HETATM   28  C   UNL     1      -9.295   7.798  73.163  1.00  0.00    -0.315 A  
HETATM   29  C   UNL     1      -8.417   8.129  74.190  1.00  0.00    -0.250 A  
HETATM   30  C   UNL     1      -7.081   7.747  74.105  1.00  0.00    -0.147 A  
ENDBRANCH  24  25
BRANCH  24  31
HETATM   31  C   UNL     1      -7.195   4.387  70.897  1.00  0.00    -0.041 A  
HETATM   32  C   UNL     1      -7.303   1.629  71.442  1.00  0.00    -0.032 A  
HETATM   33  C   UNL     1      -6.666   2.087  70.293  1.00  0.00    -0.032 A  
HETATM   34  C   UNL     1      -7.854   3.903  72.042  1.00  0.00    -0.075 A  
HETATM   35  C   UNL     1      -6.607   3.456  70.023  1.00  0.00    -0.033 A  
HETATM   36  C   UNL     1      -7.899   2.536  72.316  1.00  0.00    -0.053 A  
ENDBRANCH  24  31
ENDBRANCH  21  24
ENDBRANCH  17  18
ENDBRANCH  16  17
ENDBRANCH  15  16
ENDBRANCH  13  15
ENDBRANCH  11  13
BRANCH  12  37
HETATM   37  C   UNL     1     -11.117  12.547  69.251  1.00  0.00    -0.203 A  
HETATM   38  C   UNL     1     -12.978  13.787  68.298  1.00  0.00     1.980 A  
HETATM   39  O   UNL     1     -12.390  13.800  72.998  1.00  0.00     0.108 OA 
HETATM   40  C   UNL     1     -11.518  12.960  70.538  1.00  0.00     0.463 A  
HETATM   41  O   UNL     1     -14.064  14.918  72.128  1.00  0.00    -0.434 OA 
HETATM   42  C   UNL     1     -12.644  13.778  70.690  1.00  0.00    -0.315 A  
HETATM   43  C   UNL     1     -13.383  14.185  69.574  1.00  0.00     1.831 A  
HETATM   44  N   UNL     1     -13.063  14.194  72.036  1.00  0.00    -0.362 N  
HETATM   45  C   UNL     1     -11.848  12.984  68.136  1.00  0.00    -0.381 A  
ENDBRANCH  12  37
ENDBRANCH   3   5
ENDBRANCH   2   3
TORSDOF 11
ENDMDL
MODEL      278
REMARK 921   NORMALIZED FREE ENERGY PREDICTED BY IDOCK:   13.04 KCAL/MOL
REMARK 922        TOTAL FREE ENERGY PREDICTED BY IDOCK:   19.56 KCAL/MOL
REMARK 923 INTER-LIGAND FREE ENERGY PREDICTED BY IDOCK:    6.69 KCAL/MOL
REMARK 924 INTRA-LIGAND FREE ENERGY PREDICTED BY IDOCK:   12.87 KCAL/MOL
REMARK 927      BINDING AFFINITY PREDICTED BY RF-SCORE:    0.00 PKD
ROOT
HETATM    1  C   UNL     1      -6.822   8.783  69.002  1.00  0.00    -0.059 C  
HETATM    2  O   UNL     1      -8.064   8.539  69.668  1.00  0.00    -0.108 OA 
ENDROOT
BRANCH   2   3
HETATM    3  C   UNL     1      -9.146   8.689  68.862  1.00  0.00    -0.145 C  
HETATM    4  O   UNL     1      -9.197   8.336  67.691  1.00  0.00    -0.136 OA 
BRANCH   3   5
HETATM    5  C   UNL     1     -10.247   9.379  69.584  1.00  0.00    -0.225 C  
HETATM    6  C   UNL     1     -11.337   8.699  70.027  1.00  0.00    -0.017 C  
HETATM    7  N   UNL     1     -12.364   9.386  70.656  1.00  0.00    -0.115 NA 
HETATM    8  C   UNL     1     -11.594   7.218  69.905  1.00  0.00    -0.021 C  
HETATM    9  C   UNL     1     -12.477  10.759  70.701  1.00  0.00    -0.370 C  
HETATM   10  C   UNL     1     -13.801  11.302  71.185  1.00  0.00     1.342 C  
HETATM   11  C   UNL     1     -11.439  11.525  70.296  1.00  0.00    -0.192 C  
HETATM   12  C   UNL     1     -10.137  10.898  69.783  1.00  0.00     0.165 C  
BRANCH  11  13
HETATM   13  C   UNL     1     -11.616  12.989  70.200  1.00  0.00    -0.064 C  
HETATM   14  O   UNL     1     -12.705  13.532  70.081  1.00  0.00    -0.166 OA 
BRANCH  13  15
HETATM   15  O   UNL     1     -10.419  13.631  70.234  1.00  0.00     1.017 OA 
BRANCH  15  16
HETATM   16  C   UNL     1      -9.861  13.855  68.922  1.00  0.00    -0.033 C  
BRANCH  16  17
HETATM   17  C   UNL     1     -10.860  14.661  68.075  1.00  0.00    -0.257 C  
BRANCH  17  18
HETATM   18  N   UNL     1     -10.840  16.123  68.253  1.00  0.00    -0.312 NA 
HETATM   19  C   UNL     1      -8.319  16.478  68.487  1.00  0.00    -0.210 C  
HETATM   20  C   UNL     1      -9.731  16.580  69.121  1.00  0.00    -0.241 C  
HETATM   21  N   UNL     1      -8.181  17.195  67.195  1.00  0.00    -0.186 NA 
HETATM   22  C   UNL     1     -10.698  16.772  66.924  1.00  0.00    -0.139 C  
HETATM   23  C   UNL     1      -9.272  16.701  66.313  1.00  0.00    -0.294 C  
BRANCH  21  24
HETATM   24  C   UNL     1      -8.223  18.680  67.374  1.00  0.00    -0.255 C  
BRANCH  24  25
HETATM   25  C   UNL     1      -9.346  19.358  66.570  1.00  0.00    -0.414 A  
HETATM   26  C   UNL     1      -9.020  20.161  65.460  1.00  0.00     0.413 A  
HETATM   27  C   UNL     1     -10.706  19.172  66.868  1.00  0.00    -0.515 A  
HETATM   28  C   UNL     1     -10.017  20.761  64.685  1.00  0.00     2.227 A  
HETATM   29  C   UNL     1     -11.358  20.582  65.013  1.00  0.00     1.330 A  
HETATM   30  C   UNL     1     -11.702  19.790  66.105  1.00  0.00     1.614 A  
ENDBRANCH  24  25
BRANCH  24  31
HETATM   31  C   UNL     1      -8.228  19.087  68.855  1.00  0.00    -0.303 A  
HETATM   32  C   UNL     1      -8.276  20.106  71.477  1.00  0.00     2.129 A  
HETATM   33  C   UNL     1      -7.066  19.739  70.894  1.00  0.00     0.724 A  
HETATM   34  C   UNL     1      -9.444  19.444  69.469  1.00  0.00     0.042 A  
HETATM   35  C   UNL     1      -7.041  19.238  69.591  1.00  0.00    -0.120 A  
HETATM   36  C   UNL     1      -9.464  19.958  70.766  1.00  0.00     1.614 A  
ENDBRANCH  24  31
ENDBRANCH  21  24
ENDBRANCH  17  18
ENDBRANCH  16  17
ENDBRANCH  15  16
ENDBRANCH  13  15
ENDBRANCH  11  13
BRANCH  12  37
HETATM   37  C   UNL     1      -9.643  11.630  68.525  1.00  0.00    -0.181 A  
HETATM   38  C   UNL     1      -7.940  12.903  67.346  1.00  0.00    -0.178 A  
HETATM   39  O   UNL     1     -11.704  11.341  64.933  1.00  0.00     0.098 OA 
HETATM   40  C   UNL     1     -10.372  11.519  67.323  1.00  0.00    -0.236 A  
HETATM   41  O   UNL     1     -10.163  12.492  63.879  1.00  0.00    -0.408 OA 
HETATM   42  C   UNL     1      -9.876  12.097  66.148  1.00  0.00    -0.237 A  
HETATM   43  C   UNL     1      -8.655  12.781  66.153  1.00  0.00     0.469 A  
HETATM   44  N   UNL     1     -10.636  11.966  64.897  1.00  0.00    -0.275 N  
HETATM   45  C   UNL     1      -8.434  12.342  68.525  1.00  0.00    -0.077 A  
ENDBRANCH  12  37
ENDBRANCH   3   5
ENDBRANCH   2   3
TORSDOF 11
ENDMDL
MODEL      279
REMARK 921   NORMALIZED FREE ENERGY PREDICTED BY IDOCK:   14.53 KCAL/MOL
REMARK 922        TOTAL FREE ENERGY PREDICTED BY IDOCK:   22.02 KCAL/MOL
REMARK 923 INTER-LIGAND FREE ENERGY PREDICTED BY IDOCK:    5.16 KCAL/MOL
REMARK 924 INTRA-LIGAND FREE ENERGY PREDICTED BY IDOCK:   16.86 KCAL/MOL
REMARK 927      BINDING AFFINITY PREDICTED BY RF-SCORE:    0.00 PKD
ROOT
HETATM    1  C   UNL     1      -6.668  14.386  66.102  1.00  0.00     4.997 C  
HETATM    2  O   UNL     1      -6.684  12.974  65.871  1.00  0.00     2.901 OA 
ENDROOT
BRANCH   2   3
HETATM    3  C   UNL     1      -7.705  12.338  66.500  1.00  0.00     0.319 C  
HETATM    4  O   UNL     1      -8.866  12.725  66.512  1.00  0.00    -0.158 OA 
BRANCH   3   5
HETATM    5  C   UNL     1      -7.212  11.129  67.210  1.00  0.00    -0.113 C  
HETATM    6  C   UNL     1      -6.288  10.307  66.645  1.00  0.00    -0.074 C  
HETATM    7  N   UNL     1      -5.887   9.162  67.319  1.00  0.00    -0.046 NA 
HETATM    8  C   UNL     1      -5.618  10.478  65.306  1.00  0.00    -0.139 C  
HETATM    9  C   UNL     1      -6.497   8.664  68.450  1.00  0.00    -0.056 C  
HETATM   10  C   UNL     1      -6.090   7.270  68.866  1.00  0.00    -0.026 C  
HETATM   11  C   UNL     1      -7.420   9.414  69.093  1.00  0.00    -0.073 C  
HETATM   12  C   UNL     1      -7.806  10.809  68.590  1.00  0.00    -0.122 C  
BRANCH  11  13
HETATM   13  C   UNL     1      -8.182   8.819  70.211  1.00  0.00    -0.119 C  
HETATM   14  O   UNL     1      -9.342   8.445  70.115  1.00  0.00    -0.160 OA 
BRANCH  13  15
HETATM   15  O   UNL     1      -7.435   8.773  71.345  1.00  0.00    -0.101 OA 
BRANCH  15  16
HETATM   16  C   UNL     1      -6.029   8.576  71.087  1.00  0.00    -0.037 C  
BRANCH  16  17
HETATM   17  C   UNL     1      -5.391   7.840  72.277  1.00  0.00    -0.036 C  
BRANCH  17  18
HETATM   18  N   UNL     1      -5.780   6.431  72.460  1.00  0.00    -0.037 NA 
HETATM   19  C   UNL     1      -8.315   6.718  72.629  1.00  0.00    -0.111 C  
HETATM   20  C   UNL     1      -6.989   6.273  73.299  1.00  0.00    -0.075 C  
HETATM   21  N   UNL     1      -8.595   6.044  71.336  1.00  0.00    -0.128 NA 
HETATM   22  C   UNL     1      -6.046   5.824  71.130  1.00  0.00    -0.034 C  
HETATM   23  C   UNL     1      -7.395   6.241  70.481  1.00  0.00    -0.085 C  
BRANCH  21  24
HETATM   24  C   UNL     1      -8.929   4.598  71.522  1.00  0.00    -0.133 C  
BRANCH  24  25
HETATM   25  C   UNL     1      -9.286   3.882  70.208  1.00  0.00    -0.238 A  
HETATM   26  C   UNL     1      -9.235   4.592  68.992  1.00  0.00    -0.183 A  
HETATM   27  C   UNL     1      -9.621   2.519  70.157  1.00  0.00    -0.085 A  
HETATM   28  C   UNL     1      -9.516   3.963  67.776  1.00  0.00    -0.230 A  
HETATM   29  C   UNL     1      -9.869   2.617  67.752  1.00  0.00     0.443 A  
HETATM   30  C   UNL     1      -9.924   1.896  68.942  1.00  0.00     0.400 A  
ENDBRANCH  24  25
BRANCH  24  31
HETATM   31  C   UNL     1      -7.855   3.851  72.327  1.00  0.00    -0.076 A  
HETATM   32  C   UNL     1      -6.046   2.245  73.763  1.00  0.00    -0.008 A  
HETATM   33  C   UNL     1      -6.913   3.097  74.443  1.00  0.00    -0.045 A  
HETATM   34  C   UNL     1      -6.956   3.001  71.657  1.00  0.00    -0.031 A  
HETATM   35  C   UNL     1      -7.814   3.890  73.731  1.00  0.00    -0.080 A  
HETATM   36  C   UNL     1      -6.066   2.198  72.372  1.00  0.00    -0.009 A  
ENDBRANCH  24  31
ENDBRANCH  21  24
ENDBRANCH  17  18
ENDBRANCH  16  17
ENDBRANCH  15  16
ENDBRANCH  13  15
ENDBRANCH  11  13
BRANCH  12  37
HETATM   37  C   UNL     1      -9.331  11.001  68.640  1.00  0.00    -0.196 A  
HETATM   38  C   UNL     1     -11.585  10.098  68.512  1.00  0.00     0.013 A  
HETATM   39  O   UNL     1     -10.997  14.589  69.898  1.00  0.00    -0.209 OA 
HETATM   40  C   UNL     1      -9.864  12.236  69.063  1.00  0.00     0.218 A  
HETATM   41  O   UNL     1     -13.026  13.766  69.777  1.00  0.00     0.131 OA 
HETATM   42  C   UNL     1     -11.249  12.386  69.208  1.00  0.00    -0.201 A  
HETATM   43  C   UNL     1     -12.112  11.317  68.944  1.00  0.00    -0.292 A  
HETATM   44  N   UNL     1     -11.795  13.673  69.662  1.00  0.00    -0.317 N  
HETATM   45  C   UNL     1     -10.207   9.944  68.350  1.00  0.00    -0.203 A  
ENDBRANCH  12  37
ENDBRANCH   3   5
ENDBRANCH   2   3
TORSDOF 11
ENDMDL
MODEL      280
REMARK 921   NORMALIZED FREE ENERGY PREDICTED BY IDOCK:   14.70 KCAL/MOL
REMARK 922        TOTAL FREE ENERGY PREDICTED BY IDOCK:   22.29 KCAL/MOL
REMARK 923 INTER-LIGAND FREE ENERGY PREDICTED BY IDOCK:    4.19 KCAL/MOL
REMARK 924 INTRA-LIGAND FREE ENERGY PREDICTED BY IDOCK:   18.10 KCAL/MOL
REMARK 927      BINDING AFFINITY PREDICTED BY RF-SCORE:    0.00 PKD
ROOT
HETATM    1  C   UNL     1      -9.768   5.910  65.529  1.00  0.00     0.410 C  
HETATM    2  O   UNL     1      -9.113   6.055  66.792  1.00  0.00    -0.124 OA 
ENDROOT
BRANCH   2   3
HETATM    3  C   UNL     1      -9.931   5.835  67.852  1.00  0.00    -0.137 C  
HETATM    4  O   UNL     1     -10.431   4.754  68.135  1.00  0.00     0.023 OA 
BRANCH   3   5
HETATM    5  C   UNL     1     -10.172   7.097  68.600  1.00  0.00    -0.186 C  
HETATM    6  C   UNL     1     -11.132   7.177  69.559  1.00  0.00    -0.141 C  
HETATM    7  N   UNL     1     -11.358   8.385  70.202  1.00  0.00    -0.138 NA 
HETATM    8  C   UNL     1     -12.041   6.070  70.029  1.00  0.00     1.047 C  
HETATM    9  C   UNL     1     -10.820   9.593  69.814  1.00  0.00    -0.250 C  
HETATM   10  C   UNL     1     -11.405  10.823  70.468  1.00  0.00    -0.289 C  
HETATM   11  C   UNL     1      -9.847   9.616  68.876  1.00  0.00    -0.179 C  
HETATM   12  C   UNL     1      -9.328   8.326  68.231  1.00  0.00    -0.138 C  
BRANCH  11  13
HETATM   13  C   UNL     1      -9.381  10.917  68.351  1.00  0.00    -0.172 C  
HETATM   14  O   UNL     1      -8.269  11.095  67.874  1.00  0.00    -0.114 OA 
BRANCH  13  15
HETATM   15  O   UNL     1     -10.335  11.874  68.494  1.00  0.00    -0.210 OA 
BRANCH  15  16
HETATM   16  C   UNL     1     -10.378  12.432  69.824  1.00  0.00     1.168 C  
BRANCH  16  17
HETATM   17  C   UNL     1     -11.071  13.804  69.778  1.00  0.00     0.034 C  
BRANCH  17  18
HETATM   18  N   UNL     1     -10.192  14.977  69.637  1.00  0.00    -0.195 NA 
HETATM   19  C   UNL     1      -9.682  14.815  67.137  1.00  0.00    -0.233 C  
HETATM   20  C   UNL     1      -9.156  14.796  68.596  1.00  0.00    -0.186 C  
HETATM   21  N   UNL     1     -10.441  16.042  66.783  1.00  0.00    -0.307 NA 
HETATM   22  C   UNL     1     -11.017  16.161  69.282  1.00  0.00    -0.315 C  
HETATM   23  C   UNL     1     -11.507  16.196  67.808  1.00  0.00    -0.033 C  
BRANCH  21  24
HETATM   24  C   UNL     1      -9.553  17.243  66.701  1.00  0.00    -0.276 C  
BRANCH  24  25
HETATM   25  C   UNL     1     -10.143  18.484  67.393  1.00  0.00    -0.377 A  
HETATM   26  C   UNL     1     -11.504  18.803  67.207  1.00  0.00     0.801 A  
HETATM   27  C   UNL     1      -9.390  19.300  68.252  1.00  0.00    -0.407 A  
HETATM   28  C   UNL     1     -12.081  19.900  67.850  1.00  0.00     2.963 A  
HETATM   29  C   UNL     1     -11.310  20.710  68.678  1.00  0.00     1.974 A  
HETATM   30  C   UNL     1      -9.965  20.412  68.877  1.00  0.00     0.004 A  
ENDBRANCH  24  25
BRANCH  24  31
HETATM   31  C   UNL     1      -8.118  16.938  67.160  1.00  0.00    -0.214 A  
HETATM   32  C   UNL     1      -5.602  16.156  68.145  1.00  0.00    -0.111 A  
HETATM   33  C   UNL     1      -6.262  17.246  68.706  1.00  0.00    -0.176 A  
HETATM   34  C   UNL     1      -7.427  15.853  66.591  1.00  0.00    -0.093 A  
HETATM   35  C   UNL     1      -7.513  17.632  68.222  1.00  0.00    -0.251 A  
HETATM   36  C   UNL     1      -6.183  15.461  67.087  1.00  0.00     0.278 A  
ENDBRANCH  24  31
ENDBRANCH  21  24
ENDBRANCH  17  18
ENDBRANCH  16  17
ENDBRANCH  15  16
ENDBRANCH  13  15
ENDBRANCH  11  13
BRANCH  12  37
HETATM   37  C   UNL     1      -9.170   8.505  66.712  1.00  0.00    -0.215 A  
HETATM   38  C   UNL     1      -8.258   7.781  64.578  1.00  0.00    -0.060 A  
HETATM   39  O   UNL     1     -11.484  11.248  64.627  1.00  0.00    -0.104 OA 
HETATM   40  C   UNL     1      -9.965   9.452  66.036  1.00  0.00    -0.352 A  
HETATM   41  O   UNL     1     -10.654  10.589  62.707  1.00  0.00     0.394 OA 
HETATM   42  C   UNL     1      -9.900   9.551  64.640  1.00  0.00     0.338 A  
HETATM   43  C   UNL     1      -9.055   8.710  63.907  1.00  0.00     0.622 A  
HETATM   44  N   UNL     1     -10.741  10.533  63.942  1.00  0.00     0.256 N  
HETATM   45  C   UNL     1      -8.305   7.686  65.970  1.00  0.00    -0.135 A  
ENDBRANCH  12  37
ENDBRANCH   3   5
ENDBRANCH   2   3
TORSDOF 11
ENDMDL
MODEL      281
REMARK 921   NORMALIZED FREE ENERGY PREDICTED BY IDOCK:   16.60 KCAL/MOL
REMARK 922        TOTAL FREE ENERGY PREDICTED BY IDOCK:   25.41 KCAL/MOL
REMARK 923 INTER-LIGAND FREE ENERGY PREDICTED BY IDOCK:   12.87 KCAL/MOL
REMARK 924 INTRA-LIGAND FREE ENERGY PREDICTED BY IDOCK:   12.54 KCAL/MOL
REMARK 927      BINDING AFFINITY PREDICTED BY RF-SCORE:    0.00 PKD
ROOT
HETATM    1  C   UNL     1      -7.622  16.842  71.314  1.00  0.00     6.193 C  
HETATM    2  O   UNL     1      -7.047  15.646  70.780  1.00  0.00     0.813 OA 
ENDROOT
BRANCH   2   3
HETATM    3  C   UNL     1      -7.727  14.522  71.124  1.00  0.00     2.791 C  
HETATM    4  O   UNL     1      -7.733  14.025  72.242  1.00  0.00     4.378 OA 
BRANCH   3   5
HETATM    5  C   UNL     1      -8.430  13.954  69.944  1.00  0.00     1.603 C  
HETATM    6  C   UNL     1      -9.717  14.285  69.661  1.00  0.00     0.556 C  
HETATM    7  N   UNL     1     -10.354  13.698  68.578  1.00  0.00    -0.243 NA 
HETATM    8  C   UNL     1     -10.594  15.249  70.420  1.00  0.00    -0.225 C  
HETATM    9  C   UNL     1      -9.855  12.634  67.857  1.00  0.00    -0.218 C  
HETATM   10  C   UNL     1     -10.818  11.968  66.903  1.00  0.00    -0.302 C  
HETATM   11  C   UNL     1      -8.578  12.238  68.056  1.00  0.00    -0.176 C  
HETATM   12  C   UNL     1      -7.670  12.944  69.069  1.00  0.00     0.200 C  
BRANCH  11  13
HETATM   13  C   UNL     1      -8.094  11.006  67.398  1.00  0.00    -0.122 C  
HETATM   14  O   UNL     1      -8.209   9.890  67.884  1.00  0.00    -0.112 OA 
BRANCH  13  15
HETATM   15  O   UNL     1      -7.490  11.286  66.213  1.00  0.00    -0.109 OA 
BRANCH  15  16
HETATM   16  C   UNL     1      -6.054  11.375  66.319  1.00  0.00    -0.028 C  
BRANCH  16  17
HETATM   17  C   UNL     1      -5.409  10.398  65.322  1.00  0.00    -0.110 C  
BRANCH  17  18
HETATM   18  N   UNL     1      -5.674   8.966  65.544  1.00  0.00    -0.046 NA 
HETATM   19  C   UNL     1      -8.206   9.060  65.884  1.00  0.00    -0.117 C  
HETATM   20  C   UNL     1      -6.807   8.728  66.466  1.00  0.00    -0.072 C  
HETATM   21  N   UNL     1      -8.521   8.349  64.620  1.00  0.00    -0.123 NA 
HETATM   22  C   UNL     1      -5.982   8.322  64.241  1.00  0.00    -0.065 C  
HETATM   23  C   UNL     1      -7.400   8.625  63.683  1.00  0.00    -0.104 C  
BRANCH  21  24
HETATM   24  C   UNL     1      -8.729   6.884  64.841  1.00  0.00     0.283 C  
BRANCH  24  25
HETATM   25  C   UNL     1      -7.514   6.030  64.438  1.00  0.00    -0.078 A  
HETATM   26  C   UNL     1      -7.223   5.834  63.073  1.00  0.00    -0.052 A  
HETATM   27  C   UNL     1      -6.640   5.467  65.381  1.00  0.00    -0.040 A  
HETATM   28  C   UNL     1      -6.107   5.096  62.672  1.00  0.00    -0.021 A  
HETATM   29  C   UNL     1      -5.267   4.526  63.625  1.00  0.00    -0.009 A  
HETATM   30  C   UNL     1      -5.535   4.710  64.978  1.00  0.00    -0.013 A  
ENDBRANCH  24  25
BRANCH  24  31
HETATM   31  C   UNL     1      -9.222   6.574  66.263  1.00  0.00    -0.160 A  
HETATM   32  C   UNL     1     -10.144   5.730  68.783  1.00  0.00    -0.231 A  
HETATM   33  C   UNL     1     -11.006   6.390  67.910  1.00  0.00    -0.416 A  
HETATM   34  C   UNL     1      -8.360   5.926  67.167  1.00  0.00    -0.105 A  
HETATM   35  C   UNL     1     -10.551   6.804  66.657  1.00  0.00    -0.208 A  
HETATM   36  C   UNL     1      -8.822   5.500  68.413  1.00  0.00    -0.107 A  
ENDBRANCH  24  31
ENDBRANCH  21  24
ENDBRANCH  17  18
ENDBRANCH  16  17
ENDBRANCH  15  16
ENDBRANCH  13  15
ENDBRANCH  11  13
BRANCH  12  37
HETATM   37  C   UNL     1      -6.878  11.918  69.896  1.00  0.00     0.234 A  
HETATM   38  C   UNL     1      -5.137  11.386  71.506  1.00  0.00    -0.026 A  
HETATM   39  O   UNL     1      -8.093   7.955  70.121  1.00  0.00    -0.111 OA 
HETATM   40  C   UNL     1      -7.313  10.578  69.943  1.00  0.00    -0.116 A  
HETATM   41  O   UNL     1      -6.517   7.485  71.572  1.00  0.00    -0.039 OA 
HETATM   42  C   UNL     1      -6.657   9.659  70.773  1.00  0.00    -0.099 A  
HETATM   43  C   UNL     1      -5.575  10.062  71.564  1.00  0.00    -0.004 A  
HETATM   44  N   UNL     1      -7.125   8.267  70.826  1.00  0.00    -0.041 N  
HETATM   45  C   UNL     1      -5.775  12.305  70.671  1.00  0.00    -0.135 A  
ENDBRANCH  12  37
ENDBRANCH   3   5
ENDBRANCH   2   3
TORSDOF 11
ENDMDL
MODEL      282
REMARK 921   NORMALIZED FREE ENERGY PREDICTED BY IDOCK:   16.79 KCAL/MOL
REMARK 922        TOTAL FREE ENERGY PREDICTED BY IDOCK:   25.72 KCAL/MOL
REMARK 923 INTER-LIGAND FREE ENERGY PREDICTED BY IDOCK:    3.98 KCAL/MOL
REMARK 924 INTRA-LIGAND FREE ENERGY PREDICTED BY IDOCK:   21.75 KCAL/MOL
REMARK 927      BINDING AFFINITY PREDICTED BY RF-SCORE:    0.00 PKD
ROOT
HETATM    1  C   UNL     1     -11.174   5.302  68.318  1.00  0.00     1.210 C  
HETATM    2  O   UNL     1     -10.420   4.648  69.342  1.00  0.00    -0.019 OA 
ENDROOT
BRANCH   2   3
HETATM    3  C   UNL     1      -9.125   4.430  69.001  1.00  0.00    -0.126 C  
HETATM    4  O   UNL     1      -8.694   3.385  68.530  1.00  0.00    -0.087 OA 
BRANCH   3   5
HETATM    5  C   UNL     1      -8.291   5.619  69.318  1.00  0.00    -0.107 C  
HETATM    6  C   UNL     1      -8.230   6.122  70.579  1.00  0.00    -0.114 C  
HETATM    7  N   UNL     1      -7.477   7.262  70.826  1.00  0.00    -0.078 NA 
HETATM    8  C   UNL     1      -8.919   5.583  71.807  1.00  0.00    -0.144 C  
HETATM    9  C   UNL     1      -6.930   8.067  69.850  1.00  0.00    -0.045 C  
HETATM   10  C   UNL     1      -6.391   9.400  70.313  1.00  0.00    -0.060 C  
HETATM   11  C   UNL     1      -6.930   7.647  68.565  1.00  0.00    -0.072 C  
HETATM   12  C   UNL     1      -7.529   6.292  68.167  1.00  0.00    -0.090 C  
BRANCH  11  13
HETATM   13  C   UNL     1      -6.485   8.572  67.503  1.00  0.00    -0.058 C  
HETATM   14  O   UNL     1      -5.310   8.788  67.242  1.00  0.00    -0.036 OA 
BRANCH  13  15
HETATM   15  O   UNL     1      -7.545   9.159  66.887  1.00  0.00    -0.090 OA 
BRANCH  15  16
HETATM   16  C   UNL     1      -7.575   8.918  65.465  1.00  0.00    -0.087 C  
BRANCH  16  17
HETATM   17  C   UNL     1      -7.157  10.199  64.723  1.00  0.00    -0.129 C  
BRANCH  17  18
HETATM   18  N   UNL     1      -8.044  11.364  64.877  1.00  0.00     0.602 NA 
HETATM   19  C   UNL     1      -9.685  10.412  66.592  1.00  0.00    -0.190 C  
HETATM   20  C   UNL     1      -9.445  10.984  65.170  1.00  0.00    -0.228 C  
HETATM   21  N   UNL     1      -9.242  11.310  67.689  1.00  0.00    -0.154 NA 
HETATM   22  C   UNL     1      -7.542  12.212  65.989  1.00  0.00     1.067 C  
HETATM   23  C   UNL     1      -7.822  11.654  67.412  1.00  0.00    -0.147 C  
BRANCH  21  24
HETATM   24  C   UNL     1     -10.110  12.523  67.802  1.00  0.00    -0.218 C  
BRANCH  24  25
HETATM   25  C   UNL     1     -11.005  12.747  66.570  1.00  0.00    -0.291 A  
HETATM   26  C   UNL     1     -10.417  12.877  65.296  1.00  0.00    -0.312 A  
HETATM   27  C   UNL     1     -12.406  12.781  66.652  1.00  0.00     0.043 A  
HETATM   28  C   UNL     1     -11.202  13.043  64.153  1.00  0.00    -0.439 A  
HETATM   29  C   UNL     1     -12.589  13.098  64.260  1.00  0.00    -0.282 A  
HETATM   30  C   UNL     1     -13.190  12.970  65.509  1.00  0.00     0.699 A  
ENDBRANCH  24  25
BRANCH  24  31
HETATM   31  C   UNL     1     -10.900  12.553  69.119  1.00  0.00    -0.134 A  
HETATM   32  C   UNL     1     -12.092  12.636  71.665  1.00  0.00     0.786 A  
HETATM   33  C   UNL     1     -11.965  11.423  70.995  1.00  0.00    -0.160 A  
HETATM   34  C   UNL     1     -11.056  13.773  69.803  1.00  0.00    -0.025 A  
HETATM   35  C   UNL     1     -11.369  11.379  69.733  1.00  0.00    -0.332 A  
HETATM   36  C   UNL     1     -11.639  13.811  71.070  1.00  0.00     0.354 A  
ENDBRANCH  24  31
ENDBRANCH  21  24
ENDBRANCH  17  18
ENDBRANCH  16  17
ENDBRANCH  15  16
ENDBRANCH  13  15
ENDBRANCH  11  13
BRANCH  12  37
HETATM   37  C   UNL     1      -8.375   6.428  66.891  1.00  0.00    -0.110 A  
HETATM   38  C   UNL     1      -9.100   7.708  64.955  1.00  0.00     0.554 A  
HETATM   39  O   UNL     1     -10.386   3.163  65.301  1.00  0.00     0.308 OA 
HETATM   40  C   UNL     1      -9.053   5.301  66.383  1.00  0.00    -0.137 A  
HETATM   41  O   UNL     1     -11.037   4.328  63.560  1.00  0.00     0.097 OA 
HETATM   42  C   UNL     1      -9.743   5.390  65.167  1.00  0.00     0.372 A  
HETATM   43  C   UNL     1      -9.760   6.589  64.445  1.00  0.00     2.745 A  
HETATM   44  N   UNL     1     -10.437   4.207  64.638  1.00  0.00    -0.215 N  
HETATM   45  C   UNL     1      -8.422   7.632  66.174  1.00  0.00    -0.147 A  
ENDBRANCH  12  37
ENDBRANCH   3   5
ENDBRANCH   2   3
TORSDOF 11
ENDMDL
MODEL      283
REMARK 921   NORMALIZED FREE ENERGY PREDICTED BY IDOCK:   19.62 KCAL/MOL
REMARK 922        TOTAL FREE ENERGY PREDICTED BY IDOCK:   30.37 KCAL/MOL
REMARK 923 INTER-LIGAND FREE ENERGY PREDICTED BY IDOCK:   14.11 KCAL/MOL
REMARK 924 INTRA-LIGAND FREE ENERGY PREDICTED BY IDOCK:   16.27 KCAL/MOL
REMARK 927      BINDING AFFINITY PREDICTED BY RF-SCORE:    0.00 PKD
ROOT
HETATM    1  C   UNL     1      -9.644   8.672  65.257  1.00  0.00     0.420 C  
HETATM    2  O   UNL     1      -8.717   9.444  64.488  1.00  0.00    -0.187 OA 
ENDROOT
BRANCH   2   3
HETATM    3  C   UNL     1      -7.686   9.934  65.222  1.00  0.00    -0.129 C  
HETATM    4  O   UNL     1      -7.276  11.086  65.167  1.00  0.00     0.196 OA 
BRANCH   3   5
HETATM    5  C   UNL     1      -7.094   8.868  66.071  1.00  0.00    -0.088 C  
HETATM    6  C   UNL     1      -6.426   7.819  65.524  1.00  0.00    -0.042 C  
HETATM    7  N   UNL     1      -5.927   6.820  66.348  1.00  0.00    -0.029 NA 
HETATM    8  C   UNL     1      -6.153   7.579  64.061  1.00  0.00    -0.048 C  
HETATM    9  C   UNL     1      -6.223   6.687  67.687  1.00  0.00    -0.035 C  
HETATM   10  C   UNL     1      -5.809   5.386  68.334  1.00  0.00    -0.017 C  
HETATM   11  C   UNL     1      -6.873   7.686  68.326  1.00  0.00    -0.067 C  
HETATM   12  C   UNL     1      -7.292   8.964  67.592  1.00  0.00    -0.085 C  
BRANCH  11  13
HETATM   13  C   UNL     1      -7.325   7.479  69.718  1.00  0.00    -0.082 C  
HETATM   14  O   UNL     1      -7.363   6.384  70.261  1.00  0.00    -0.083 OA 
BRANCH  13  15
HETATM   15  O   UNL     1      -7.710   8.650  70.289  1.00  0.00    -0.073 OA 
BRANCH  15  16
HETATM   16  C   UNL     1      -6.619   9.362  70.908  1.00  0.00    -0.098 C  
BRANCH  16  17
HETATM   17  C   UNL     1      -7.009  10.839  71.083  1.00  0.00     1.855 C  
BRANCH  17  18
HETATM   18  N   UNL     1      -6.941  11.683  69.878  1.00  0.00     0.095 NA 
HETATM   19  C   UNL     1      -8.136  13.764  70.759  1.00  0.00     4.289 C  
HETATM   20  C   UNL     1      -8.103  12.590  69.745  1.00  0.00     1.914 C  
HETATM   21  N   UNL     1      -6.919  14.614  70.741  1.00  0.00     0.403 NA 
HETATM   22  C   UNL     1      -5.704  12.504  69.930  1.00  0.00    -0.124 C  
HETATM   23  C   UNL     1      -5.758  13.702  70.917  1.00  0.00    -0.197 C  
BRANCH  21  24
HETATM   24  C   UNL     1      -6.822  15.423  69.487  1.00  0.00    -0.181 C  
BRANCH  24  25
HETATM   25  C   UNL     1      -6.578  14.569  68.230  1.00  0.00    -0.119 A  
HETATM   26  C   UNL     1      -5.368  13.860  68.095  1.00  0.00    -0.119 A  
HETATM   27  C   UNL     1      -7.540  14.423  67.218  1.00  0.00    -0.135 A  
HETATM   28  C   UNL     1      -5.129  13.046  66.985  1.00  0.00     0.498 A  
HETATM   29  C   UNL     1      -6.087  12.935  65.981  1.00  0.00     4.062 A  
HETATM   30  C   UNL     1      -7.291  13.626  66.096  1.00  0.00     3.371 A  
ENDBRANCH  24  25
BRANCH  24  31
HETATM   31  C   UNL     1      -8.006  16.388  69.323  1.00  0.00    -0.136 A  
HETATM   32  C   UNL     1     -10.187  18.165  69.313  1.00  0.00    -0.013 A  
HETATM   33  C   UNL     1     -10.385  16.817  69.027  1.00  0.00    -0.326 A  
HETATM   34  C   UNL     1      -7.822  17.758  69.588  1.00  0.00     0.763 A  
HETATM   35  C   UNL     1      -9.305  15.933  69.037  1.00  0.00    -0.243 A  
HETATM   36  C   UNL     1      -8.907  18.636  69.592  1.00  0.00     0.751 A  
ENDBRANCH  24  31
ENDBRANCH  21  24
ENDBRANCH  17  18
ENDBRANCH  16  17
ENDBRANCH  15  16
ENDBRANCH  13  15
ENDBRANCH  11  13
BRANCH  12  37
HETATM   37  C   UNL     1      -8.723   9.369  67.981  1.00  0.00    -0.124 A  
HETATM   38  C   UNL     1     -10.908  10.259  67.391  1.00  0.00    -0.336 A  
HETATM   39  O   UNL     1     -10.291   8.383  71.696  1.00  0.00    -0.207 OA 
HETATM   40  C   UNL     1      -9.222   9.027  69.254  1.00  0.00    -0.145 A  
HETATM   41  O   UNL     1     -12.257   9.191  71.155  1.00  0.00    -0.296 OA 
HETATM   42  C   UNL     1     -10.556   9.302  69.580  1.00  0.00    -0.229 A  
HETATM   43  C   UNL     1     -11.405   9.908  68.648  1.00  0.00    -0.048 A  
HETATM   44  N   UNL     1     -11.071   8.930  70.906  1.00  0.00    -0.257 N  
HETATM   45  C   UNL     1      -9.575  10.003  67.064  1.00  0.00    -0.212 A  
ENDBRANCH  12  37
ENDBRANCH   3   5
ENDBRANCH   2   3
TORSDOF 11
ENDMDL
MODEL      284
REMARK 921   NORMALIZED FREE ENERGY PREDICTED BY IDOCK:   20.23 KCAL/MOL
REMARK 922        TOTAL FREE ENERGY PREDICTED BY IDOCK:   31.38 KCAL/MOL
REMARK 923 INTER-LIGAND FREE ENERGY PREDICTED BY IDOCK:   11.62 KCAL/MOL
REMARK 924 INTRA-LIGAND FREE ENERGY PREDICTED BY IDOCK:   19.76 KCAL/MOL
REMARK 927      BINDING AFFINITY PREDICTED BY RF-SCORE:    0.00 PKD
ROOT
HETATM    1  C   UNL     1      -7.606  16.003  70.158  1.00  0.00     0.874 C  
HETATM    2  O   UNL     1      -7.083  14.673  70.210  1.00  0.00    -0.046 OA 
ENDROOT
BRANCH   2   3
HETATM    3  C   UNL     1      -6.414  14.313  69.085  1.00  0.00    -0.109 C  
HETATM    4  O   UNL     1      -5.195  14.278  68.979  1.00  0.00    -0.080 OA 
BRANCH   3   5
HETATM    5  C   UNL     1      -7.366  14.007  67.985  1.00  0.00    -0.142 C  
HETATM    6  C   UNL     1      -7.429  12.767  67.431  1.00  0.00    -0.145 C  
HETATM    7  N   UNL     1      -8.298  12.533  66.374  1.00  0.00     0.158 NA 
HETATM    8  C   UNL     1      -6.627  11.554  67.826  1.00  0.00    -0.068 C  
HETATM    9  C   UNL     1      -8.978  13.515  65.687  1.00  0.00     0.894 C  
HETATM   10  C   UNL     1      -9.649  13.084  64.403  1.00  0.00     0.422 C  
HETATM   11  C   UNL     1      -8.988  14.779  66.167  1.00  0.00    -0.061 C  
HETATM   12  C   UNL     1      -8.253  15.146  67.461  1.00  0.00    -0.196 C  
BRANCH  11  13
HETATM   13  C   UNL     1      -9.585  15.856  65.351  1.00  0.00     0.020 C  
HETATM   14  O   UNL     1     -10.133  15.666  64.275  1.00  0.00     0.461 OA 
BRANCH  13  15
HETATM   15  O   UNL     1      -9.420  17.069  65.943  1.00  0.00    -0.492 OA 
BRANCH  15  16
HETATM   16  C   UNL     1     -10.570  17.486  66.707  1.00  0.00    -0.201 C  
BRANCH  16  17
HETATM   17  C   UNL     1     -10.257  17.361  68.207  1.00  0.00    -0.362 C  
BRANCH  17  18
HETATM   18  N   UNL     1     -10.442  16.027  68.806  1.00  0.00    -0.235 NA 
HETATM   19  C   UNL     1     -12.974  16.077  69.154  1.00  0.00     1.680 C  
HETATM   20  C   UNL     1     -11.557  15.985  69.778  1.00  0.00    -0.297 C  
HETATM   21  N   UNL     1     -13.253  15.039  68.130  1.00  0.00     2.625 NA 
HETATM   22  C   UNL     1     -10.718  15.045  67.726  1.00  0.00    -0.278 C  
HETATM   23  C   UNL     1     -12.152  15.114  67.134  1.00  0.00     0.250 C  
BRANCH  21  24
HETATM   24  C   UNL     1     -13.379  13.677  68.736  1.00  0.00     3.606 C  
BRANCH  24  25
HETATM   25  C   UNL     1     -12.510  12.617  68.036  1.00  0.00     0.686 A  
HETATM   26  C   UNL     1     -11.290  12.222  68.620  1.00  0.00    -0.339 A  
HETATM   27  C   UNL     1     -12.905  11.981  66.849  1.00  0.00     3.177 A  
HETATM   28  C   UNL     1     -10.495  11.235  68.031  1.00  0.00    -0.215 A  
HETATM   29  C   UNL     1     -10.895  10.635  66.840  1.00  0.00    -0.267 A  
HETATM   30  C   UNL     1     -12.098  11.009  66.249  1.00  0.00     2.033 A  
ENDBRANCH  24  25
BRANCH  24  31
HETATM   31  C   UNL     1     -13.174  13.696  70.259  1.00  0.00     0.450 A  
HETATM   32  C   UNL     1     -13.028  13.555  73.064  1.00  0.00     0.267 A  
HETATM   33  C   UNL     1     -13.550  14.690  72.450  1.00  0.00    -0.555 A  
HETATM   34  C   UNL     1     -12.631  12.566  70.897  1.00  0.00    -0.331 A  
HETATM   35  C   UNL     1     -13.627  14.760  71.058  1.00  0.00    -0.364 A  
HETATM   36  C   UNL     1     -12.568  12.494  72.289  1.00  0.00     0.341 A  
ENDBRANCH  24  31
ENDBRANCH  21  24
ENDBRANCH  17  18
ENDBRANCH  16  17
ENDBRANCH  15  16
ENDBRANCH  13  15
ENDBRANCH  11  13
BRANCH  12  37
HETATM   37  C   UNL     1      -7.486  16.468  67.292  1.00  0.00    -0.195 A  
HETATM   38  C   UNL     1      -6.583  18.228  65.879  1.00  0.00    -0.306 A  
HETATM   39  O   UNL     1      -6.500  18.804  70.579  1.00  0.00     0.178 OA 
HETATM   40  C   UNL     1      -7.158  17.233  68.430  1.00  0.00    -0.209 A  
HETATM   41  O   UNL     1      -5.686  20.385  69.295  1.00  0.00    -0.276 OA 
HETATM   42  C   UNL     1      -6.551  18.486  68.280  1.00  0.00    -0.218 A  
HETATM   43  C   UNL     1      -6.271  18.991  67.005  1.00  0.00    -0.182 A  
HETATM   44  N   UNL     1      -6.224  19.282  69.471  1.00  0.00    -0.279 N  
HETATM   45  C   UNL     1      -7.176  16.972  66.021  1.00  0.00    -0.054 A  
ENDBRANCH  12  37
ENDBRANCH   3   5
ENDBRANCH   2   3
TORSDOF 11
ENDMDL
MODEL      285
REMARK 921   NORMALIZED FREE ENERGY PREDICTED BY IDOCK:   20.97 KCAL/MOL
REMARK 922        TOTAL FREE ENERGY PREDICTED BY IDOCK:   32.59 KCAL/MOL
REMARK 923 INTER-LIGAND FREE ENERGY PREDICTED BY IDOCK:   18.48 KCAL/MOL
REMARK 924 INTRA-LIGAND FREE ENERGY PREDICTED BY IDOCK:   14.11 KCAL/MOL
REMARK 927      BINDING AFFINITY PREDICTED BY RF-SCORE:    0.00 PKD
ROOT
HETATM    1  C   UNL     1     -12.045   3.635  66.605  1.00  0.00    12.005 C  
HETATM    2  O   UNL     1     -11.905   5.020  66.277  1.00  0.00     1.765 OA 
ENDROOT
BRANCH   2   3
HETATM    3  C   UNL     1     -10.697   5.536  66.619  1.00  0.00    -0.261 C  
HETATM    4  O   UNL     1      -9.683   5.447  65.939  1.00  0.00    -0.144 OA 
BRANCH   3   5
HETATM    5  C   UNL     1     -10.763   6.187  67.954  1.00  0.00    -0.374 C  
HETATM    6  C   UNL     1     -11.443   7.349  68.139  1.00  0.00     0.795 C  
HETATM    7  N   UNL     1     -11.443   7.950  69.389  1.00  0.00     0.342 NA 
HETATM    8  C   UNL     1     -12.226   8.118  67.106  1.00  0.00     6.535 C  
HETATM    9  C   UNL     1     -10.636   7.573  70.441  1.00  0.00    -0.229 C  
HETATM   10  C   UNL     1     -10.587   8.522  71.615  1.00  0.00    -0.353 C  
HETATM   11  C   UNL     1      -9.930   6.422  70.358  1.00  0.00    -0.213 C  
HETATM   12  C   UNL     1     -10.006   5.527  69.116  1.00  0.00    -0.256 C  
BRANCH  11  13
HETATM   13  C   UNL     1      -8.951   6.098  71.416  1.00  0.00    -0.143 C  
HETATM   14  O   UNL     1      -9.266   5.740  72.542  1.00  0.00    -0.143 OA 
BRANCH  13  15
HETATM   15  O   UNL     1      -7.677   6.278  70.978  1.00  0.00    -0.100 OA 
BRANCH  15  16
HETATM   16  C   UNL     1      -7.479   7.550  70.328  1.00  0.00    -0.085 C  
BRANCH  16  17
HETATM   17  C   UNL     1      -7.183   7.319  68.837  1.00  0.00    -0.090 C  
BRANCH  17  18
HETATM   18  N   UNL     1      -6.963   8.524  68.018  1.00  0.00    -0.073 NA 
HETATM   19  C   UNL     1      -9.241   8.664  66.866  1.00  0.00    -0.159 C  
HETATM   20  C   UNL     1      -7.705   8.491  66.738  1.00  0.00    -0.091 C  
HETATM   21  N   UNL     1      -9.654   9.903  67.573  1.00  0.00    -0.154 NA 
HETATM   22  C   UNL     1      -7.399   9.719  68.786  1.00  0.00    -0.074 C  
HETATM   23  C   UNL     1      -8.938   9.910  68.876  1.00  0.00    -0.153 C  
BRANCH  21  24
HETATM   24  C   UNL     1      -9.372  11.128  66.763  1.00  0.00    -0.177 C  
BRANCH  24  25
HETATM   25  C   UNL     1      -9.517  10.902  65.248  1.00  0.00    -0.257 A  
HETATM   26  C   UNL     1     -10.683  10.292  64.744  1.00  0.00     0.513 A  
HETATM   27  C   UNL     1      -8.548  11.326  64.325  1.00  0.00     0.387 A  
HETATM   28  C   UNL     1     -10.864  10.106  63.371  1.00  0.00     2.228 A  
HETATM   29  C   UNL     1      -9.879  10.512  62.475  1.00  0.00    -0.049 A  
HETATM   30  C   UNL     1      -8.721  11.120  62.952  1.00  0.00    -0.170 A  
ENDBRANCH  24  25
BRANCH  24  31
HETATM   31  C   UNL     1     -10.165  12.348  67.256  1.00  0.00    -0.224 A  
HETATM   32  C   UNL     1     -11.846  14.407  68.176  1.00  0.00    -0.362 A  
HETATM   33  C   UNL     1     -11.494  14.344  66.831  1.00  0.00    -0.379 A  
HETATM   34  C   UNL     1     -10.514  12.441  68.616  1.00  0.00    -0.224 A  
HETATM   35  C   UNL     1     -10.663  13.320  66.372  1.00  0.00    -0.291 A  
HETATM   36  C   UNL     1     -11.356  13.457  69.069  1.00  0.00    -0.335 A  
ENDBRANCH  24  31
ENDBRANCH  21  24
ENDBRANCH  17  18
ENDBRANCH  16  17
ENDBRANCH  15  16
ENDBRANCH  13  15
ENDBRANCH  11  13
BRANCH  12  37
HETATM   37  C   UNL     1      -8.605   5.039  68.713  1.00  0.00    -0.090 A  
HETATM   38  C   UNL     1      -6.356   4.332  69.307  1.00  0.00    -0.029 A  
HETATM   39  O   UNL     1      -7.782   3.878  64.814  1.00  0.00    -0.079 OA 
HETATM   40  C   UNL     1      -8.357   4.662  67.378  1.00  0.00    -0.104 A  
HETATM   41  O   UNL     1      -5.755   3.245  65.360  1.00  0.00    -0.017 OA 
HETATM   42  C   UNL     1      -7.114   4.121  67.024  1.00  0.00    -0.067 A  
HETATM   43  C   UNL     1      -6.115   3.945  67.988  1.00  0.00    -0.032 A  
HETATM   44  N   UNL     1      -6.867   3.718  65.632  1.00  0.00    -0.055 N  
HETATM   45  C   UNL     1      -7.587   4.885  69.666  1.00  0.00    -0.056 A  
ENDBRANCH  12  37
ENDBRANCH   3   5
ENDBRANCH   2   3
TORSDOF 11
ENDMDL
MODEL      286
REMARK 921   NORMALIZED FREE ENERGY PREDICTED BY IDOCK:   23.14 KCAL/MOL
REMARK 922        TOTAL FREE ENERGY PREDICTED BY IDOCK:   36.16 KCAL/MOL
REMARK 923 INTER-LIGAND FREE ENERGY PREDICTED BY IDOCK:   11.27 KCAL/MOL
REMARK 924 INTRA-LIGAND FREE ENERGY PREDICTED BY IDOCK:   24.89 KCAL/MOL
REMARK 927      BINDING AFFINITY PREDICTED BY RF-SCORE:    0.00 PKD
ROOT
HETATM    1  C   UNL     1      -7.184  12.731  68.034  1.00  0.00    -0.115 C  
HETATM    2  O   UNL     1      -8.315  13.270  68.724  1.00  0.00    -0.045 OA 
ENDROOT
BRANCH   2   3
HETATM    3  C   UNL     1      -9.503  12.889  68.190  1.00  0.00    -0.218 C  
HETATM    4  O   UNL     1     -10.345  13.657  67.742  1.00  0.00    -0.235 OA 
BRANCH   3   5
HETATM    5  C   UNL     1      -9.661  11.413  68.262  1.00  0.00    -0.202 C  
HETATM    6  C   UNL     1      -8.796  10.644  68.975  1.00  0.00    -0.148 C  
HETATM    7  N   UNL     1      -8.950   9.265  68.980  1.00  0.00    -0.138 NA 
HETATM    8  C   UNL     1      -7.621  11.118  69.792  1.00  0.00     0.300 C  
HETATM    9  C   UNL     1      -9.802   8.568  68.151  1.00  0.00    -0.165 C  
HETATM   10  C   UNL     1      -9.619   7.069  68.118  1.00  0.00    -0.131 C  
HETATM   11  C   UNL     1     -10.711   9.243  67.412  1.00  0.00    -0.263 C  
HETATM   12  C   UNL     1     -10.813  10.772  67.473  1.00  0.00    -0.342 C  
BRANCH  11  13
HETATM   13  C   UNL     1     -11.516   8.511  66.412  1.00  0.00     3.516 C  
HETATM   14  O   UNL     1     -12.658   8.821  66.105  1.00  0.00    10.049 OA 
BRANCH  13  15
HETATM   15  O   UNL     1     -10.831   7.449  65.913  1.00  0.00     1.593 OA 
BRANCH  15  16
HETATM   16  C   UNL     1     -11.562   6.209  66.013  1.00  0.00     2.163 C  
BRANCH  16  17
HETATM   17  C   UNL     1     -10.568   5.038  66.093  1.00  0.00    -0.265 C  
BRANCH  17  18
HETATM   18  N   UNL     1      -9.378   5.245  66.935  1.00  0.00    -0.123 NA 
HETATM   19  C   UNL     1     -10.524   5.600  69.193  1.00  0.00    -0.269 C  
HETATM   20  C   UNL     1      -9.627   6.171  68.063  1.00  0.00    -0.115 C  
HETATM   21  N   UNL     1     -10.026   4.329  69.778  1.00  0.00    -0.186 NA 
HETATM   22  C   UNL     1      -8.939   3.937  67.485  1.00  0.00    -0.134 C  
HETATM   23  C   UNL     1      -9.817   3.390  68.644  1.00  0.00     0.236 C  
BRANCH  21  24
HETATM   24  C   UNL     1      -8.782   4.535  70.582  1.00  0.00    -0.095 C  
BRANCH  24  25
HETATM   25  C   UNL     1      -7.513   4.017  69.882  1.00  0.00    -0.049 A  
HETATM   26  C   UNL     1      -6.616   4.935  69.299  1.00  0.00    -0.040 A  
HETATM   27  C   UNL     1      -7.177   2.655  69.838  1.00  0.00    -0.040 A  
HETATM   28  C   UNL     1      -5.436   4.501  68.690  1.00  0.00    -0.012 A  
HETATM   29  C   UNL     1      -5.135   3.144  68.636  1.00  0.00    -0.011 A  
HETATM   30  C   UNL     1      -6.007   2.221  69.208  1.00  0.00    -0.024 A  
ENDBRANCH  24  25
BRANCH  24  31
HETATM   31  C   UNL     1      -8.637   5.985  71.069  1.00  0.00    -0.131 A  
HETATM   32  C   UNL     1      -8.255   8.531  72.203  1.00  0.00    -0.175 A  
HETATM   33  C   UNL     1      -9.525   7.961  72.181  1.00  0.00    -0.234 A  
HETATM   34  C   UNL     1      -7.365   6.586  71.081  1.00  0.00    -0.080 A  
HETATM   35  C   UNL     1      -9.715   6.696  71.623  1.00  0.00    -0.170 A  
HETATM   36  C   UNL     1      -7.175   7.845  71.652  1.00  0.00    -0.069 A  
ENDBRANCH  24  31
ENDBRANCH  21  24
ENDBRANCH  17  18
ENDBRANCH  16  17
ENDBRANCH  15  16
ENDBRANCH  13  15
ENDBRANCH  11  13
BRANCH  12  37
HETATM   37  C   UNL     1     -10.969  11.362  66.063  1.00  0.00    -0.286 A  
HETATM   38  C   UNL     1     -10.917  11.114  63.644  1.00  0.00    -0.237 A  
HETATM   39  O   UNL     1     -12.572  15.148  65.492  1.00  0.00     0.269 OA 
HETATM   40  C   UNL     1     -11.508  12.655  65.904  1.00  0.00    -0.407 A  
HETATM   41  O   UNL     1     -12.518  14.915  63.312  1.00  0.00    -0.125 OA 
HETATM   42  C   UNL     1     -11.748  13.160  64.620  1.00  0.00    -0.361 A  
HETATM   43  C   UNL     1     -11.463  12.389  63.488  1.00  0.00    -0.561 A  
HETATM   44  N   UNL     1     -12.322  14.505  64.464  1.00  0.00    -0.459 N  
HETATM   45  C   UNL     1     -10.661  10.608  64.921  1.00  0.00    -0.192 A  
ENDBRANCH  12  37
ENDBRANCH   3   5
ENDBRANCH   2   3
TORSDOF 11
ENDMDL
MODEL      287
REMARK 921   NORMALIZED FREE ENERGY PREDICTED BY IDOCK:   23.24 KCAL/MOL
REMARK 922        TOTAL FREE ENERGY PREDICTED BY IDOCK:   36.33 KCAL/MOL
REMARK 923 INTER-LIGAND FREE ENERGY PREDICTED BY IDOCK:   33.66 KCAL/MOL
REMARK 924 INTRA-LIGAND FREE ENERGY PREDICTED BY IDOCK:    2.67 KCAL/MOL
REMARK 927      BINDING AFFINITY PREDICTED BY RF-SCORE:    0.00 PKD
ROOT
HETATM    1  C   UNL     1      -9.173  17.163  72.164  1.00  0.00    11.961 C  
HETATM    2  O   UNL     1      -8.032  17.411  71.338  1.00  0.00     7.202 OA 
ENDROOT
BRANCH   2   3
HETATM    3  C   UNL     1      -7.044  16.494  71.495  1.00  0.00     5.207 C  
HETATM    4  O   UNL     1      -6.089  16.619  72.251  1.00  0.00     2.016 OA 
BRANCH   3   5
HETATM    5  C   UNL     1      -7.257  15.333  70.591  1.00  0.00     0.840 C  
HETATM    6  C   UNL     1      -6.438  14.249  70.628  1.00  0.00     0.017 C  
HETATM    7  N   UNL     1      -6.641  13.206  69.737  1.00  0.00    -0.006 NA 
HETATM    8  C   UNL     1      -5.267  14.027  71.552  1.00  0.00    -0.180 C  
HETATM    9  C   UNL     1      -7.497  13.253  68.657  1.00  0.00    -0.099 C  
HETATM   10  C   UNL     1      -7.367  12.128  67.657  1.00  0.00    -0.122 C  
HETATM   11  C   UNL     1      -8.362  14.285  68.539  1.00  0.00    -0.156 C  
HETATM   12  C   UNL     1      -8.411  15.409  69.580  1.00  0.00    -0.204 C  
BRANCH  11  13
HETATM   13  C   UNL     1      -9.169  14.413  67.307  1.00  0.00    -0.209 C  
HETATM   14  O   UNL     1      -8.688  14.620  66.202  1.00  0.00     0.004 OA 
BRANCH  13  15
HETATM   15  O   UNL     1     -10.496  14.299  67.575  1.00  0.00    -0.250 OA 
BRANCH  15  16
HETATM   16  C   UNL     1     -11.329  14.589  66.434  1.00  0.00    -0.349 C  
BRANCH  16  17
HETATM   17  C   UNL     1     -12.656  13.823  66.564  1.00  0.00    -0.194 C  
BRANCH  17  18
HETATM   18  N   UNL     1     -12.746  12.543  65.841  1.00  0.00    -0.196 NA 
HETATM   19  C   UNL     1     -10.294  11.828  65.953  1.00  0.00    -0.241 C  
HETATM   20  C   UNL     1     -11.516  12.224  65.082  1.00  0.00    -0.341 C  
HETATM   21  N   UNL     1     -10.547  10.686  66.868  1.00  0.00    -0.257 NA 
HETATM   22  C   UNL     1     -12.997  11.451  66.816  1.00  0.00     5.917 C  
HETATM   23  C   UNL     1     -11.760  11.031  67.656  1.00  0.00    -0.015 C  
BRANCH  21  24
HETATM   24  C   UNL     1     -10.700   9.398  66.123  1.00  0.00     0.429 C  
BRANCH  24  25
HETATM   25  C   UNL     1      -9.595   9.166  65.077  1.00  0.00     0.095 A  
HETATM   26  C   UNL     1      -8.252   9.425  65.414  1.00  0.00    -0.126 A  
HETATM   27  C   UNL     1      -9.863   8.653  63.797  1.00  0.00     3.184 A  
HETATM   28  C   UNL     1      -7.220   9.189  64.501  1.00  0.00    -0.098 A  
HETATM   29  C   UNL     1      -7.511   8.704  63.230  1.00  0.00    -0.106 A  
HETATM   30  C   UNL     1      -8.832   8.439  62.877  1.00  0.00     0.310 A  
ENDBRANCH  24  25
BRANCH  24  31
HETATM   31  C   UNL     1     -10.882   8.199  67.066  1.00  0.00    -0.086 A  
HETATM   32  C   UNL     1     -10.928   6.004  68.825  1.00  0.00    -0.384 A  
HETATM   33  C   UNL     1     -11.086   5.803  67.456  1.00  0.00     0.040 A  
HETATM   34  C   UNL     1     -10.745   8.384  68.454  1.00  0.00    -0.076 A  
HETATM   35  C   UNL     1     -11.059   6.891  66.582  1.00  0.00     0.158 A  
HETATM   36  C   UNL     1     -10.759   7.293  69.324  1.00  0.00    -0.212 A  
ENDBRANCH  24  31
ENDBRANCH  21  24
ENDBRANCH  17  18
ENDBRANCH  16  17
ENDBRANCH  15  16
ENDBRANCH  13  15
ENDBRANCH  11  13
BRANCH  12  37
HETATM   37  C   UNL     1      -8.511  16.780  68.892  1.00  0.00    -0.217 A  
HETATM   38  C   UNL     1      -7.458  18.748  67.926  1.00  0.00    -0.262 A  
HETATM   39  O   UNL     1     -12.135  18.185  67.435  1.00  0.00     2.155 OA 
HETATM   40  C   UNL     1      -9.759  17.232  68.417  1.00  0.00    -0.293 A  
HETATM   41  O   UNL     1     -11.176  19.957  66.569  1.00  0.00    -0.125 OA 
HETATM   42  C   UNL     1      -9.842  18.433  67.701  1.00  0.00    -0.313 A  
HETATM   43  C   UNL     1      -8.692  19.188  67.444  1.00  0.00    -0.317 A  
HETATM   44  N   UNL     1     -11.145  18.890  67.198  1.00  0.00    -0.190 N  
HETATM   45  C   UNL     1      -7.369  17.560  68.654  1.00  0.00    -0.256 A  
ENDBRANCH  12  37
ENDBRANCH   3   5
ENDBRANCH   2   3
TORSDOF 11
ENDMDL
MODEL      288
REMARK 921   NORMALIZED FREE ENERGY PREDICTED BY IDOCK:   23.99 KCAL/MOL
REMARK 922        TOTAL FREE ENERGY PREDICTED BY IDOCK:   37.56 KCAL/MOL
REMARK 923 INTER-LIGAND FREE ENERGY PREDICTED BY IDOCK:   19.95 KCAL/MOL
REMARK 924 INTRA-LIGAND FREE ENERGY PREDICTED BY IDOCK:   17.61 KCAL/MOL
REMARK 927      BINDING AFFINITY PREDICTED BY RF-SCORE:    0.00 PKD
ROOT
HETATM    1  C   UNL     1      -6.130  16.374  68.316  1.00  0.00    -0.117 C  
HETATM    2  O   UNL     1      -5.837  15.757  67.059  1.00  0.00    -0.316 OA 
ENDROOT
BRANCH   2   3
HETATM    3  C   UNL     1      -6.853  14.990  66.586  1.00  0.00     1.510 C  
HETATM    4  O   UNL     1      -7.778  15.404  65.900  1.00  0.00     1.140 OA 
BRANCH   3   5
HETATM    5  C   UNL     1      -6.710  13.586  67.052  1.00  0.00     0.691 C  
HETATM    6  C   UNL     1      -6.737  12.546  66.178  1.00  0.00     2.226 C  
HETATM    7  N   UNL     1      -6.647  11.246  66.656  1.00  0.00    -0.140 NA 
HETATM    8  C   UNL     1      -6.874  12.623  64.678  1.00  0.00     8.987 C  
HETATM    9  C   UNL     1      -6.732  10.892  67.985  1.00  0.00    -0.063 C  
HETATM   10  C   UNL     1      -6.891   9.418  68.272  1.00  0.00    -0.063 C  
HETATM   11  C   UNL     1      -6.697  11.856  68.933  1.00  0.00    -0.095 C  
HETATM   12  C   UNL     1      -6.569  13.337  68.561  1.00  0.00    -0.089 C  
BRANCH  11  13
HETATM   13  C   UNL     1      -6.942  11.490  70.344  1.00  0.00     1.088 C  
HETATM   14  O   UNL     1      -6.264  11.897  71.276  1.00  0.00     0.155 OA 
BRANCH  13  15
HETATM   15  O   UNL     1      -7.990  10.631  70.453  1.00  0.00     0.271 OA 
BRANCH  15  16
HETATM   16  C   UNL     1      -7.698   9.488  71.284  1.00  0.00     0.363 C  
BRANCH  16  17
HETATM   17  C   UNL     1      -6.176   9.276  71.342  1.00  0.00    -0.066 C  
BRANCH  17  18
HETATM   18  N   UNL     1      -5.626   8.232  70.460  1.00  0.00    -0.028 NA 
HETATM   19  C   UNL     1      -7.509   6.510  70.632  1.00  0.00    -0.080 C  
HETATM   20  C   UNL     1      -6.019   6.866  70.875  1.00  0.00    -0.031 C  
HETATM   21  N   UNL     1      -7.950   6.678  69.224  1.00  0.00    -0.110 NA 
HETATM   22  C   UNL     1      -6.110   8.462  69.075  1.00  0.00    -0.043 C  
HETATM   23  C   UNL     1      -7.591   8.066  68.827  1.00  0.00    -0.103 C  
BRANCH  21  24
HETATM   24  C   UNL     1      -7.340   5.653  68.322  1.00  0.00    -0.076 C  
BRANCH  24  25
HETATM   25  C   UNL     1      -7.718   4.210  68.699  1.00  0.00    -0.062 A  
HETATM   26  C   UNL     1      -6.773   3.177  68.535  1.00  0.00    -0.044 A  
HETATM   27  C   UNL     1      -8.964   3.876  69.253  1.00  0.00    -0.175 A  
HETATM   28  C   UNL     1      -7.071   1.862  68.902  1.00  0.00    -0.039 A  
HETATM   29  C   UNL     1      -8.321   1.549  69.427  1.00  0.00    -0.068 A  
HETATM   30  C   UNL     1      -9.268   2.555  69.600  1.00  0.00    -0.195 A  
ENDBRANCH  24  25
BRANCH  24  31
HETATM   31  C   UNL     1      -7.590   5.960  66.838  1.00  0.00    -0.099 A  
HETATM   32  C   UNL     1      -8.325   6.452  64.168  1.00  0.00     0.102 A  
HETATM   33  C   UNL     1      -7.638   5.286  64.498  1.00  0.00    -0.077 A  
HETATM   34  C   UNL     1      -8.265   7.142  66.481  1.00  0.00    -0.117 A  
HETATM   35  C   UNL     1      -7.277   5.039  65.824  1.00  0.00    -0.072 A  
HETATM   36  C   UNL     1      -8.637   7.380  65.158  1.00  0.00     0.034 A  
ENDBRANCH  24  31
ENDBRANCH  21  24
ENDBRANCH  17  18
ENDBRANCH  16  17
ENDBRANCH  15  16
ENDBRANCH  13  15
ENDBRANCH  11  13
BRANCH  12  37
HETATM   37  C   UNL     1      -7.534  14.192  69.398  1.00  0.00     0.080 A  
HETATM   38  C   UNL     1      -7.988  16.147  70.770  1.00  0.00     3.223 A  
HETATM   39  O   UNL     1     -11.613  13.418  69.414  1.00  0.00    -0.279 OA 
HETATM   40  C   UNL     1      -8.913  13.896  69.389  1.00  0.00     0.708 A  
HETATM   41  O   UNL     1     -12.011  15.183  70.653  1.00  0.00    -0.276 OA 
HETATM   42  C   UNL     1      -9.812  14.729  70.066  1.00  0.00     0.354 A  
HETATM   43  C   UNL     1      -9.354  15.862  70.750  1.00  0.00     2.066 A  
HETATM   44  N   UNL     1     -11.249  14.421  70.041  1.00  0.00    -0.193 N  
HETATM   45  C   UNL     1      -7.083  15.313  70.110  1.00  0.00     0.074 A  
ENDBRANCH  12  37
ENDBRANCH   3   5
ENDBRANCH   2   3
TORSDOF 11
ENDMDL
MODEL      289
REMARK 921   NORMALIZED FREE ENERGY PREDICTED BY IDOCK:   25.92 KCAL/MOL
REMARK 922        TOTAL FREE ENERGY PREDICTED BY IDOCK:   40.73 KCAL/MOL
REMARK 923 INTER-LIGAND FREE ENERGY PREDICTED BY IDOCK:   -2.59 KCAL/MOL
REMARK 924 INTRA-LIGAND FREE ENERGY PREDICTED BY IDOCK:   43.31 KCAL/MOL
REMARK 927      BINDING AFFINITY PREDICTED BY RF-SCORE:    0.00 PKD
ROOT
HETATM    1  C   UNL     1      -6.311   8.190  69.090  1.00  0.00    -0.039 C  
HETATM    2  O   UNL     1      -5.895   9.353  69.809  1.00  0.00    -0.035 OA 
ENDROOT
BRANCH   2   3
HETATM    3  C   UNL     1      -6.461  10.500  69.353  1.00  0.00    -0.062 C  
HETATM    4  O   UNL     1      -5.855  11.542  69.144  1.00  0.00    -0.045 OA 
BRANCH   3   5
HETATM    5  C   UNL     1      -7.928  10.328  69.181  1.00  0.00    -0.135 C  
HETATM    6  C   UNL     1      -8.769  11.395  69.185  1.00  0.00     0.202 C  
HETATM    7  N   UNL     1     -10.136  11.190  69.068  1.00  0.00    -0.189 NA 
HETATM    8  C   UNL     1      -8.391  12.849  69.319  1.00  0.00     0.817 C  
HETATM    9  C   UNL     1     -10.754   9.961  69.149  1.00  0.00    -0.224 C  
HETATM   10  C   UNL     1     -12.260   9.981  69.277  1.00  0.00     0.507 C  
HETATM   11  C   UNL     1     -10.003   8.837  69.137  1.00  0.00    -0.193 C  
HETATM   12  C   UNL     1      -8.475   8.899  69.039  1.00  0.00    -0.133 C  
BRANCH  11  13
HETATM   13  C   UNL     1     -10.653   7.532  69.377  1.00  0.00    -0.223 C  
HETATM   14  O   UNL     1     -11.699   7.401  69.997  1.00  0.00    -0.083 OA 
BRANCH  13  15
HETATM   15  O   UNL     1      -9.924   6.515  68.847  1.00  0.00    -0.145 OA 
BRANCH  15  16
HETATM   16  C   UNL     1      -8.603   6.411  69.416  1.00  0.00    -0.130 C  
BRANCH  16  17
HETATM   17  C   UNL     1      -7.556   6.722  68.334  1.00  0.00    -0.104 C  
BRANCH  17  18
HETATM   18  N   UNL     1      -7.997   6.580  66.936  1.00  0.00    -0.110 NA 
HETATM   19  C   UNL     1      -5.718   6.601  65.778  1.00  0.00    -0.026 C  
HETATM   20  C   UNL     1      -7.103   7.270  65.979  1.00  0.00    -0.066 C  
HETATM   21  N   UNL     1      -5.788   5.179  65.356  1.00  0.00    -0.017 NA 
HETATM   22  C   UNL     1      -8.041   5.137  66.585  1.00  0.00    -0.108 C  
HETATM   23  C   UNL     1      -6.653   4.482  66.344  1.00  0.00    -0.046 C  
BRANCH  21  24
HETATM   24  C   UNL     1      -6.295   5.037  63.956  1.00  0.00    -0.022 C  
BRANCH  24  25
HETATM   25  C   UNL     1      -7.462   4.042  63.830  1.00  0.00    -0.062 A  
HETATM   26  C   UNL     1      -7.197   2.692  63.526  1.00  0.00    -0.048 A  
HETATM   27  C   UNL     1      -8.798   4.412  64.055  1.00  0.00    -0.142 A  
HETATM   28  C   UNL     1      -8.229   1.755  63.442  1.00  0.00    -0.065 A  
HETATM   29  C   UNL     1      -9.549   2.149  63.644  1.00  0.00    -0.118 A  
HETATM   30  C   UNL     1      -9.833   3.478  63.949  1.00  0.00    -0.171 A  
ENDBRANCH  24  25
BRANCH  24  31
HETATM   31  C   UNL     1      -6.606   6.395  63.308  1.00  0.00    -0.036 A  
HETATM   32  C   UNL     1      -7.119   9.001  62.381  1.00  0.00    -0.098 A  
HETATM   33  C   UNL     1      -8.176   8.134  62.645  1.00  0.00    -0.142 A  
HETATM   34  C   UNL     1      -5.550   7.278  63.015  1.00  0.00    -0.041 A  
HETATM   35  C   UNL     1      -7.923   6.842  63.110  1.00  0.00    -0.069 A  
HETATM   36  C   UNL     1      -5.807   8.574  62.564  1.00  0.00    -0.083 A  
ENDBRANCH  24  31
ENDBRANCH  21  24
ENDBRANCH  17  18
ENDBRANCH  16  17
ENDBRANCH  15  16
ENDBRANCH  13  15
ENDBRANCH  11  13
BRANCH  12  37
HETATM   37  C   UNL     1      -7.828   7.913  70.025  1.00  0.00    -0.105 A  
HETATM   38  C   UNL     1      -6.194   6.184  70.526  1.00  0.00    -0.035 A  
HETATM   39  O   UNL     1      -8.699   8.060  74.081  1.00  0.00    -0.258 OA 
HETATM   40  C   UNL     1      -8.153   7.984  71.395  1.00  0.00    -0.118 A  
HETATM   41  O   UNL     1      -7.223   6.498  74.522  1.00  0.00    -0.098 OA 
HETATM   42  C   UNL     1      -7.493   7.158  72.313  1.00  0.00    -0.084 A  
HETATM   43  C   UNL     1      -6.506   6.264  71.885  1.00  0.00    -0.050 A  
HETATM   44  N   UNL     1      -7.829   7.247  73.742  1.00  0.00    -0.105 N  
HETATM   45  C   UNL     1      -6.857   6.993  69.602  1.00  0.00    -0.050 A  
ENDBRANCH  12  37
ENDBRANCH   3   5
ENDBRANCH   2   3
TORSDOF 11
ENDMDL
MODEL      290
REMARK 921   NORMALIZED FREE ENERGY PREDICTED BY IDOCK:   26.42 KCAL/MOL
REMARK 922        TOTAL FREE ENERGY PREDICTED BY IDOCK:   41.55 KCAL/MOL
REMARK 923 INTER-LIGAND FREE ENERGY PREDICTED BY IDOCK:   27.60 KCAL/MOL
REMARK 924 INTRA-LIGAND FREE ENERGY PREDICTED BY IDOCK:   13.94 KCAL/MOL
REMARK 927      BINDING AFFINITY PREDICTED BY RF-SCORE:    0.00 PKD
ROOT
HETATM    1  C   UNL     1     -11.755   4.527  67.069  1.00  0.00     5.898 C  
HETATM    2  O   UNL     1     -11.938   5.923  66.818  1.00  0.00     1.391 OA 
ENDROOT
BRANCH   2   3
HETATM    3  C   UNL     1     -10.917   6.691  67.275  1.00  0.00    -0.385 C  
HETATM    4  O   UNL     1      -9.877   6.904  66.666  1.00  0.00    -0.181 OA 
BRANCH   3   5
HETATM    5  C   UNL     1     -11.217   7.205  68.638  1.00  0.00     0.085 C  
HETATM    6  C   UNL     1     -12.206   8.112  68.849  1.00  0.00     3.185 C  
HETATM    7  N   UNL     1     -12.424   8.602  70.128  1.00  0.00     0.750 NA 
HETATM    8  C   UNL     1     -13.137   8.697  67.817  1.00  0.00    14.199 C  
HETATM    9  C   UNL     1     -11.583   8.398  71.200  1.00  0.00    -0.279 C  
HETATM   10  C   UNL     1     -11.851   9.240  72.426  1.00  0.00     0.023 C  
HETATM   11  C   UNL     1     -10.576   7.502  71.094  1.00  0.00    -0.234 C  
HETATM   12  C   UNL     1     -10.347   6.708  69.803  1.00  0.00    -0.226 C  
BRANCH  11  13
HETATM   13  C   UNL     1      -9.585   7.396  72.185  1.00  0.00    -0.146 C  
HETATM   14  O   UNL     1      -9.868   7.057  73.325  1.00  0.00    -0.176 OA 
BRANCH  13  15
HETATM   15  O   UNL     1      -8.344   7.749  71.758  1.00  0.00    -0.103 OA 
BRANCH  15  16
HETATM   16  C   UNL     1      -8.327   9.008  71.054  1.00  0.00    -0.189 C  
BRANCH  16  17
HETATM   17  C   UNL     1      -7.020   9.126  70.253  1.00  0.00    -0.059 C  
BRANCH  17  18
HETATM   18  N   UNL     1      -6.832  10.368  69.484  1.00  0.00    -0.079 NA 
HETATM   19  C   UNL     1      -7.649   9.568  67.197  1.00  0.00    -0.091 C  
HETATM   20  C   UNL     1      -6.488  10.119  68.066  1.00  0.00    -0.058 C  
HETATM   21  N   UNL     1      -8.866  10.418  67.204  1.00  0.00    -0.136 NA 
HETATM   22  C   UNL     1      -8.086  11.163  69.533  1.00  0.00     0.297 C  
HETATM   23  C   UNL     1      -9.232  10.630  68.629  1.00  0.00    -0.181 C  
BRANCH  21  24
HETATM   24  C   UNL     1      -8.651  11.705  66.474  1.00  0.00    -0.164 C  
BRANCH  24  25
HETATM   25  C   UNL     1      -7.743  11.561  65.241  1.00  0.00     0.977 A  
HETATM   26  C   UNL     1      -6.364  11.829  65.356  1.00  0.00     2.067 A  
HETATM   27  C   UNL     1      -8.222  11.122  63.996  1.00  0.00     0.507 A  
HETATM   28  C   UNL     1      -5.504  11.672  64.266  1.00  0.00     2.330 A  
HETATM   29  C   UNL     1      -6.006  11.258  63.035  1.00  0.00     0.672 A  
HETATM   30  C   UNL     1      -7.365  10.986  62.900  1.00  0.00     0.313 A  
ENDBRANCH  24  25
BRANCH  24  31
HETATM   31  C   UNL     1      -9.972  12.421  66.153  1.00  0.00    -0.267 A  
HETATM   32  C   UNL     1     -12.382  13.837  65.834  1.00  0.00    -0.516 A  
HETATM   33  C   UNL     1     -12.405  12.460  66.038  1.00  0.00     0.041 A  
HETATM   34  C   UNL     1      -9.968  13.809  65.925  1.00  0.00    -0.308 A  
HETATM   35  C   UNL     1     -11.210  11.757  66.201  1.00  0.00    -0.363 A  
HETATM   36  C   UNL     1     -11.165  14.511  65.776  1.00  0.00    -0.334 A  
ENDBRANCH  24  31
ENDBRANCH  21  24
ENDBRANCH  17  18
ENDBRANCH  16  17
ENDBRANCH  15  16
ENDBRANCH  13  15
ENDBRANCH  11  13
BRANCH  12  37
HETATM   37  C   UNL     1      -8.850   6.665  69.452  1.00  0.00    -0.134 A  
HETATM   38  C   UNL     1      -6.516   6.621  70.129  1.00  0.00    -0.040 A  
HETATM   39  O   UNL     1      -7.584   5.937  65.566  1.00  0.00    -0.079 OA 
HETATM   40  C   UNL     1      -8.454   6.425  68.120  1.00  0.00    -0.115 A  
HETATM   41  O   UNL     1      -5.481   5.902  66.188  1.00  0.00    -0.012 OA 
HETATM   42  C   UNL     1      -7.096   6.283  67.810  1.00  0.00    -0.081 A  
HETATM   43  C   UNL     1      -6.124   6.370  68.813  1.00  0.00    -0.029 A  
HETATM   44  N   UNL     1      -6.692   6.021  66.421  1.00  0.00    -0.058 N  
HETATM   45  C   UNL     1      -7.867   6.779  70.445  1.00  0.00    -0.109 A  
ENDBRANCH  12  37
ENDBRANCH   3   5
ENDBRANCH   2   3
TORSDOF 11
ENDMDL
MODEL      291
REMARK 921   NORMALIZED FREE ENERGY PREDICTED BY IDOCK:   29.87 KCAL/MOL
REMARK 922        TOTAL FREE ENERGY PREDICTED BY IDOCK:   47.21 KCAL/MOL
REMARK 923 INTER-LIGAND FREE ENERGY PREDICTED BY IDOCK:   11.15 KCAL/MOL
REMARK 924 INTRA-LIGAND FREE ENERGY PREDICTED BY IDOCK:   36.07 KCAL/MOL
REMARK 927      BINDING AFFINITY PREDICTED BY RF-SCORE:    0.00 PKD
ROOT
HETATM    1  C   UNL     1     -10.588  13.973  65.081  1.00  0.00    -0.386 C  
HETATM    2  O   UNL     1     -11.368  14.614  66.095  1.00  0.00    -0.344 OA 
ENDROOT
BRANCH   2   3
HETATM    3  C   UNL     1     -12.548  13.991  66.341  1.00  0.00    -0.245 C  
HETATM    4  O   UNL     1     -13.606  14.255  65.784  1.00  0.00    -0.228 OA 
BRANCH   3   5
HETATM    5  C   UNL     1     -12.390  12.972  67.412  1.00  0.00     0.060 C  
HETATM    6  C   UNL     1     -12.113  13.331  68.693  1.00  0.00    -0.222 C  
HETATM    7  N   UNL     1     -11.927  12.348  69.654  1.00  0.00    -0.298 NA 
HETATM    8  C   UNL     1     -11.960  14.731  69.231  1.00  0.00    -0.329 C  
HETATM    9  C   UNL     1     -11.800  11.003  69.385  1.00  0.00    -0.335 C  
HETATM   10  C   UNL     1     -11.328  10.138  70.531  1.00  0.00    -0.416 C  
HETATM   11  C   UNL     1     -12.069  10.544  68.142  1.00  0.00     0.824 C  
HETATM   12  C   UNL     1     -12.511  11.491  67.021  1.00  0.00     2.133 C  
BRANCH  11  13
HETATM   13  C   UNL     1     -11.784   9.131  67.816  1.00  0.00     2.223 C  
HETATM   14  O   UNL     1     -11.580   8.727  66.681  1.00  0.00     1.967 OA 
BRANCH  13  15
HETATM   15  O   UNL     1     -11.808   8.356  68.932  1.00  0.00     1.282 OA 
BRANCH  15  16
HETATM   16  C   UNL     1     -11.183   8.985  70.070  1.00  0.00    -0.128 C  
BRANCH  16  17
HETATM   17  C   UNL     1      -9.709   9.276  69.745  1.00  0.00    -0.189 C  
BRANCH  17  18
HETATM   18  N   UNL     1      -8.911   8.140  69.252  1.00  0.00    -0.143 NA 
HETATM   19  C   UNL     1     -10.549   7.196  67.532  1.00  0.00    -0.278 C  
HETATM   20  C   UNL     1      -9.745   6.988  68.841  1.00  0.00    -0.144 C  
HETATM   21  N   UNL     1      -9.715   7.566  66.360  1.00  0.00    -0.156 NA 
HETATM   22  C   UNL     1      -8.107   8.582  68.084  1.00  0.00    -0.119 C  
HETATM   23  C   UNL     1      -8.911   8.749  66.765  1.00  0.00    -0.129 C  
BRANCH  21  24
HETATM   24  C   UNL     1      -8.860   6.427  65.902  1.00  0.00    -0.131 C  
BRANCH  24  25
HETATM   25  C   UNL     1      -7.546   6.298  66.691  1.00  0.00    -0.095 A  
HETATM   26  C   UNL     1      -7.007   7.429  67.337  1.00  0.00    -0.079 A  
HETATM   27  C   UNL     1      -6.870   5.076  66.839  1.00  0.00    -0.063 A  
HETATM   28  C   UNL     1      -5.836   7.339  68.093  1.00  0.00    -0.023 A  
HETATM   29  C   UNL     1      -5.170   6.122  68.206  1.00  0.00    -0.004 A  
HETATM   30  C   UNL     1      -5.686   4.992  67.578  1.00  0.00    -0.017 A  
ENDBRANCH  24  25
BRANCH  24  31
HETATM   31  C   UNL     1      -9.640   5.105  65.834  1.00  0.00    -0.163 A  
HETATM   32  C   UNL     1     -10.891   2.609  65.493  1.00  0.00     2.847 A  
HETATM   33  C   UNL     1     -11.504   3.766  65.021  1.00  0.00     1.677 A  
HETATM   34  C   UNL     1      -9.046   3.927  66.324  1.00  0.00    -0.149 A  
HETATM   35  C   UNL     1     -10.882   5.005  65.185  1.00  0.00     0.402 A  
HETATM   36  C   UNL     1      -9.663   2.689  66.145  1.00  0.00     0.378 A  
ENDBRANCH  24  31
ENDBRANCH  21  24
ENDBRANCH  17  18
ENDBRANCH  16  17
ENDBRANCH  15  16
ENDBRANCH  13  15
ENDBRANCH  11  13
BRANCH  12  37
HETATM   37  C   UNL     1     -11.777  11.160  65.711  1.00  0.00     0.731 A  
HETATM   38  C   UNL     1     -11.742  10.997  63.285  1.00  0.00     0.909 A  
HETATM   39  O   UNL     1      -7.693  10.420  65.673  1.00  0.00    -0.143 OA 
HETATM   40  C   UNL     1     -10.391  10.904  65.734  1.00  0.00    -0.303 A  
HETATM   41  O   UNL     1      -7.672  10.273  63.485  1.00  0.00    -0.150 OA 
HETATM   42  C   UNL     1      -9.697  10.701  64.535  1.00  0.00    -0.309 A  
HETATM   43  C   UNL     1     -10.367  10.757  63.308  1.00  0.00    -0.137 A  
HETATM   44  N   UNL     1      -8.249  10.448  64.568  1.00  0.00    -0.157 N  
HETATM   45  C   UNL     1     -12.444  11.185  64.477  1.00  0.00     1.725 A  
ENDBRANCH  12  37
ENDBRANCH   3   5
ENDBRANCH   2   3
TORSDOF 11
ENDMDL
MODEL      292
REMARK 921   NORMALIZED FREE ENERGY PREDICTED BY IDOCK:   30.02 KCAL/MOL
REMARK 922        TOTAL FREE ENERGY PREDICTED BY IDOCK:   47.47 KCAL/MOL
REMARK 923 INTER-LIGAND FREE ENERGY PREDICTED BY IDOCK:   25.40 KCAL/MOL
REMARK 924 INTRA-LIGAND FREE ENERGY PREDICTED BY IDOCK:   22.07 KCAL/MOL
REMARK 927      BINDING AFFINITY PREDICTED BY RF-SCORE:    0.00 PKD
ROOT
HETATM    1  C   UNL     1      -9.688   8.889  64.498  1.00  0.00     1.263 C  
HETATM    2  O   UNL     1      -8.769   9.707  63.769  1.00  0.00    -0.195 OA 
ENDROOT
BRANCH   2   3
HETATM    3  C   UNL     1      -7.759  10.194  64.534  1.00  0.00    -0.138 C  
HETATM    4  O   UNL     1      -7.388  11.361  64.540  1.00  0.00     1.080 OA 
BRANCH   3   5
HETATM    5  C   UNL     1      -7.135   9.106  65.332  1.00  0.00    -0.081 C  
HETATM    6  C   UNL     1      -6.404   8.126  64.740  1.00  0.00    -0.049 C  
HETATM    7  N   UNL     1      -5.876   7.102  65.514  1.00  0.00    -0.036 NA 
HETATM    8  C   UNL     1      -6.087   7.990  63.272  1.00  0.00    -0.072 C  
HETATM    9  C   UNL     1      -6.196   6.874  66.835  1.00  0.00    -0.041 C  
HETATM   10  C   UNL     1      -5.734   5.556  67.412  1.00  0.00    -0.013 C  
HETATM   11  C   UNL     1      -6.908   7.799  67.516  1.00  0.00    -0.069 C  
HETATM   12  C   UNL     1      -7.372   9.099  66.850  1.00  0.00    -0.090 C  
BRANCH  11  13
HETATM   13  C   UNL     1      -7.381   7.485  68.881  1.00  0.00    -0.094 C  
HETATM   14  O   UNL     1      -7.372   6.359  69.357  1.00  0.00    -0.086 OA 
BRANCH  13  15
HETATM   15  O   UNL     1      -7.842   8.598  69.509  1.00  0.00    -0.091 OA 
BRANCH  15  16
HETATM   16  C   UNL     1      -6.805   9.327  70.199  1.00  0.00    -0.063 C  
BRANCH  16  17
HETATM   17  C   UNL     1      -7.289  10.759  70.477  1.00  0.00     1.019 C  
BRANCH  17  18
HETATM   18  N   UNL     1      -7.257  11.694  69.340  1.00  0.00    -0.026 NA 
HETATM   19  C   UNL     1      -7.531  13.898  70.606  1.00  0.00     2.030 C  
HETATM   20  C   UNL     1      -8.091  12.897  69.562  1.00  0.00     1.216 C  
HETATM   21  N   UNL     1      -6.155  14.374  70.312  1.00  0.00    -0.161 NA 
HETATM   22  C   UNL     1      -5.855  12.128  69.107  1.00  0.00    -0.070 C  
HETATM   23  C   UNL     1      -5.314  13.162  70.132  1.00  0.00    -0.107 C  
BRANCH  21  24
HETATM   24  C   UNL     1      -6.119  15.274  69.118  1.00  0.00    -0.102 C  
BRANCH  24  25
HETATM   25  C   UNL     1      -6.445  14.550  67.801  1.00  0.00    -0.181 A  
HETATM   26  C   UNL     1      -6.018  13.220  67.613  1.00  0.00    -0.124 A  
HETATM   27  C   UNL     1      -7.203  15.145  66.779  1.00  0.00     0.542 A  
HETATM   28  C   UNL     1      -6.330  12.520  66.444  1.00  0.00     1.519 A  
HETATM   29  C   UNL     1      -7.061  13.139  65.434  1.00  0.00     7.384 A  
HETATM   30  C   UNL     1      -7.495  14.451  65.601  1.00  0.00     6.298 A  
ENDBRANCH  24  25
BRANCH  24  31
HETATM   31  C   UNL     1      -6.963  16.542  69.319  1.00  0.00    -0.227 A  
HETATM   32  C   UNL     1      -8.450  18.840  69.970  1.00  0.00     1.510 A  
HETATM   33  C   UNL     1      -9.104  17.647  69.677  1.00  0.00     0.878 A  
HETATM   34  C   UNL     1      -6.320  17.763  69.596  1.00  0.00    -0.174 A  
HETATM   35  C   UNL     1      -8.367  16.504  69.359  1.00  0.00     0.078 A  
HETATM   36  C   UNL     1      -7.059  18.899  69.928  1.00  0.00     0.291 A  
ENDBRANCH  24  31
ENDBRANCH  21  24
ENDBRANCH  17  18
ENDBRANCH  16  17
ENDBRANCH  15  16
ENDBRANCH  13  15
ENDBRANCH  11  13
BRANCH  12  37
HETATM   37  C   UNL     1      -8.830   9.411  67.226  1.00  0.00    -0.136 A  
HETATM   38  C   UNL     1     -10.620   9.507  68.868  1.00  0.00    -0.239 A  
HETATM   39  O   UNL     1     -11.340  11.406  64.590  1.00  0.00    -0.217 OA 
HETATM   40  C   UNL     1      -9.659  10.081  66.304  1.00  0.00    -0.256 A  
HETATM   41  O   UNL     1     -12.949  11.485  66.078  1.00  0.00     2.762 OA 
HETATM   42  C   UNL     1     -10.955  10.459  66.675  1.00  0.00     0.003 A  
HETATM   43  C   UNL     1     -11.436  10.183  67.959  1.00  0.00     0.007 A  
HETATM   44  N   UNL     1     -11.808  11.169  65.711  1.00  0.00     0.794 N  
HETATM   45  C   UNL     1      -9.331   9.113  68.502  1.00  0.00    -0.137 A  
ENDBRANCH  12  37
ENDBRANCH   3   5
ENDBRANCH   2   3
TORSDOF 11
ENDMDL
MODEL      293
REMARK 921   NORMALIZED FREE ENERGY PREDICTED BY IDOCK:   30.44 KCAL/MOL
REMARK 922        TOTAL FREE ENERGY PREDICTED BY IDOCK:   48.15 KCAL/MOL
REMARK 923 INTER-LIGAND FREE ENERGY PREDICTED BY IDOCK:   11.92 KCAL/MOL
REMARK 924 INTRA-LIGAND FREE ENERGY PREDICTED BY IDOCK:   36.23 KCAL/MOL
REMARK 927      BINDING AFFINITY PREDICTED BY RF-SCORE:    0.00 PKD
ROOT
HETATM    1  C   UNL     1      -6.656  14.411  65.954  1.00  0.00     7.135 C  
HETATM    2  O   UNL     1      -6.625  13.050  65.516  1.00  0.00     4.905 OA 
ENDROOT
BRANCH   2   3
HETATM    3  C   UNL     1      -7.676  12.317  65.963  1.00  0.00     1.153 C  
HETATM    4  O   UNL     1      -8.852  12.631  65.833  1.00  0.00     0.183 OA 
BRANCH   3   5
HETATM    5  C   UNL     1      -7.202  11.099  66.672  1.00  0.00    -0.144 C  
HETATM    6  C   UNL     1      -6.113  10.410  66.240  1.00  0.00    -0.090 C  
HETATM    7  N   UNL     1      -5.729   9.252  66.900  1.00  0.00    -0.047 NA 
HETATM    8  C   UNL     1      -5.229  10.751  65.067  1.00  0.00    -0.139 C  
HETATM    9  C   UNL     1      -6.483   8.609  67.858  1.00  0.00    -0.057 C  
HETATM   10  C   UNL     1      -6.020   7.225  68.250  1.00  0.00    -0.030 C  
HETATM   11  C   UNL     1      -7.578   9.220  68.363  1.00  0.00    -0.086 C  
HETATM   12  C   UNL     1      -8.004  10.614  67.889  1.00  0.00    -0.106 C  
BRANCH  11  13
HETATM   13  C   UNL     1      -8.468   8.470  69.273  1.00  0.00    -0.128 C  
HETATM   14  O   UNL     1      -9.583   8.079  68.958  1.00  0.00    -0.154 OA 
BRANCH  13  15
HETATM   15  O   UNL     1      -7.895   8.303  70.493  1.00  0.00    -0.081 OA 
BRANCH  15  16
HETATM   16  C   UNL     1      -6.457   8.422  70.462  1.00  0.00    -0.036 C  
BRANCH  16  17
HETATM   17  C   UNL     1      -5.834   7.284  71.287  1.00  0.00    -0.036 C  
BRANCH  17  18
HETATM   18  N   UNL     1      -5.919   5.933  70.707  1.00  0.00    -0.028 NA 
HETATM   19  C   UNL     1      -8.417   5.867  70.170  1.00  0.00    -0.126 C  
HETATM   20  C   UNL     1      -7.222   5.279  70.963  1.00  0.00    -0.069 C  
HETATM   21  N   UNL     1      -8.221   5.878  68.698  1.00  0.00    -0.108 NA 
HETATM   22  C   UNL     1      -5.716   6.022  69.238  1.00  0.00    -0.016 C  
HETATM   23  C   UNL     1      -6.932   6.573  68.444  1.00  0.00    -0.080 C  
BRANCH  21  24
HETATM   24  C   UNL     1      -8.246   4.498  68.122  1.00  0.00    -0.090 C  
BRANCH  24  25
HETATM   25  C   UNL     1      -8.091   4.475  66.591  1.00  0.00    -0.103 A  
HETATM   26  C   UNL     1      -7.075   5.239  65.983  1.00  0.00    -0.068 A  
HETATM   27  C   UNL     1      -8.898   3.679  65.762  1.00  0.00    -0.127 A  
HETATM   28  C   UNL     1      -6.882   5.211  64.599  1.00  0.00    -0.049 A  
HETATM   29  C   UNL     1      -7.709   4.434  63.794  1.00  0.00    -0.075 A  
HETATM   30  C   UNL     1      -8.717   3.670  64.375  1.00  0.00    -0.105 A  
ENDBRANCH  24  25
BRANCH  24  31
HETATM   31  C   UNL     1      -7.262   3.554  68.829  1.00  0.00    -0.050 A  
HETATM   32  C   UNL     1      -5.558   1.617  69.949  1.00  0.00    -0.017 A  
HETATM   33  C   UNL     1      -6.699   2.022  70.637  1.00  0.00    -0.032 A  
HETATM   34  C   UNL     1      -6.093   3.147  68.159  1.00  0.00    -0.028 A  
HETATM   35  C   UNL     1      -7.548   2.980  70.079  1.00  0.00    -0.044 A  
HETATM   36  C   UNL     1      -5.254   2.179  68.712  1.00  0.00    -0.012 A  
ENDBRANCH  24  31
ENDBRANCH  21  24
ENDBRANCH  17  18
ENDBRANCH  16  17
ENDBRANCH  15  16
ENDBRANCH  13  15
ENDBRANCH  11  13
BRANCH  12  37
HETATM   37  C   UNL     1      -9.523  10.669  67.661  1.00  0.00    -0.167 A  
HETATM   38  C   UNL     1     -11.799  10.453  68.489  1.00  0.00     0.108 A  
HETATM   39  O   UNL     1     -11.106  12.198  64.141  1.00  0.00    -0.312 OA 
HETATM   40  C   UNL     1     -10.028  11.185  66.450  1.00  0.00    -0.257 A  
HETATM   41  O   UNL     1     -13.155  11.997  64.897  1.00  0.00    -0.303 OA 
HETATM   42  C   UNL     1     -11.409  11.332  66.274  1.00  0.00     0.018 A  
HETATM   43  C   UNL     1     -12.298  10.977  67.295  1.00  0.00     2.212 A  
HETATM   44  N   UNL     1     -11.926  11.884  65.013  1.00  0.00    -0.180 N  
HETATM   45  C   UNL     1     -10.424  10.289  68.667  1.00  0.00    -0.215 A  
ENDBRANCH  12  37
ENDBRANCH   3   5
ENDBRANCH   2   3
TORSDOF 11
ENDMDL
MODEL      294
REMARK 921   NORMALIZED FREE ENERGY PREDICTED BY IDOCK:   40.56 KCAL/MOL
REMARK 922        TOTAL FREE ENERGY PREDICTED BY IDOCK:   64.78 KCAL/MOL
REMARK 923 INTER-LIGAND FREE ENERGY PREDICTED BY IDOCK:   24.02 KCAL/MOL
REMARK 924 INTRA-LIGAND FREE ENERGY PREDICTED BY IDOCK:   40.76 KCAL/MOL
REMARK 927      BINDING AFFINITY PREDICTED BY RF-SCORE:    0.00 PKD
ROOT
HETATM    1  C   UNL     1     -12.812  16.795  65.481  1.00  0.00     5.860 C  
HETATM    2  O   UNL     1     -12.066  15.910  64.641  1.00  0.00    -0.023 OA 
ENDROOT
BRANCH   2   3
HETATM    3  C   UNL     1     -12.249  14.599  64.942  1.00  0.00    -0.357 C  
HETATM    4  O   UNL     1     -12.457  13.717  64.120  1.00  0.00    -0.652 OA 
BRANCH   3   5
HETATM    5  C   UNL     1     -12.203  14.388  66.413  1.00  0.00    -0.363 C  
HETATM    6  C   UNL     1     -12.243  15.436  67.278  1.00  0.00     0.718 C  
HETATM    7  N   UNL     1     -12.152  15.201  68.642  1.00  0.00    -0.216 NA 
HETATM    8  C   UNL     1     -12.366  16.897  66.929  1.00  0.00     3.486 C  
HETATM    9  C   UNL     1     -11.819  13.989  69.209  1.00  0.00    -0.344 C  
HETATM   10  C   UNL     1     -11.502  14.010  70.686  1.00  0.00    -0.003 C  
HETATM   11  C   UNL     1     -11.768  12.883  68.432  1.00  0.00    -0.382 C  
HETATM   12  C   UNL     1     -12.070  12.948  66.930  1.00  0.00    -0.313 C  
BRANCH  11  13
HETATM   13  C   UNL     1     -11.263  11.619  69.007  1.00  0.00    -0.262 C  
HETATM   14  O   UNL     1     -11.134  10.587  68.365  1.00  0.00    -0.247 OA 
BRANCH  13  15
HETATM   15  O   UNL     1     -10.994  11.756  70.332  1.00  0.00     0.513 OA 
BRANCH  15  16
HETATM   16  C   UNL     1     -10.837  13.132  70.737  1.00  0.00     2.755 C  
BRANCH  16  17
HETATM   17  C   UNL     1     -10.467  13.984  69.511  1.00  0.00     0.174 C  
BRANCH  17  18
HETATM   18  N   UNL     1      -9.137  14.617  69.532  1.00  0.00     0.133 NA 
HETATM   19  C   UNL     1      -9.607  16.616  68.009  1.00  0.00    -0.225 C  
HETATM   20  C   UNL     1      -8.812  15.309  68.264  1.00  0.00    -0.171 C  
HETATM   21  N   UNL     1      -9.483  17.622  69.095  1.00  0.00    -0.081 NA 
HETATM   22  C   UNL     1      -9.088  15.608  70.637  1.00  0.00     1.759 C  
HETATM   23  C   UNL     1      -9.852  16.932  70.359  1.00  0.00     1.685 C  
BRANCH  21  24
HETATM   24  C   UNL     1      -8.113  18.218  69.150  1.00  0.00     0.059 C  
BRANCH  24  25
HETATM   25  C   UNL     1      -7.764  19.058  67.909  1.00  0.00    -0.295 A  
HETATM   26  C   UNL     1      -8.443  20.271  67.677  1.00  0.00    -0.327 A  
HETATM   27  C   UNL     1      -6.751  18.691  67.009  1.00  0.00    -0.205 A  
HETATM   28  C   UNL     1      -8.125  21.077  66.581  1.00  0.00     0.306 A  
HETATM   29  C   UNL     1      -7.134  20.682  65.687  1.00  0.00    -0.082 A  
HETATM   30  C   UNL     1      -6.449  19.488  65.900  1.00  0.00    -0.234 A  
ENDBRANCH  24  25
BRANCH  24  31
HETATM   31  C   UNL     1      -7.858  18.972  70.464  1.00  0.00     2.186 A  
HETATM   32  C   UNL     1      -7.321  20.581  72.708  1.00  0.00     3.579 A  
HETATM   33  C   UNL     1      -6.403  19.613  72.309  1.00  0.00     0.723 A  
HETATM   34  C   UNL     1      -8.783  19.940  70.895  1.00  0.00     2.097 A  
HETATM   35  C   UNL     1      -6.666  18.817  71.193  1.00  0.00     1.941 A  
HETATM   36  C   UNL     1      -8.511  20.744  72.003  1.00  0.00     2.804 A  
ENDBRANCH  24  31
ENDBRANCH  21  24
ENDBRANCH  17  18
ENDBRANCH  16  17
ENDBRANCH  15  16
ENDBRANCH  13  15
ENDBRANCH  11  13
BRANCH  12  37
HETATM   37  C   UNL     1     -11.046  12.122  66.135  1.00  0.00    -0.354 A  
HETATM   38  C   UNL     1      -9.944  11.560  64.042  1.00  0.00    -0.341 A  
HETATM   39  O   UNL     1      -8.280   9.707  68.070  1.00  0.00    -0.109 OA 
HETATM   40  C   UNL     1     -10.127  11.304  66.823  1.00  0.00    -0.254 A  
HETATM   41  O   UNL     1      -7.294   9.204  66.177  1.00  0.00    -0.092 OA 
HETATM   42  C   UNL     1      -9.126  10.627  66.114  1.00  0.00    -0.170 A  
HETATM   43  C   UNL     1      -9.025  10.761  64.725  1.00  0.00    -0.194 A  
HETATM   44  N   UNL     1      -8.164   9.787  66.841  1.00  0.00    -0.117 N  
HETATM   45  C   UNL     1     -10.954  12.226  64.740  1.00  0.00    -0.346 A  
ENDBRANCH  12  37
ENDBRANCH   3   5
ENDBRANCH   2   3
TORSDOF 11
ENDMDL
MODEL      295
REMARK 921   NORMALIZED FREE ENERGY PREDICTED BY IDOCK:   42.32 KCAL/MOL
REMARK 922        TOTAL FREE ENERGY PREDICTED BY IDOCK:   67.68 KCAL/MOL
REMARK 923 INTER-LIGAND FREE ENERGY PREDICTED BY IDOCK:   22.07 KCAL/MOL
REMARK 924 INTRA-LIGAND FREE ENERGY PREDICTED BY IDOCK:   45.61 KCAL/MOL
REMARK 927      BINDING AFFINITY PREDICTED BY RF-SCORE:    0.00 PKD
ROOT
HETATM    1  C   UNL     1      -6.928   9.252  68.440  1.00  0.00    -0.067 C  
HETATM    2  O   UNL     1      -8.073   9.606  69.221  1.00  0.00    -0.092 OA 
ENDROOT
BRANCH   2   3
HETATM    3  C   UNL     1      -9.110  10.068  68.477  1.00  0.00    -0.127 C  
HETATM    4  O   UNL     1      -9.195   9.968  67.260  1.00  0.00    -0.140 OA 
BRANCH   3   5
HETATM    5  C   UNL     1     -10.110  10.752  69.339  1.00  0.00    -0.166 C  
HETATM    6  C   UNL     1     -11.277  10.147  69.683  1.00  0.00    -0.261 C  
HETATM    7  N   UNL     1     -12.205  10.836  70.451  1.00  0.00    -0.321 NA 
HETATM    8  C   UNL     1     -11.724   8.757  69.308  1.00  0.00     0.945 C  
HETATM    9  C   UNL     1     -12.139  12.182  70.741  1.00  0.00    -0.181 C  
HETATM   10  C   UNL     1     -13.379  12.793  71.348  1.00  0.00    -0.116 C  
HETATM   11  C   UNL     1     -11.011  12.870  70.450  1.00  0.00     1.396 C  
HETATM   12  C   UNL     1      -9.803  12.185  69.800  1.00  0.00     1.682 C  
BRANCH  11  13
HETATM   13  C   UNL     1     -10.998  14.338  70.619  1.00  0.00     0.483 C  
HETATM   14  O   UNL     1     -12.009  15.023  70.659  1.00  0.00    -0.275 OA 
BRANCH  13  15
HETATM   15  O   UNL     1      -9.726  14.811  70.694  1.00  0.00     0.740 OA 
BRANCH  15  16
HETATM   16  C   UNL     1      -9.043  14.798  69.423  1.00  0.00     0.046 C  
BRANCH  16  17
HETATM   17  C   UNL     1      -9.999  15.294  68.326  1.00  0.00    -0.222 C  
BRANCH  17  18
HETATM   18  N   UNL     1     -10.384  16.715  68.386  1.00  0.00    -0.281 NA 
HETATM   19  C   UNL     1      -8.059  17.769  68.516  1.00  0.00    -0.297 C  
HETATM   20  C   UNL     1      -9.440  17.532  69.181  1.00  0.00    -0.021 C  
HETATM   21  N   UNL     1      -8.134  18.385  67.167  1.00  0.00    -0.235 NA 
HETATM   22  C   UNL     1     -10.437  17.262  67.006  1.00  0.00    -0.287 C  
HETATM   23  C   UNL     1      -9.051  17.536  66.361  1.00  0.00    -0.240 C  
BRANCH  21  24
HETATM   24  C   UNL     1      -8.585  19.810  67.229  1.00  0.00    -0.321 C  
BRANCH  24  25
HETATM   25  C   UNL     1      -9.567  20.186  66.105  1.00  0.00    -0.440 A  
HETATM   26  C   UNL     1      -9.077  20.770  64.920  1.00  0.00     1.806 A  
HETATM   27  C   UNL     1     -10.944  19.928  66.187  1.00  0.00    -0.160 A  
HETATM   28  C   UNL     1      -9.935  21.089  63.864  1.00  0.00     4.524 A  
HETATM   29  C   UNL     1     -11.301  20.846  63.977  1.00  0.00     3.617 A  
HETATM   30  C   UNL     1     -11.805  20.268  65.139  1.00  0.00     2.696 A  
ENDBRANCH  24  25
BRANCH  24  31
HETATM   31  C   UNL     1      -9.107  20.196  68.621  1.00  0.00     0.042 A  
HETATM   32  C   UNL     1      -9.987  21.174  71.108  1.00  0.00     3.248 A  
HETATM   33  C   UNL     1      -8.782  20.481  71.018  1.00  0.00     2.158 A  
HETATM   34  C   UNL     1     -10.332  20.879  68.735  1.00  0.00     0.567 A  
HETATM   35  C   UNL     1      -8.342  19.999  69.784  1.00  0.00     0.784 A  
HETATM   36  C   UNL     1     -10.762  21.372  69.968  1.00  0.00     2.394 A  
ENDBRANCH  24  31
ENDBRANCH  21  24
ENDBRANCH  17  18
ENDBRANCH  16  17
ENDBRANCH  15  16
ENDBRANCH  13  15
ENDBRANCH  11  13
BRANCH  12  37
HETATM   37  C   UNL     1      -9.223  13.061  68.678  1.00  0.00     0.032 A  
HETATM   38  C   UNL     1      -9.171  13.763  66.351  1.00  0.00    -0.158 A  
HETATM   39  O   UNL     1      -6.641  16.197  69.530  1.00  0.00    -0.187 OA 
HETATM   40  C   UNL     1      -8.341  14.112  69.001  1.00  0.00     0.083 A  
HETATM   41  O   UNL     1      -6.599  16.821  67.427  1.00  0.00    -0.132 OA 
HETATM   42  C   UNL     1      -7.887  14.977  67.997  1.00  0.00    -0.125 A  
HETATM   43  C   UNL     1      -8.308  14.812  66.673  1.00  0.00    -0.004 A  
HETATM   44  N   UNL     1      -6.977  16.079  68.344  1.00  0.00    -0.118 N  
HETATM   45  C   UNL     1      -9.616  12.887  67.343  1.00  0.00    -0.203 A  
ENDBRANCH  12  37
ENDBRANCH   3   5
ENDBRANCH   2   3
TORSDOF 11
ENDMDL
MODEL      296
REMARK 921   NORMALIZED FREE ENERGY PREDICTED BY IDOCK:   42.86 KCAL/MOL
REMARK 922        TOTAL FREE ENERGY PREDICTED BY IDOCK:   68.56 KCAL/MOL
REMARK 923 INTER-LIGAND FREE ENERGY PREDICTED BY IDOCK:   24.57 KCAL/MOL
REMARK 924 INTRA-LIGAND FREE ENERGY PREDICTED BY IDOCK:   43.99 KCAL/MOL
REMARK 927      BINDING AFFINITY PREDICTED BY RF-SCORE:    0.00 PKD
ROOT
HETATM    1  C   UNL     1     -12.812  16.795  65.481  1.00  0.00     5.860 C  
HETATM    2  O   UNL     1     -12.066  15.910  64.641  1.00  0.00    -0.023 OA 
ENDROOT
BRANCH   2   3
HETATM    3  C   UNL     1     -12.249  14.599  64.942  1.00  0.00    -0.357 C  
HETATM    4  O   UNL     1     -12.457  13.717  64.120  1.00  0.00    -0.652 OA 
BRANCH   3   5
HETATM    5  C   UNL     1     -12.203  14.388  66.413  1.00  0.00    -0.363 C  
HETATM    6  C   UNL     1     -12.243  15.436  67.278  1.00  0.00     0.718 C  
HETATM    7  N   UNL     1     -12.152  15.201  68.642  1.00  0.00    -0.216 NA 
HETATM    8  C   UNL     1     -12.366  16.897  66.929  1.00  0.00     3.486 C  
HETATM    9  C   UNL     1     -11.819  13.989  69.209  1.00  0.00    -0.344 C  
HETATM   10  C   UNL     1     -11.502  14.010  70.686  1.00  0.00    -0.003 C  
HETATM   11  C   UNL     1     -11.768  12.883  68.432  1.00  0.00    -0.382 C  
HETATM   12  C   UNL     1     -12.070  12.948  66.930  1.00  0.00    -0.313 C  
BRANCH  11  13
HETATM   13  C   UNL     1     -11.263  11.619  69.007  1.00  0.00    -0.262 C  
HETATM   14  O   UNL     1     -11.134  10.587  68.365  1.00  0.00    -0.247 OA 
BRANCH  13  15
HETATM   15  O   UNL     1     -10.994  11.756  70.332  1.00  0.00     0.513 OA 
BRANCH  15  16
HETATM   16  C   UNL     1     -10.837  13.132  70.737  1.00  0.00     2.755 C  
BRANCH  16  17
HETATM   17  C   UNL     1     -10.467  13.984  69.511  1.00  0.00     0.174 C  
BRANCH  17  18
HETATM   18  N   UNL     1      -9.137  14.617  69.532  1.00  0.00     0.133 NA 
HETATM   19  C   UNL     1      -9.607  16.616  68.009  1.00  0.00    -0.225 C  
HETATM   20  C   UNL     1      -8.812  15.309  68.264  1.00  0.00    -0.171 C  
HETATM   21  N   UNL     1      -9.483  17.622  69.095  1.00  0.00    -0.081 NA 
HETATM   22  C   UNL     1      -9.088  15.608  70.637  1.00  0.00     1.759 C  
HETATM   23  C   UNL     1      -9.852  16.932  70.359  1.00  0.00     1.685 C  
BRANCH  21  24
HETATM   24  C   UNL     1      -8.113  18.218  69.150  1.00  0.00     0.059 C  
BRANCH  24  25
HETATM   25  C   UNL     1      -7.192  17.531  70.175  1.00  0.00     1.451 A  
HETATM   26  C   UNL     1      -6.769  16.206  69.952  1.00  0.00    -0.004 A  
HETATM   27  C   UNL     1      -6.708  18.191  71.316  1.00  0.00     3.106 A  
HETATM   28  C   UNL     1      -5.903  15.566  70.843  1.00  0.00     0.140 A  
HETATM   29  C   UNL     1      -5.455  16.231  71.981  1.00  0.00     0.684 A  
HETATM   30  C   UNL     1      -5.859  17.542  72.218  1.00  0.00     2.004 A  
ENDBRANCH  24  25
BRANCH  24  31
HETATM   31  C   UNL     1      -7.469  18.327  67.760  1.00  0.00    -0.224 A  
HETATM   32  C   UNL     1      -6.066  18.380  65.322  1.00  0.00    -0.259 A  
HETATM   33  C   UNL     1      -6.111  19.517  66.124  1.00  0.00    -0.182 A  
HETATM   34  C   UNL     1      -7.430  17.195  66.925  1.00  0.00    -0.239 A  
HETATM   35  C   UNL     1      -6.803  19.490  67.337  1.00  0.00    -0.223 A  
HETATM   36  C   UNL     1      -6.726  17.220  65.720  1.00  0.00     0.190 A  
ENDBRANCH  24  31
ENDBRANCH  21  24
ENDBRANCH  17  18
ENDBRANCH  16  17
ENDBRANCH  15  16
ENDBRANCH  13  15
ENDBRANCH  11  13
BRANCH  12  37
HETATM   37  C   UNL     1     -11.046  12.122  66.135  1.00  0.00    -0.354 A  
HETATM   38  C   UNL     1      -8.901  10.989  65.980  1.00  0.00    -0.199 A  
HETATM   39  O   UNL     1     -12.038  10.432  62.476  1.00  0.00     2.633 OA 
HETATM   40  C   UNL     1     -11.412  11.570  64.891  1.00  0.00    -0.123 A  
HETATM   41  O   UNL     1     -10.098   9.417  62.344  1.00  0.00     1.194 OA 
HETATM   42  C   UNL     1     -10.521  10.733  64.208  1.00  0.00    -0.259 A  
HETATM   43  C   UNL     1      -9.268  10.432  64.754  1.00  0.00    -0.273 A  
HETATM   44  N   UNL     1     -10.916  10.152  62.916  1.00  0.00     2.223 N  
HETATM   45  C   UNL     1      -9.777  11.836  66.660  1.00  0.00    -0.219 A  
ENDBRANCH  12  37
ENDBRANCH   3   5
ENDBRANCH   2   3
TORSDOF 11
ENDMDL
MODEL      297
REMARK 921   NORMALIZED FREE ENERGY PREDICTED BY IDOCK:   43.98 KCAL/MOL
REMARK 922        TOTAL FREE ENERGY PREDICTED BY IDOCK:   70.41 KCAL/MOL
REMARK 923 INTER-LIGAND FREE ENERGY PREDICTED BY IDOCK:   58.53 KCAL/MOL
REMARK 924 INTRA-LIGAND FREE ENERGY PREDICTED BY IDOCK:   11.87 KCAL/MOL
REMARK 927      BINDING AFFINITY PREDICTED BY RF-SCORE:    0.00 PKD
ROOT
HETATM    1  C   UNL     1      -8.714  17.629  73.402  1.00  0.00    15.677 C  
HETATM    2  O   UNL     1      -7.452  17.556  72.733  1.00  0.00    10.012 OA 
ENDROOT
BRANCH   2   3
HETATM    3  C   UNL     1      -6.745  16.438  73.036  1.00  0.00     6.971 C  
HETATM    4  O   UNL     1      -5.895  16.366  73.913  1.00  0.00     2.564 OA 
BRANCH   3   5
HETATM    5  C   UNL     1      -7.116  15.321  72.128  1.00  0.00     3.593 C  
HETATM    6  C   UNL     1      -6.368  14.188  72.060  1.00  0.00     0.983 C  
HETATM    7  N   UNL     1      -6.721  13.188  71.166  1.00  0.00     1.240 NA 
HETATM    8  C   UNL     1      -5.133  13.866  72.861  1.00  0.00    -0.226 C  
HETATM    9  C   UNL     1      -7.670  13.320  70.175  1.00  0.00     2.196 C  
HETATM   10  C   UNL     1      -7.707  12.221  69.139  1.00  0.00     0.260 C  
HETATM   11  C   UNL     1      -8.474  14.407  70.166  1.00  0.00     1.329 C  
HETATM   12  C   UNL     1      -8.353  15.499  71.234  1.00  0.00     3.902 C  
BRANCH  11  13
HETATM   13  C   UNL     1      -9.383  14.622  69.020  1.00  0.00    -0.118 C  
HETATM   14  O   UNL     1      -8.997  14.768  67.869  1.00  0.00    -0.165 OA 
BRANCH  13  15
HETATM   15  O   UNL     1     -10.680  14.663  69.423  1.00  0.00    -0.245 OA 
BRANCH  15  16
HETATM   16  C   UNL     1     -11.552  15.282  68.455  1.00  0.00    -0.352 C  
BRANCH  16  17
HETATM   17  C   UNL     1     -12.698  14.316  68.112  1.00  0.00     0.916 C  
BRANCH  17  18
HETATM   18  N   UNL     1     -12.411  13.299  67.085  1.00  0.00    -0.227 NA 
HETATM   19  C   UNL     1      -9.915  12.960  67.522  1.00  0.00    -0.215 C  
HETATM   20  C   UNL     1     -11.036  13.400  66.545  1.00  0.00    -0.297 C  
HETATM   21  N   UNL     1     -10.074  11.579  68.045  1.00  0.00    -0.181 NA 
HETATM   22  C   UNL     1     -12.588  11.948  67.678  1.00  0.00     1.885 C  
HETATM   23  C   UNL     1     -11.441  11.496  68.623  1.00  0.00    -0.293 C  
BRANCH  21  24
HETATM   24  C   UNL     1      -9.842  10.552  66.983  1.00  0.00    -0.183 C  
BRANCH  24  25
HETATM   25  C   UNL     1      -8.459  10.665  66.319  1.00  0.00    -0.155 A  
HETATM   26  C   UNL     1      -8.369  10.814  64.920  1.00  0.00    -0.018 A  
HETATM   27  C   UNL     1      -7.265  10.674  67.057  1.00  0.00    -0.101 A  
HETATM   28  C   UNL     1      -7.131  10.958  64.288  1.00  0.00     0.576 A  
HETATM   29  C   UNL     1      -5.958  10.940  65.038  1.00  0.00     0.134 A  
HETATM   30  C   UNL     1      -6.025  10.796  66.421  1.00  0.00    -0.110 A  
ENDBRANCH  24  25
BRANCH  24  31
HETATM   31  C   UNL     1     -10.146   9.128  67.475  1.00  0.00    -0.284 A  
HETATM   32  C   UNL     1     -10.438   6.523  68.494  1.00  0.00    -0.257 A  
HETATM   33  C   UNL     1     -10.173   6.716  67.141  1.00  0.00    -0.275 A  
HETATM   34  C   UNL     1     -10.435   8.914  68.835  1.00  0.00    -0.225 A  
HETATM   35  C   UNL     1     -10.023   8.008  66.635  1.00  0.00    -0.326 A  
HETATM   36  C   UNL     1     -10.571   7.621  69.341  1.00  0.00    -0.217 A  
ENDBRANCH  24  31
ENDBRANCH  21  24
ENDBRANCH  17  18
ENDBRANCH  16  17
ENDBRANCH  15  16
ENDBRANCH  13  15
ENDBRANCH  11  13
BRANCH  12  37
HETATM   37  C   UNL     1      -8.429  16.894  70.594  1.00  0.00     4.327 A  
HETATM   38  C   UNL     1      -9.539  19.039  70.312  1.00  0.00     1.349 A  
HETATM   39  O   UNL     1      -5.248  18.421  68.406  1.00  0.00    -0.166 OA 
HETATM   40  C   UNL     1      -7.334  17.379  69.849  1.00  0.00     0.932 A  
HETATM   41  O   UNL     1      -6.260  20.351  68.156  1.00  0.00    -0.254 OA 
HETATM   42  C   UNL     1      -7.354  18.687  69.348  1.00  0.00     0.016 A  
HETATM   43  C   UNL     1      -8.450  19.523  69.586  1.00  0.00     0.434 A  
HETATM   44  N   UNL     1      -6.203  19.188  68.583  1.00  0.00    -0.224 N  
HETATM   45  C   UNL     1      -9.535  17.731  70.802  1.00  0.00     4.351 A  
ENDBRANCH  12  37
ENDBRANCH   3   5
ENDBRANCH   2   3
TORSDOF 11
ENDMDL
MODEL      298
REMARK 921   NORMALIZED FREE ENERGY PREDICTED BY IDOCK:   51.03 KCAL/MOL
REMARK 922        TOTAL FREE ENERGY PREDICTED BY IDOCK:   81.98 KCAL/MOL
REMARK 923 INTER-LIGAND FREE ENERGY PREDICTED BY IDOCK:   51.37 KCAL/MOL
REMARK 924 INTRA-LIGAND FREE ENERGY PREDICTED BY IDOCK:   30.61 KCAL/MOL
REMARK 927      BINDING AFFINITY PREDICTED BY RF-SCORE:    0.00 PKD
ROOT
HETATM    1  C   UNL     1     -11.503  19.154  65.762  1.00  0.00     1.406 C  
HETATM    2  O   UNL     1     -11.250  19.707  64.468  1.00  0.00     0.376 OA 
ENDROOT
BRANCH   2   3
HETATM    3  C   UNL     1     -10.073  20.380  64.390  1.00  0.00     3.252 C  
HETATM    4  O   UNL     1      -9.693  21.010  63.412  1.00  0.00     4.234 OA 
BRANCH   3   5
HETATM    5  C   UNL     1      -9.290  20.211  65.642  1.00  0.00     0.087 C  
HETATM    6  C   UNL     1      -7.932  20.154  65.623  1.00  0.00     0.004 C  
HETATM    7  N   UNL     1      -7.238  19.950  66.807  1.00  0.00    -0.225 NA 
HETATM    8  C   UNL     1      -7.035  20.276  64.417  1.00  0.00     0.257 C  
HETATM    9  C   UNL     1      -7.820  19.594  68.005  1.00  0.00    -0.306 C  
HETATM   10  C   UNL     1      -6.874  19.150  69.096  1.00  0.00    -0.361 C  
HETATM   11  C   UNL     1      -9.165  19.634  68.129  1.00  0.00    -0.418 C  
HETATM   12  C   UNL     1     -10.062  20.064  66.962  1.00  0.00    -0.594 C  
BRANCH  11  13
HETATM   13  C   UNL     1      -9.793  19.108  69.358  1.00  0.00    -0.077 C  
HETATM   14  O   UNL     1     -10.668  19.697  69.977  1.00  0.00     0.736 OA 
BRANCH  13  15
HETATM   15  O   UNL     1      -9.252  17.913  69.713  1.00  0.00     0.697 OA 
BRANCH  15  16
HETATM   16  C   UNL     1     -10.236  16.868  69.859  1.00  0.00     0.188 C  
BRANCH  16  17
HETATM   17  C   UNL     1      -9.835  15.666  68.989  1.00  0.00    -0.236 C  
BRANCH  17  18
HETATM   18  N   UNL     1     -10.687  14.468  69.094  1.00  0.00    -0.253 NA 
HETATM   19  C   UNL     1      -9.260  12.826  67.752  1.00  0.00    -0.199 C  
HETATM   20  C   UNL     1     -10.598  13.595  67.902  1.00  0.00    -0.249 C  
HETATM   21  N   UNL     1      -8.906  11.990  68.927  1.00  0.00     0.110 NA 
HETATM   22  C   UNL     1     -10.275  13.684  70.286  1.00  0.00     2.102 C  
HETATM   23  C   UNL     1      -8.955  12.883  70.115  1.00  0.00     4.198 C  
BRANCH  21  24
HETATM   24  C   UNL     1      -9.812  10.809  69.065  1.00  0.00    -0.194 C  
BRANCH  24  25
HETATM   25  C   UNL     1     -10.986  11.052  70.030  1.00  0.00    -0.152 A  
HETATM   26  C   UNL     1     -11.099  10.274  71.199  1.00  0.00     0.011 A  
HETATM   27  C   UNL     1     -11.939  12.063  69.820  1.00  0.00    -0.370 A  
HETATM   28  C   UNL     1     -12.131  10.494  72.115  1.00  0.00     0.757 A  
HETATM   29  C   UNL     1     -13.079  11.485  71.875  1.00  0.00    -0.492 A  
HETATM   30  C   UNL     1     -12.983  12.267  70.727  1.00  0.00     0.030 A  
ENDBRANCH  24  25
BRANCH  24  31
HETATM   31  C   UNL     1     -10.271  10.265  67.703  1.00  0.00    -0.247 A  
HETATM   32  C   UNL     1     -10.854   9.352  65.107  1.00  0.00     2.850 A  
HETATM   33  C   UNL     1     -11.413  10.540  65.570  1.00  0.00     1.262 A  
HETATM   34  C   UNL     1      -9.733   9.055  67.226  1.00  0.00    -0.232 A  
HETATM   35  C   UNL     1     -11.121  10.997  66.856  1.00  0.00    -0.280 A  
HETATM   36  C   UNL     1     -10.015   8.609  65.934  1.00  0.00     0.044 A  
ENDBRANCH  24  31
ENDBRANCH  21  24
ENDBRANCH  17  18
ENDBRANCH  16  17
ENDBRANCH  15  16
ENDBRANCH  13  15
ENDBRANCH  11  13
BRANCH  12  37
HETATM   37  C   UNL     1     -11.277  19.130  66.839  1.00  0.00     0.078 A  
HETATM   38  C   UNL     1     -13.616  18.629  67.274  1.00  0.00     9.643 A  
HETATM   39  O   UNL     1     -11.174  15.797  64.367  1.00  0.00    -0.388 OA 
HETATM   40  C   UNL     1     -11.205  18.001  65.998  1.00  0.00     0.845 A  
HETATM   41  O   UNL     1     -13.284  15.353  64.767  1.00  0.00     0.425 OA 
HETATM   42  C   UNL     1     -12.339  17.202  65.802  1.00  0.00     4.849 A  
HETATM   43  C   UNL     1     -13.549  17.519  66.430  1.00  0.00    13.503 A  
HETATM   44  N   UNL     1     -12.259  16.034  64.913  1.00  0.00     0.566 N  
HETATM   45  C   UNL     1     -12.487  19.422  67.486  1.00  0.00     4.135 A  
ENDBRANCH  12  37
ENDBRANCH   3   5
ENDBRANCH   2   3
TORSDOF 11
ENDMDL
MODEL      299
REMARK 921   NORMALIZED FREE ENERGY PREDICTED BY IDOCK:   51.09 KCAL/MOL
REMARK 922        TOTAL FREE ENERGY PREDICTED BY IDOCK:   82.09 KCAL/MOL
REMARK 923 INTER-LIGAND FREE ENERGY PREDICTED BY IDOCK:   28.52 KCAL/MOL
REMARK 924 INTRA-LIGAND FREE ENERGY PREDICTED BY IDOCK:   53.56 KCAL/MOL
REMARK 927      BINDING AFFINITY PREDICTED BY RF-SCORE:    0.00 PKD
ROOT
HETATM    1  C   UNL     1     -12.819  16.793  65.493  1.00  0.00     5.860 C  
HETATM    2  O   UNL     1     -12.065  15.853  64.722  1.00  0.00     0.091 OA 
ENDROOT
BRANCH   2   3
HETATM    3  C   UNL     1     -12.277  14.563  65.087  1.00  0.00    -0.346 C  
HETATM    4  O   UNL     1     -12.437  13.634  64.306  1.00  0.00    -0.613 OA 
BRANCH   3   5
HETATM    5  C   UNL     1     -12.331  14.440  66.568  1.00  0.00    -0.272 C  
HETATM    6  C   UNL     1     -12.426  15.536  67.365  1.00  0.00     1.363 C  
HETATM    7  N   UNL     1     -12.427  15.383  68.743  1.00  0.00     0.133 NA 
HETATM    8  C   UNL     1     -12.521  16.974  66.923  1.00  0.00     4.256 C  
HETATM    9  C   UNL     1     -12.136  14.207  69.402  1.00  0.00    -0.328 C  
HETATM   10  C   UNL     1     -11.919  14.316  70.893  1.00  0.00    -0.389 C  
HETATM   11  C   UNL     1     -12.037  13.057  68.697  1.00  0.00    -0.189 C  
HETATM   12  C   UNL     1     -12.237  13.033  67.177  1.00  0.00    -0.200 C  
BRANCH  11  13
HETATM   13  C   UNL     1     -11.575  11.831  69.379  1.00  0.00    -0.322 C  
HETATM   14  O   UNL     1     -11.348  10.779  68.798  1.00  0.00    -0.250 OA 
BRANCH  13  15
HETATM   15  O   UNL     1     -11.466  12.025  70.719  1.00  0.00     0.354 OA 
BRANCH  15  16
HETATM   16  C   UNL     1     -11.457  13.420  71.088  1.00  0.00     1.380 C  
BRANCH  16  17
HETATM   17  C   UNL     1     -11.020  14.263  69.879  1.00  0.00    -0.007 C  
BRANCH  17  18
HETATM   18  N   UNL     1      -9.861  13.765  69.118  1.00  0.00     0.123 NA 
HETATM   19  C   UNL     1      -8.268  15.737  69.451  1.00  0.00    -0.211 C  
HETATM   20  C   UNL     1      -9.086  14.851  68.476  1.00  0.00    -0.191 C  
HETATM   21  N   UNL     1      -7.321  14.979  70.308  1.00  0.00     0.151 NA 
HETATM   22  C   UNL     1      -8.960  13.022  70.037  1.00  0.00     3.482 C  
HETATM   23  C   UNL     1      -8.112  13.916  70.983  1.00  0.00     4.921 C  
BRANCH  21  24
HETATM   24  C   UNL     1      -6.178  14.423  69.520  1.00  0.00    -0.121 C  
BRANCH  24  25
HETATM   25  C   UNL     1      -6.382  12.956  69.105  1.00  0.00    -0.105 A  
HETATM   26  C   UNL     1      -7.113  12.658  67.937  1.00  0.00    -0.113 A  
HETATM   27  C   UNL     1      -5.825  11.883  69.820  1.00  0.00    -0.120 A  
HETATM   28  C   UNL     1      -7.286  11.338  67.511  1.00  0.00    -0.100 A  
HETATM   29  C   UNL     1      -6.745  10.289  68.249  1.00  0.00    -0.057 A  
HETATM   30  C   UNL     1      -6.017  10.562  69.404  1.00  0.00    -0.039 A  
ENDBRANCH  24  25
BRANCH  24  31
HETATM   31  C   UNL     1      -5.795  15.323  68.335  1.00  0.00    -0.106 A  
HETATM   32  C   UNL     1      -5.376  17.000  66.116  1.00  0.00     0.204 A  
HETATM   33  C   UNL     1      -5.167  15.628  66.002  1.00  0.00     3.824 A  
HETATM   34  C   UNL     1      -5.979  16.714  68.437  1.00  0.00    -0.124 A  
HETATM   35  C   UNL     1      -5.379  14.795  67.101  1.00  0.00     0.838 A  
HETATM   36  C   UNL     1      -5.781  17.544  67.333  1.00  0.00    -0.158 A  
ENDBRANCH  24  31
ENDBRANCH  21  24
ENDBRANCH  17  18
ENDBRANCH  16  17
ENDBRANCH  15  16
ENDBRANCH  13  15
ENDBRANCH  11  13
BRANCH  12  37
HETATM   37  C   UNL     1     -11.165  12.162  66.503  1.00  0.00    -0.378 A  
HETATM   38  C   UNL     1      -9.010  11.036  66.554  1.00  0.00    -0.181 A  
HETATM   39  O   UNL     1     -11.927  10.225  62.912  1.00  0.00     3.247 OA 
HETATM   40  C   UNL     1     -11.453  11.526  65.279  1.00  0.00    -0.091 A  
HETATM   41  O   UNL     1      -9.980   9.216  62.966  1.00  0.00     1.740 OA 
HETATM   42  C   UNL     1     -10.519  10.651  64.708  1.00  0.00    -0.210 A  
HETATM   43  C   UNL     1      -9.301  10.395  65.348  1.00  0.00    -0.252 A  
HETATM   44  N   UNL     1     -10.833   9.982  63.438  1.00  0.00     2.237 N  
HETATM   45  C   UNL     1      -9.929  11.921  67.122  1.00  0.00    -0.209 A  
ENDBRANCH  12  37
ENDBRANCH   3   5
ENDBRANCH   2   3
TORSDOF 11
ENDMDL
MODEL      300
REMARK 921   NORMALIZED FREE ENERGY PREDICTED BY IDOCK:   51.95 KCAL/MOL
REMARK 922        TOTAL FREE ENERGY PREDICTED BY IDOCK:   83.49 KCAL/MOL
REMARK 923 INTER-LIGAND FREE ENERGY PREDICTED BY IDOCK:    2.20 KCAL/MOL
REMARK 924 INTRA-LIGAND FREE ENERGY PREDICTED BY IDOCK:   81.29 KCAL/MOL
REMARK 927      BINDING AFFINITY PREDICTED BY RF-SCORE:    0.00 PKD
ROOT
HETATM    1  C   UNL     1     -11.280   5.355  68.318  1.00  0.00     0.957 C  
HETATM    2  O   UNL     1     -10.769   5.141  69.636  1.00  0.00    -0.212 OA 
ENDROOT
BRANCH   2   3
HETATM    3  C   UNL     1      -9.512   5.623  69.811  1.00  0.00    -0.148 C  
HETATM    4  O   UNL     1      -8.491   4.953  69.733  1.00  0.00    -0.082 OA 
BRANCH   3   5
HETATM    5  C   UNL     1      -9.547   7.070  70.153  1.00  0.00    -0.164 C  
HETATM    6  C   UNL     1     -10.404   7.552  71.090  1.00  0.00    -0.200 C  
HETATM    7  N   UNL     1     -10.440   8.915  71.349  1.00  0.00    -0.277 NA 
HETATM    8  C   UNL     1     -11.382   6.761  71.921  1.00  0.00    -0.306 C  
HETATM    9  C   UNL     1      -9.811   9.874  70.585  1.00  0.00     0.031 C  
HETATM   10  C   UNL     1     -10.198  11.307  70.866  1.00  0.00     3.668 C  
HETATM   11  C   UNL     1      -8.927   9.494  69.635  1.00  0.00    -0.198 C  
HETATM   12  C   UNL     1      -8.611   8.015  69.385  1.00  0.00    -0.136 C  
BRANCH  11  13
HETATM   13  C   UNL     1      -8.371  10.510  68.717  1.00  0.00    -0.136 C  
HETATM   14  O   UNL     1      -7.627  11.411  69.076  1.00  0.00    -0.126 OA 
BRANCH  13  15
HETATM   15  O   UNL     1      -8.817  10.321  67.448  1.00  0.00    -0.131 OA 
BRANCH  15  16
HETATM   16  C   UNL     1      -7.750  10.234  66.481  1.00  0.00    -0.113 C  
BRANCH  16  17
HETATM   17  C   UNL     1      -6.936  11.539  66.503  1.00  0.00    -0.009 C  
BRANCH  17  18
HETATM   18  N   UNL     1      -7.577  12.699  67.146  1.00  0.00    -0.110 NA 
HETATM   19  C   UNL     1      -9.818  11.642  67.772  1.00  0.00    -0.179 C  
HETATM   20  C   UNL     1      -9.046  12.717  66.965  1.00  0.00    -0.220 C  
HETATM   21  N   UNL     1      -9.562  11.682  69.234  1.00  0.00     0.259 NA 
HETATM   22  C   UNL     1      -7.280  12.672  68.601  1.00  0.00    -0.108 C  
HETATM   23  C   UNL     1      -8.087  11.621  69.411  1.00  0.00     0.496 C  
BRANCH  21  24
HETATM   24  C   UNL     1     -10.162  12.894  69.873  1.00  0.00     1.714 C  
BRANCH  24  25
HETATM   25  C   UNL     1     -10.169  14.126  68.951  1.00  0.00    -0.181 A  
HETATM   26  C   UNL     1     -11.219  15.061  69.045  1.00  0.00    -0.279 A  
HETATM   27  C   UNL     1      -9.136  14.392  68.038  1.00  0.00    -0.188 A  
HETATM   28  C   UNL     1     -11.237  16.210  68.250  1.00  0.00    -0.343 A  
HETATM   29  C   UNL     1     -10.215  16.441  67.334  1.00  0.00    -0.281 A  
HETATM   30  C   UNL     1      -9.166  15.531  67.227  1.00  0.00    -0.219 A  
ENDBRANCH  24  25
BRANCH  24  31
HETATM   31  C   UNL     1     -11.541  12.608  70.485  1.00  0.00     0.252 A  
HETATM   32  C   UNL     1     -13.927  11.995  71.843  1.00  0.00     0.546 A  
HETATM   33  C   UNL     1     -13.451  11.142  70.852  1.00  0.00     0.485 A  
HETATM   34  C   UNL     1     -12.050  13.469  71.475  1.00  0.00     0.165 A  
HETATM   35  C   UNL     1     -12.264  11.442  70.180  1.00  0.00    -0.401 A  
HETATM   36  C   UNL     1     -13.228  13.159  72.154  1.00  0.00    -0.561 A  
ENDBRANCH  24  31
ENDBRANCH  21  24
ENDBRANCH  17  18
ENDBRANCH  16  17
ENDBRANCH  15  16
ENDBRANCH  13  15
ENDBRANCH  11  13
BRANCH  12  37
HETATM   37  C   UNL     1      -8.568   7.717  67.878  1.00  0.00    -0.122 A  
HETATM   38  C   UNL     1      -8.435   8.474  65.571  1.00  0.00    -0.183 A  
HETATM   39  O   UNL     1      -8.113   3.836  66.476  1.00  0.00    -0.095 OA 
HETATM   40  C   UNL     1      -8.422   6.386  67.435  1.00  0.00    -0.108 A  
HETATM   41  O   UNL     1      -7.996   4.529  64.399  1.00  0.00    -0.090 OA 
HETATM   42  C   UNL     1      -8.281   6.115  66.069  1.00  0.00    -0.127 A  
HETATM   43  C   UNL     1      -8.277   7.157  65.134  1.00  0.00    -0.114 A  
HETATM   44  N   UNL     1      -8.117   4.726  65.616  1.00  0.00    -0.109 N  
HETATM   45  C   UNL     1      -8.591   8.751  66.931  1.00  0.00    -0.120 A  
ENDBRANCH  12  37
ENDBRANCH   3   5
ENDBRANCH   2   3
TORSDOF 11
ENDMDL
MODEL      301
REMARK 921   NORMALIZED FREE ENERGY PREDICTED BY IDOCK:   87.81 KCAL/MOL
REMARK 922        TOTAL FREE ENERGY PREDICTED BY IDOCK:  142.42 KCAL/MOL
REMARK 923 INTER-LIGAND FREE ENERGY PREDICTED BY IDOCK:   65.15 KCAL/MOL
REMARK 924 INTRA-LIGAND FREE ENERGY PREDICTED BY IDOCK:   77.27 KCAL/MOL
REMARK 927      BINDING AFFINITY PREDICTED BY RF-SCORE:    0.00 PKD
ROOT
HETATM    1  C   UNL     1     -12.800  17.292  66.274  1.00  0.00     7.777 C  
HETATM    2  O   UNL     1     -11.796  16.406  65.772  1.00  0.00     0.912 OA 
ENDROOT
BRANCH   2   3
HETATM    3  C   UNL     1     -11.959  15.121  66.178  1.00  0.00     0.194 C  
HETATM    4  O   UNL     1     -11.746  14.137  65.483  1.00  0.00    -0.326 OA 
BRANCH   3   5
HETATM    5  C   UNL     1     -12.475  15.073  67.572  1.00  0.00     0.691 C  
HETATM    6  C   UNL     1     -13.066  16.155  68.144  1.00  0.00     3.599 C  
HETATM    7  N   UNL     1     -13.493  16.086  69.462  1.00  0.00     1.398 NA 
HETATM    8  C   UNL     1     -13.319  17.496  67.503  1.00  0.00     8.160 C  
HETATM    9  C   UNL     1     -13.190  15.060  70.331  1.00  0.00    -0.110 C  
HETATM   10  C   UNL     1     -13.511  15.306  71.787  1.00  0.00    -0.558 C  
HETATM   11  C   UNL     1     -12.614  13.934  69.855  1.00  0.00    -0.172 C  
HETATM   12  C   UNL     1     -12.286  13.772  68.366  1.00  0.00     0.016 C  
BRANCH  11  13
HETATM   13  C   UNL     1     -12.150  12.902  70.807  1.00  0.00    -0.162 C  
HETATM   14  O   UNL     1     -11.402  11.985  70.499  1.00  0.00     0.220 OA 
BRANCH  13  15
HETATM   15  O   UNL     1     -12.684  13.098  72.041  1.00  0.00    -0.196 OA 
BRANCH  15  16
HETATM   16  C   UNL     1     -13.387  14.352  72.159  1.00  0.00    -0.398 C  
BRANCH  16  17
HETATM   17  C   UNL     1     -13.066  15.233  70.941  1.00  0.00    -0.464 C  
BRANCH  17  18
HETATM   18  N   UNL     1     -11.735  15.052  70.335  1.00  0.00    -0.271 NA 
HETATM   19  C   UNL     1     -10.603  17.183  71.177  1.00  0.00     1.895 C  
HETATM   20  C   UNL     1     -11.090  16.335  69.974  1.00  0.00    -0.348 C  
HETATM   21  N   UNL     1      -9.669  16.469  72.084  1.00  0.00     6.647 NA 
HETATM   22  C   UNL     1     -10.858  14.335  71.296  1.00  0.00     1.610 C  
HETATM   23  C   UNL     1     -10.340  15.202  72.476  1.00  0.00     2.868 C  
BRANCH  21  24
HETATM   24  C   UNL     1      -8.339  16.234  71.442  1.00  0.00     6.684 C  
BRANCH  24  25
HETATM   25  C   UNL     1      -7.711  17.511  70.857  1.00  0.00     5.324 A  
HETATM   26  C   UNL     1      -8.452  18.301  69.955  1.00  0.00     1.940 A  
HETATM   27  C   UNL     1      -6.431  17.959  71.222  1.00  0.00     2.518 A  
HETATM   28  C   UNL     1      -7.927  19.487  69.435  1.00  0.00    -0.002 A  
HETATM   29  C   UNL     1      -6.646  19.899  69.793  1.00  0.00    -0.353 A  
HETATM   30  C   UNL     1      -5.898  19.135  70.684  1.00  0.00    -0.147 A  
ENDBRANCH  24  25
BRANCH  24  31
HETATM   31  C   UNL     1      -7.374  15.470  72.362  1.00  0.00     6.043 A  
HETATM   32  C   UNL     1      -5.620  13.857  73.856  1.00  0.00    -0.173 A  
HETATM   33  C   UNL     1      -6.946  13.998  74.254  1.00  0.00     2.768 A  
HETATM   34  C   UNL     1      -6.025  15.333  71.987  1.00  0.00     0.890 A  
HETATM   35  C   UNL     1      -7.819  14.794  73.511  1.00  0.00     7.771 A  
HETATM   36  C   UNL     1      -5.158  14.525  72.724  1.00  0.00    -0.257 A  
ENDBRANCH  24  31
ENDBRANCH  21  24
ENDBRANCH  17  18
ENDBRANCH  16  17
ENDBRANCH  15  16
ENDBRANCH  13  15
ENDBRANCH  11  13
BRANCH  12  37
HETATM   37  C   UNL     1     -10.888  13.160  68.182  1.00  0.00    -0.271 A  
HETATM   38  C   UNL     1      -9.420  11.225  68.074  1.00  0.00    -0.173 A  
HETATM   39  O   UNL     1      -7.693  15.472  66.888  1.00  0.00    -0.218 OA 
HETATM   40  C   UNL     1      -9.822  13.976  67.751  1.00  0.00    -0.232 A  
HETATM   41  O   UNL     1      -6.376  13.721  66.796  1.00  0.00     0.547 OA 
HETATM   42  C   UNL     1      -8.570  13.407  67.483  1.00  0.00    -0.200 A  
HETATM   43  C   UNL     1      -8.368  12.031  67.634  1.00  0.00    -0.160 A  
HETATM   44  N   UNL     1      -7.468  14.263  67.021  1.00  0.00     0.114 N  
HETATM   45  C   UNL     1     -10.667  11.786  68.357  1.00  0.00    -0.249 A  
ENDBRANCH  12  37
ENDBRANCH   3   5
ENDBRANCH   2   3
TORSDOF 11
ENDMDL
MODEL      302
REMARK 921   NORMALIZED FREE ENERGY PREDICTED BY IDOCK:   91.02 KCAL/MOL
REMARK 922        TOTAL FREE ENERGY PREDICTED BY IDOCK:  147.69 KCAL/MOL
REMARK 923 INTER-LIGAND FREE ENERGY PREDICTED BY IDOCK:   53.51 KCAL/MOL
REMARK 924 INTRA-LIGAND FREE ENERGY PREDICTED BY IDOCK:   94.18 KCAL/MOL
REMARK 927      BINDING AFFINITY PREDICTED BY RF-SCORE:    0.00 PKD
ROOT
HETATM    1  C   UNL     1      -5.554  13.076  65.852  1.00  0.00     4.930 C  
HETATM    2  O   UNL     1      -6.159  11.898  65.311  1.00  0.00     1.296 OA 
ENDROOT
BRANCH   2   3
HETATM    3  C   UNL     1      -7.328  11.567  65.914  1.00  0.00     0.458 C  
HETATM    4  O   UNL     1      -8.019  10.602  65.615  1.00  0.00    -0.160 OA 
BRANCH   3   5
HETATM    5  C   UNL     1      -7.678  12.562  66.962  1.00  0.00    -0.044 C  
HETATM    6  C   UNL     1      -6.994  13.730  67.082  1.00  0.00     0.363 C  
HETATM    7  N   UNL     1      -7.320  14.613  68.102  1.00  0.00    -0.113 NA 
HETATM    8  C   UNL     1      -5.859  14.211  66.215  1.00  0.00     4.976 C  
HETATM    9  C   UNL     1      -8.163  14.320  69.152  1.00  0.00     0.097 C  
HETATM   10  C   UNL     1      -8.168  15.308  70.295  1.00  0.00     0.786 C  
HETATM   11  C   UNL     1      -8.899  13.187  69.118  1.00  0.00     0.668 C  
HETATM   12  C   UNL     1      -8.814  12.215  67.936  1.00  0.00    -0.177 C  
BRANCH  11  13
HETATM   13  C   UNL     1      -9.683  12.799  70.309  1.00  0.00     4.202 C  
HETATM   14  O   UNL     1      -9.528  11.745  70.908  1.00  0.00     5.425 OA 
BRANCH  13  15
HETATM   15  O   UNL     1     -10.602  13.750  70.623  1.00  0.00     1.319 OA 
BRANCH  15  16
HETATM   16  C   UNL     1     -11.375  14.185  69.485  1.00  0.00    -0.259 C  
BRANCH  16  17
HETATM   17  C   UNL     1     -10.506  14.104  68.219  1.00  0.00    -0.249 C  
BRANCH  17  18
HETATM   18  N   UNL     1      -9.198  14.778  68.278  1.00  0.00    -0.181 NA 
HETATM   19  C   UNL     1      -9.948  17.064  69.144  1.00  0.00    -0.229 C  
HETATM   20  C   UNL     1      -9.289  16.232  68.012  1.00  0.00    -0.214 C  
HETATM   21  N   UNL     1      -9.298  16.906  70.469  1.00  0.00     2.529 NA 
HETATM   22  C   UNL     1      -8.610  14.580  69.628  1.00  0.00     0.433 C  
HETATM   23  C   UNL     1      -9.247  15.447  70.749  1.00  0.00     1.769 C  
BRANCH  21  24
HETATM   24  C   UNL     1      -7.943  17.539  70.505  1.00  0.00     3.944 C  
BRANCH  24  25
HETATM   25  C   UNL     1      -7.013  16.927  71.567  1.00  0.00     5.190 A  
HETATM   26  C   UNL     1      -6.745  17.641  72.752  1.00  0.00     6.594 A  
HETATM   27  C   UNL     1      -6.448  15.649  71.430  1.00  0.00     1.524 A  
HETATM   28  C   UNL     1      -5.936  17.098  73.754  1.00  0.00     6.765 A  
HETATM   29  C   UNL     1      -5.366  15.839  73.586  1.00  0.00     2.555 A  
HETATM   30  C   UNL     1      -5.621  15.116  72.424  1.00  0.00     0.410 A  
ENDBRANCH  24  25
BRANCH  24  31
HETATM   31  C   UNL     1      -7.292  17.599  69.115  1.00  0.00    -0.122 A  
HETATM   32  C   UNL     1      -6.238  17.462  66.510  1.00  0.00    -0.251 A  
HETATM   33  C   UNL     1      -5.441  17.128  67.603  1.00  0.00    -0.134 A  
HETATM   34  C   UNL     1      -8.074  17.954  68.000  1.00  0.00    -0.252 A  
HETATM   35  C   UNL     1      -5.965  17.191  68.895  1.00  0.00    -0.163 A  
HETATM   36  C   UNL     1      -7.552  17.877  66.708  1.00  0.00    -0.247 A  
ENDBRANCH  24  31
ENDBRANCH  21  24
ENDBRANCH  17  18
ENDBRANCH  16  17
ENDBRANCH  15  16
ENDBRANCH  13  15
ENDBRANCH  11  13
BRANCH  12  37
HETATM   37  C   UNL     1      -8.749  10.761  68.433  1.00  0.00    -0.142 A  
HETATM   38  C   UNL     1      -8.925   8.372  68.021  1.00  0.00    -0.138 A  
HETATM   39  O   UNL     1      -7.274   9.854  72.206  1.00  0.00     0.885 OA 
HETATM   40  C   UNL     1      -8.252  10.488  69.724  1.00  0.00     0.050 A  
HETATM   41  O   UNL     1      -7.439   7.700  71.825  1.00  0.00    -0.076 OA 
HETATM   42  C   UNL     1      -8.094   9.162  70.146  1.00  0.00    -0.140 A  
HETATM   43  C   UNL     1      -8.420   8.101  69.294  1.00  0.00    -0.134 A  
HETATM   44  N   UNL     1      -7.563   8.887  71.489  1.00  0.00    -0.094 N  
HETATM   45  C   UNL     1      -9.099   9.690  67.597  1.00  0.00    -0.141 A  
ENDBRANCH  12  37
ENDBRANCH   3   5
ENDBRANCH   2   3
TORSDOF 11
ENDMDL
MODEL      303
REMARK 921   NORMALIZED FREE ENERGY PREDICTED BY IDOCK:   96.23 KCAL/MOL
REMARK 922        TOTAL FREE ENERGY PREDICTED BY IDOCK:  156.25 KCAL/MOL
REMARK 923 INTER-LIGAND FREE ENERGY PREDICTED BY IDOCK:   68.68 KCAL/MOL
REMARK 924 INTRA-LIGAND FREE ENERGY PREDICTED BY IDOCK:   87.57 KCAL/MOL
REMARK 927      BINDING AFFINITY PREDICTED BY RF-SCORE:    0.00 PKD
ROOT
HETATM    1  C   UNL     1      -5.573  13.097  65.879  1.00  0.00     5.364 C  
HETATM    2  O   UNL     1      -6.106  11.885  65.337  1.00  0.00     1.082 OA 
ENDROOT
BRANCH   2   3
HETATM    3  C   UNL     1      -7.271  11.502  65.918  1.00  0.00     0.481 C  
HETATM    4  O   UNL     1      -7.892  10.487  65.633  1.00  0.00    -0.154 OA 
BRANCH   3   5
HETATM    5  C   UNL     1      -7.712  12.507  66.921  1.00  0.00     0.050 C  
HETATM    6  C   UNL     1      -7.102  13.717  67.023  1.00  0.00     0.573 C  
HETATM    7  N   UNL     1      -7.512  14.610  68.002  1.00  0.00    -0.118 NA 
HETATM    8  C   UNL     1      -5.970  14.238  66.175  1.00  0.00     5.877 C  
HETATM    9  C   UNL     1      -8.370  14.301  69.036  1.00  0.00     0.031 C  
HETATM   10  C   UNL     1      -8.470  15.322  70.145  1.00  0.00     0.585 C  
HETATM   11  C   UNL     1      -9.037  13.125  69.018  1.00  0.00     0.465 C  
HETATM   12  C   UNL     1      -8.856  12.123  67.871  1.00  0.00    -0.177 C  
BRANCH  11  13
HETATM   13  C   UNL     1      -9.834  12.729  70.197  1.00  0.00     3.349 C  
HETATM   14  O   UNL     1      -9.617  11.720  70.853  1.00  0.00     5.206 OA 
BRANCH  13  15
HETATM   15  O   UNL     1     -10.841  13.612  70.427  1.00  0.00     0.600 OA 
BRANCH  15  16
HETATM   16  C   UNL     1     -11.504  14.040  69.219  1.00  0.00    -0.295 C  
BRANCH  16  17
HETATM   17  C   UNL     1     -10.481  14.102  68.073  1.00  0.00    -0.240 C  
BRANCH  17  18
HETATM   18  N   UNL     1      -9.229  14.826  68.350  1.00  0.00    -0.184 NA 
HETATM   19  C   UNL     1     -10.204  17.002  69.273  1.00  0.00    -0.246 C  
HETATM   20  C   UNL     1      -9.364  16.291  68.180  1.00  0.00    -0.210 C  
HETATM   21  N   UNL     1      -9.720  16.770  70.657  1.00  0.00     2.118 NA 
HETATM   22  C   UNL     1      -8.808  14.549  69.748  1.00  0.00     0.619 C  
HETATM   23  C   UNL     1      -9.627  15.296  70.836  1.00  0.00     1.547 C  
BRANCH  21  24
HETATM   24  C   UNL     1      -8.416  17.457  70.915  1.00  0.00     6.287 C  
BRANCH  24  25
HETATM   25  C   UNL     1      -7.625  17.761  69.631  1.00  0.00     0.598 A  
HETATM   26  C   UNL     1      -6.499  16.980  69.305  1.00  0.00    -0.231 A  
HETATM   27  C   UNL     1      -8.008  18.767  68.728  1.00  0.00    -0.335 A  
HETATM   28  C   UNL     1      -5.780  17.205  68.128  1.00  0.00    -0.120 A  
HETATM   29  C   UNL     1      -6.163  18.223  67.260  1.00  0.00    -0.181 A  
HETATM   30  C   UNL     1      -7.275  19.005  67.562  1.00  0.00    -0.235 A  
ENDBRANCH  24  25
BRANCH  24  31
HETATM   31  C   UNL     1      -8.577  18.691  71.815  1.00  0.00     9.522 A  
HETATM   32  C   UNL     1      -9.130  20.988  73.343  1.00  0.00     7.554 A  
HETATM   33  C   UNL     1      -8.257  21.064  72.261  1.00  0.00     3.767 A  
HETATM   34  C   UNL     1      -9.440  18.629  72.925  1.00  0.00     8.191 A  
HETATM   35  C   UNL     1      -7.985  19.926  71.499  1.00  0.00     2.304 A  
HETATM   36  C   UNL     1      -9.721  19.771  73.676  1.00  0.00     4.538 A  
ENDBRANCH  24  31
ENDBRANCH  21  24
ENDBRANCH  17  18
ENDBRANCH  16  17
ENDBRANCH  15  16
ENDBRANCH  13  15
ENDBRANCH  11  13
BRANCH  12  37
HETATM   37  C   UNL     1      -8.722  10.693  68.418  1.00  0.00    -0.141 A  
HETATM   38  C   UNL     1      -8.725   8.285  68.077  1.00  0.00    -0.135 A  
HETATM   39  O   UNL     1      -7.370   9.996  72.280  1.00  0.00     1.388 OA 
HETATM   40  C   UNL     1      -8.269  10.491  69.738  1.00  0.00     0.050 A  
HETATM   41  O   UNL     1      -7.379   7.826  71.963  1.00  0.00    -0.067 OA 
HETATM   42  C   UNL     1      -8.047   9.192  70.210  1.00  0.00    -0.148 A  
HETATM   43  C   UNL     1      -8.264   8.087  69.380  1.00  0.00    -0.122 A  
HETATM   44  N   UNL     1      -7.562   8.991  71.584  1.00  0.00    -0.009 N  
HETATM   45  C   UNL     1      -8.963   9.577  67.603  1.00  0.00    -0.124 A  
ENDBRANCH  12  37
ENDBRANCH   3   5
ENDBRANCH   2   3
TORSDOF 11
ENDMDL
