MODEL        1
REMARK 921   NORMALIZED FREE ENERGY PREDICTED BY IDOCK:   -5.81 KCAL/MOL
REMARK 922        TOTAL FREE ENERGY PREDICTED BY IDOCK:   -9.43 KCAL/MOL
REMARK 923 INTER-LIGAND FREE ENERGY PREDICTED BY IDOCK:   -8.19 KCAL/MOL
REMARK 924 INTRA-LIGAND FREE ENERGY PREDICTED BY IDOCK:   -1.24 KCAL/MOL
REMARK 927      BINDING AFFINITY PREDICTED BY RF-SCORE:    0.00 PKD
ROOT
HETATM    1  C   UNL     1      -8.425  18.188  66.934  1.00  0.00    -0.253 C  
HETATM    2  S   UNL     1     -10.074  17.706  66.486  1.00  0.00    -0.361 S  
HETATM    3  O   UNL     1      -9.724  16.481  65.454  1.00  0.00    -0.496 OA 
HETATM    4  O   UNL     1     -10.721  17.146  67.653  1.00  0.00    -0.352 OA 
HETATM    5  O   UNL     1     -10.673  18.779  65.718  1.00  0.00    -0.475 OA 
ENDROOT
BRANCH   3   6
HETATM    6  C   UNL     1     -10.876  15.835  64.905  1.00  0.00    -0.413 C  
BRANCH   6   7
HETATM    7  C   UNL     1     -10.963  14.363  65.320  1.00  0.00    -0.350 C  
HETATM    8  O   UNL     1     -11.425  14.273  66.682  1.00  0.00    -0.336 OA 
HETATM    9  H   UNL     1     -11.479  13.360  66.939  1.00  0.00     0.000 HD 
BRANCH   7  10
HETATM   10  C   UNL     1     -11.972  13.575  64.456  1.00  0.00    -0.410 C  
HETATM   11  H   UNL     1     -13.377  14.026  63.146  1.00  0.00     0.000 HD 
HETATM   12  O   UNL     1     -12.756  14.510  63.678  1.00  0.00    -0.754 OA 
BRANCH  10  13
HETATM   13  C   UNL     1     -11.373  12.566  63.458  1.00  0.00    -0.486 C  
HETATM   14  O   UNL     1     -12.373  11.549  63.244  1.00  0.00    -0.857 OA 
HETATM   15  H   UNL     1     -12.004  10.927  62.630  1.00  0.00     0.000 HD 
BRANCH  13  16
HETATM   16  C   UNL     1     -10.052  11.905  63.891  1.00  0.00    -0.370 C  
HETATM   17  H   UNL     1      -8.510  11.115  62.976  1.00  0.00     0.000 HD 
HETATM   18  O   UNL     1      -9.325  11.522  62.709  1.00  0.00    -0.374 OA 
BRANCH  16  19
HETATM   19  C   UNL     1     -10.256  10.685  64.796  1.00  0.00    -0.331 C  
BRANCH  19  20
HETATM   20  O   UNL     1      -9.760  11.012  66.101  1.00  0.00    -0.202 OA 
HETATM   21  S   UNL     1     -10.681  10.561  67.363  1.00  0.00    -0.285 S  
HETATM   22  C   UNL     1      -9.625  11.178  68.653  1.00  0.00    -0.196 C  
HETATM   23  O   UNL     1     -10.700   9.113  67.424  1.00  0.00    -0.277 OA 
HETATM   24  O   UNL     1     -11.897  11.348  67.343  1.00  0.00    -0.609 OA 
ENDBRANCH  19  20
ENDBRANCH  16  19
ENDBRANCH  13  16
ENDBRANCH  10  13
ENDBRANCH   7  10
ENDBRANCH   6   7
ENDBRANCH   3   6
TORSDOF 7
ENDMDL
MODEL        2
REMARK 921   NORMALIZED FREE ENERGY PREDICTED BY IDOCK:   -5.72 KCAL/MOL
REMARK 922        TOTAL FREE ENERGY PREDICTED BY IDOCK:   -9.31 KCAL/MOL
REMARK 923 INTER-LIGAND FREE ENERGY PREDICTED BY IDOCK:   -8.25 KCAL/MOL
REMARK 924 INTRA-LIGAND FREE ENERGY PREDICTED BY IDOCK:   -1.06 KCAL/MOL
REMARK 927      BINDING AFFINITY PREDICTED BY RF-SCORE:    0.00 PKD
ROOT
HETATM    1  C   UNL     1     -12.604  12.202  63.374  1.00  0.00    -0.463 C  
HETATM    2  S   UNL     1     -12.180  12.965  64.919  1.00  0.00    -0.474 S  
HETATM    3  O   UNL     1     -10.799  13.727  64.471  1.00  0.00    -0.393 OA 
HETATM    4  O   UNL     1     -13.175  13.970  65.223  1.00  0.00    -0.782 OA 
HETATM    5  O   UNL     1     -11.828  11.924  65.864  1.00  0.00    -0.466 OA 
ENDROOT
BRANCH   3   6
HETATM    6  C   UNL     1     -10.185  14.483  65.519  1.00  0.00    -0.370 C  
BRANCH   6   7
HETATM    7  C   UNL     1     -10.341  15.992  65.307  1.00  0.00    -0.290 C  
HETATM    8  O   UNL     1     -11.164  16.233  64.149  1.00  0.00    -1.193 OA 
HETATM    9  H   UNL     1     -11.260  17.170  64.018  1.00  0.00     0.000 HD 
BRANCH   7  10
HETATM   10  C   UNL     1     -11.042  16.676  66.501  1.00  0.00     0.263 C  
HETATM   11  H   UNL     1     -11.706  16.114  68.271  1.00  0.00     0.000 HD 
HETATM   12  O   UNL     1     -11.275  15.693  67.537  1.00  0.00    -0.317 OA 
BRANCH  10  13
HETATM   13  C   UNL     1     -10.280  17.840  67.163  1.00  0.00    -0.353 C  
HETATM   14  O   UNL     1     -10.400  17.658  68.589  1.00  0.00    -0.355 OA 
HETATM   15  H   UNL     1      -9.931  18.375  68.997  1.00  0.00     0.000 HD 
BRANCH  13  16
HETATM   16  C   UNL     1     -10.760  19.252  66.783  1.00  0.00    -0.431 C  
HETATM   17  H   UNL     1     -11.129  20.211  65.114  1.00  0.00     0.000 HD 
HETATM   18  O   UNL     1     -10.833  19.339  65.348  1.00  0.00    -0.491 OA 
BRANCH  16  19
HETATM   19  C   UNL     1      -9.856  20.364  67.328  1.00  0.00    -0.456 C  
BRANCH  19  20
HETATM   20  O   UNL     1      -8.682  19.753  67.879  1.00  0.00    -0.313 OA 
HETATM   21  S   UNL     1      -7.301  19.944  67.040  1.00  0.00    -0.251 S  
HETATM   22  C   UNL     1      -6.236  19.040  68.139  1.00  0.00    -0.218 C  
HETATM   23  O   UNL     1      -6.932  21.344  67.074  1.00  0.00    -0.508 OA 
HETATM   24  O   UNL     1      -7.419  19.207  65.798  1.00  0.00    -0.395 OA 
ENDBRANCH  19  20
ENDBRANCH  16  19
ENDBRANCH  13  16
ENDBRANCH  10  13
ENDBRANCH   7  10
ENDBRANCH   6   7
ENDBRANCH   3   6
TORSDOF 7
ENDMDL
MODEL        3
REMARK 921   NORMALIZED FREE ENERGY PREDICTED BY IDOCK:   -5.66 KCAL/MOL
REMARK 922        TOTAL FREE ENERGY PREDICTED BY IDOCK:   -9.21 KCAL/MOL
REMARK 923 INTER-LIGAND FREE ENERGY PREDICTED BY IDOCK:   -8.34 KCAL/MOL
REMARK 924 INTRA-LIGAND FREE ENERGY PREDICTED BY IDOCK:   -0.88 KCAL/MOL
REMARK 927      BINDING AFFINITY PREDICTED BY RF-SCORE:    0.00 PKD
ROOT
HETATM    1  C   UNL     1     -10.501  18.242  67.304  1.00  0.00    -0.398 C  
HETATM    2  S   UNL     1     -10.174  17.233  65.881  1.00  0.00    -0.189 S  
HETATM    3  O   UNL     1     -10.729  15.795  66.439  1.00  0.00    -0.309 OA 
HETATM    4  O   UNL     1     -11.038  17.666  64.803  1.00  0.00    -0.915 OA 
HETATM    5  O   UNL     1      -8.739  17.124  65.715  1.00  0.00    -0.527 OA 
ENDROOT
BRANCH   3   6
HETATM    6  C   UNL     1     -10.628  14.725  65.493  1.00  0.00    -0.359 C  
BRANCH   6   7
HETATM    7  C   UNL     1     -12.002  14.231  65.033  1.00  0.00    -0.410 C  
HETATM    8  O   UNL     1     -12.329  14.833  63.765  1.00  0.00    -1.028 OA 
HETATM    9  H   UNL     1     -13.182  14.526  63.479  1.00  0.00     0.000 HD 
BRANCH   7  10
HETATM   10  C   UNL     1     -12.028  12.702  64.819  1.00  0.00    -0.402 C  
HETATM   11  H   UNL     1     -13.406  11.344  64.431  1.00  0.00     0.000 HD 
HETATM   12  O   UNL     1     -13.390  12.285  64.563  1.00  0.00    -0.769 OA 
BRANCH  10  13
HETATM   13  C   UNL     1     -11.176  12.163  63.654  1.00  0.00    -0.464 C  
HETATM   14  O   UNL     1     -12.054  11.364  62.833  1.00  0.00    -0.919 OA 
HETATM   15  H   UNL     1     -11.529  11.031  62.115  1.00  0.00     0.000 HD 
BRANCH  13  16
HETATM   16  C   UNL     1      -9.948  11.328  64.057  1.00  0.00    -0.312 C  
HETATM   17  H   UNL     1      -8.818   9.981  63.191  1.00  0.00     0.000 HD 
HETATM   18  O   UNL     1      -9.576  10.496  62.942  1.00  0.00    -0.310 OA 
BRANCH  16  19
HETATM   19  C   UNL     1     -10.189  10.460  65.297  1.00  0.00    -0.262 C  
BRANCH  19  20
HETATM   20  O   UNL     1      -9.057  10.603  66.166  1.00  0.00    -0.160 OA 
HETATM   21  S   UNL     1      -9.377  10.827  67.745  1.00  0.00    -0.153 S  
HETATM   22  C   UNL     1      -7.694  10.919  68.311  1.00  0.00    -0.111 C  
HETATM   23  O   UNL     1      -9.982   9.619  68.268  1.00  0.00    -0.147 OA 
HETATM   24  O   UNL     1      -9.991  12.129  67.904  1.00  0.00    -0.189 OA 
ENDBRANCH  19  20
ENDBRANCH  16  19
ENDBRANCH  13  16
ENDBRANCH  10  13
ENDBRANCH   7  10
ENDBRANCH   6   7
ENDBRANCH   3   6
TORSDOF 7
ENDMDL
MODEL        4
REMARK 921   NORMALIZED FREE ENERGY PREDICTED BY IDOCK:   -5.62 KCAL/MOL
REMARK 922        TOTAL FREE ENERGY PREDICTED BY IDOCK:   -9.17 KCAL/MOL
REMARK 923 INTER-LIGAND FREE ENERGY PREDICTED BY IDOCK:   -8.42 KCAL/MOL
REMARK 924 INTRA-LIGAND FREE ENERGY PREDICTED BY IDOCK:   -0.74 KCAL/MOL
REMARK 927      BINDING AFFINITY PREDICTED BY RF-SCORE:    0.00 PKD
ROOT
HETATM    1  C   UNL     1     -10.532  19.277  65.932  1.00  0.00    -0.451 C  
HETATM    2  S   UNL     1     -10.136  17.551  66.050  1.00  0.00    -0.207 S  
HETATM    3  O   UNL     1     -11.020  16.987  64.790  1.00  0.00    -0.835 OA 
HETATM    4  O   UNL     1      -8.734  17.380  65.734  1.00  0.00    -0.522 OA 
HETATM    5  O   UNL     1     -10.716  17.029  67.271  1.00  0.00    -0.299 OA 
ENDROOT
BRANCH   3   6
HETATM    6  C   UNL     1     -10.905  15.576  64.583  1.00  0.00    -0.254 C  
BRANCH   6   7
HETATM    7  C   UNL     1     -12.274  14.892  64.507  1.00  0.00    -0.382 C  
HETATM    8  O   UNL     1     -12.439  14.290  63.208  1.00  0.00    -1.133 OA 
HETATM    9  H   UNL     1     -13.288  13.865  63.161  1.00  0.00     0.000 HD 
BRANCH   7  10
HETATM   10  C   UNL     1     -12.414  13.756  65.544  1.00  0.00    -0.512 C  
HETATM   11  H   UNL     1     -13.211  11.952  65.577  1.00  0.00     0.000 HD 
HETATM   12  O   UNL     1     -13.125  12.651  64.939  1.00  0.00    -0.850 OA 
BRANCH  10  13
HETATM   13  C   UNL     1     -11.099  13.179  66.104  1.00  0.00    -0.282 C  
HETATM   14  O   UNL     1     -11.123  11.761  65.841  1.00  0.00    -0.309 OA 
HETATM   15  H   UNL     1     -10.313  11.405  66.186  1.00  0.00     0.000 HD 
BRANCH  13  16
HETATM   16  C   UNL     1     -10.852  13.419  67.604  1.00  0.00    -0.259 C  
HETATM   17  H   UNL     1     -10.477  12.295  69.165  1.00  0.00     0.000 HD 
HETATM   18  O   UNL     1     -10.630  12.147  68.239  1.00  0.00    -0.203 OA 
BRANCH  16  19
HETATM   19  C   UNL     1     -12.006  14.153  68.296  1.00  0.00    -0.332 C  
BRANCH  19  20
HETATM   20  O   UNL     1     -11.552  14.578  69.588  1.00  0.00    -0.268 OA 
HETATM   21  S   UNL     1     -12.659  14.598  70.779  1.00  0.00    -0.372 S  
HETATM   22  C   UNL     1     -11.589  15.161  72.081  1.00  0.00    -0.400 C  
HETATM   23  O   UNL     1     -13.061  13.234  71.057  1.00  0.00    -0.204 OA 
HETATM   24  O   UNL     1     -13.622  15.641  70.487  1.00  0.00    -0.351 OA 
ENDBRANCH  19  20
ENDBRANCH  16  19
ENDBRANCH  13  16
ENDBRANCH  10  13
ENDBRANCH   7  10
ENDBRANCH   6   7
ENDBRANCH   3   6
TORSDOF 7
ENDMDL
MODEL        5
REMARK 921   NORMALIZED FREE ENERGY PREDICTED BY IDOCK:   -5.62 KCAL/MOL
REMARK 922        TOTAL FREE ENERGY PREDICTED BY IDOCK:   -9.16 KCAL/MOL
REMARK 923 INTER-LIGAND FREE ENERGY PREDICTED BY IDOCK:   -8.42 KCAL/MOL
REMARK 924 INTRA-LIGAND FREE ENERGY PREDICTED BY IDOCK:   -0.74 KCAL/MOL
REMARK 927      BINDING AFFINITY PREDICTED BY RF-SCORE:    0.00 PKD
ROOT
HETATM    1  C   UNL     1     -12.407  15.251  73.810  1.00  0.00    -0.605 C  
HETATM    2  S   UNL     1     -13.304  14.640  72.405  1.00  0.00    -0.459 S  
HETATM    3  O   UNL     1     -12.077  14.552  71.321  1.00  0.00    -0.331 OA 
HETATM    4  O   UNL     1     -13.750  13.294  72.696  1.00  0.00    -0.674 OA 
HETATM    5  O   UNL     1     -14.219  15.672  71.961  1.00  0.00    -0.491 OA 
ENDROOT
BRANCH   3   6
HETATM    6  C   UNL     1     -12.469  14.058  70.037  1.00  0.00    -0.281 C  
BRANCH   6   7
HETATM    7  C   UNL     1     -11.287  13.979  69.065  1.00  0.00    -0.281 C  
HETATM    8  O   UNL     1     -11.398  12.783  68.268  1.00  0.00    -0.255 OA 
HETATM    9  H   UNL     1     -10.665  12.735  67.665  1.00  0.00     0.000 HD 
BRANCH   7  10
HETATM   10  C   UNL     1     -11.265  15.168  68.081  1.00  0.00    -0.320 C  
HETATM   11  H   UNL     1     -11.805  17.065  68.131  1.00  0.00     0.000 HD 
HETATM   12  O   UNL     1     -11.819  16.333  68.737  1.00  0.00    -0.278 OA 
BRANCH  10  13
HETATM   13  C   UNL     1      -9.882  15.582  67.543  1.00  0.00    -0.220 C  
HETATM   14  O   UNL     1      -9.558  16.846  68.160  1.00  0.00    -0.243 OA 
HETATM   15  H   UNL     1      -8.706  17.102  67.828  1.00  0.00     0.000 HD 
BRANCH  13  16
HETATM   16  C   UNL     1      -9.774  15.714  66.014  1.00  0.00    -0.346 C  
HETATM   17  H   UNL     1      -9.502  17.182  64.744  1.00  0.00     0.000 HD 
HETATM   18  O   UNL     1      -9.569  17.101  65.688  1.00  0.00    -0.535 OA 
BRANCH  16  19
HETATM   19  C   UNL     1     -11.005  15.181  65.273  1.00  0.00    -0.395 C  
BRANCH  19  20
HETATM   20  O   UNL     1     -10.645  13.944  64.643  1.00  0.00    -0.412 OA 
HETATM   21  S   UNL     1     -11.869  12.967  64.205  1.00  0.00    -0.448 S  
HETATM   22  C   UNL     1     -10.886  11.665  63.501  1.00  0.00    -0.425 C  
HETATM   23  O   UNL     1     -12.618  13.615  63.147  1.00  0.00    -0.792 OA 
HETATM   24  O   UNL     1     -12.506  12.470  65.407  1.00  0.00    -0.630 OA 
ENDBRANCH  19  20
ENDBRANCH  16  19
ENDBRANCH  13  16
ENDBRANCH  10  13
ENDBRANCH   7  10
ENDBRANCH   6   7
ENDBRANCH   3   6
TORSDOF 7
ENDMDL
MODEL        6
REMARK 921   NORMALIZED FREE ENERGY PREDICTED BY IDOCK:   -5.62 KCAL/MOL
REMARK 922        TOTAL FREE ENERGY PREDICTED BY IDOCK:   -9.16 KCAL/MOL
REMARK 923 INTER-LIGAND FREE ENERGY PREDICTED BY IDOCK:   -8.63 KCAL/MOL
REMARK 924 INTRA-LIGAND FREE ENERGY PREDICTED BY IDOCK:   -0.54 KCAL/MOL
REMARK 927      BINDING AFFINITY PREDICTED BY RF-SCORE:    0.00 PKD
ROOT
HETATM    1  C   UNL     1     -11.657  10.565  69.720  1.00  0.00    -0.294 C  
HETATM    2  S   UNL     1     -10.866  10.898  68.167  1.00  0.00    -0.257 S  
HETATM    3  O   UNL     1     -12.078  11.711  67.419  1.00  0.00    -0.605 OA 
HETATM    4  O   UNL     1      -9.775  11.821  68.397  1.00  0.00    -0.194 OA 
HETATM    5  O   UNL     1     -10.675   9.643  67.470  1.00  0.00    -0.274 OA 
ENDROOT
BRANCH   3   6
HETATM    6  C   UNL     1     -11.751  12.160  66.100  1.00  0.00    -0.315 C  
BRANCH   6   7
HETATM    7  C   UNL     1     -12.449  13.477  65.749  1.00  0.00    -0.462 C  
HETATM    8  O   UNL     1     -12.488  14.325  66.914  1.00  0.00    -0.581 OA 
HETATM    9  H   UNL     1     -12.921  15.143  66.696  1.00  0.00     0.000 HD 
BRANCH   7  10
HETATM   10  C   UNL     1     -11.694  14.261  64.654  1.00  0.00    -0.430 C  
HETATM   11  H   UNL     1     -12.036  14.771  62.780  1.00  0.00     0.000 HD 
HETATM   12  O   UNL     1     -12.501  14.289  63.454  1.00  0.00    -0.761 OA 
BRANCH  10  13
HETATM   13  C   UNL     1     -11.344  15.725  64.983  1.00  0.00    -0.220 C  
HETATM   14  O   UNL     1     -11.422  16.459  63.743  1.00  0.00    -1.590 OA 
HETATM   15  H   UNL     1     -11.206  17.361  63.946  1.00  0.00     0.000 HD 
BRANCH  13  16
HETATM   16  C   UNL     1      -9.966  15.952  65.629  1.00  0.00    -0.334 C  
HETATM   17  H   UNL     1      -8.514  14.810  66.282  1.00  0.00     0.000 HD 
HETATM   18  O   UNL     1      -9.364  14.669  65.884  1.00  0.00    -0.247 OA 
BRANCH  16  19
HETATM   19  C   UNL     1     -10.034  16.763  66.927  1.00  0.00    -0.273 C  
BRANCH  19  20
HETATM   20  O   UNL     1      -9.092  17.841  66.829  1.00  0.00    -0.248 OA 
HETATM   21  S   UNL     1      -9.689  19.345  66.991  1.00  0.00    -0.358 S  
HETATM   22  C   UNL     1      -8.155  20.223  66.805  1.00  0.00    -0.272 C  
HETATM   23  O   UNL     1     -10.162  19.508  68.350  1.00  0.00    -0.415 OA 
HETATM   24  O   UNL     1     -10.527  19.628  65.844  1.00  0.00    -0.494 OA 
ENDBRANCH  19  20
ENDBRANCH  16  19
ENDBRANCH  13  16
ENDBRANCH  10  13
ENDBRANCH   7  10
ENDBRANCH   6   7
ENDBRANCH   3   6
TORSDOF 7
ENDMDL
MODEL        7
REMARK 921   NORMALIZED FREE ENERGY PREDICTED BY IDOCK:   -5.56 KCAL/MOL
REMARK 922        TOTAL FREE ENERGY PREDICTED BY IDOCK:   -9.08 KCAL/MOL
REMARK 923 INTER-LIGAND FREE ENERGY PREDICTED BY IDOCK:   -8.28 KCAL/MOL
REMARK 924 INTRA-LIGAND FREE ENERGY PREDICTED BY IDOCK:   -0.80 KCAL/MOL
REMARK 927      BINDING AFFINITY PREDICTED BY RF-SCORE:    0.00 PKD
ROOT
HETATM    1  C   UNL     1      -9.664  11.147  68.762  1.00  0.00    -0.185 C  
HETATM    2  S   UNL     1     -11.036  10.879  67.670  1.00  0.00    -0.308 S  
HETATM    3  O   UNL     1     -10.675  11.980  66.510  1.00  0.00    -0.240 OA 
HETATM    4  O   UNL     1     -10.914   9.557  67.095  1.00  0.00    -0.168 OA 
HETATM    5  O   UNL     1     -12.247  11.315  68.337  1.00  0.00    -0.604 OA 
ENDROOT
BRANCH   3   6
HETATM    6  C   UNL     1     -11.608  12.011  65.426  1.00  0.00    -0.286 C  
BRANCH   6   7
HETATM    7  C   UNL     1     -11.274  13.109  64.411  1.00  0.00    -0.371 C  
HETATM    8  O   UNL     1     -11.514  12.619  63.076  1.00  0.00    -0.763 OA 
HETATM    9  H   UNL     1     -11.307  13.301  62.447  1.00  0.00     0.000 HD 
BRANCH   7  10
HETATM   10  C   UNL     1     -12.165  14.357  64.592  1.00  0.00    -0.464 C  
HETATM   11  H   UNL     1     -13.829  14.787  65.561  1.00  0.00     0.000 HD 
HETATM   12  O   UNL     1     -13.281  14.019  65.449  1.00  0.00    -0.761 OA 
BRANCH  10  13
HETATM   13  C   UNL     1     -11.488  15.592  65.219  1.00  0.00    -0.099 C  
HETATM   14  O   UNL     1     -11.186  16.495  64.135  1.00  0.00    -1.355 OA 
HETATM   15  H   UNL     1     -10.769  17.256  64.520  1.00  0.00     0.000 HD 
BRANCH  13  16
HETATM   16  C   UNL     1     -10.208  15.312  66.025  1.00  0.00    -0.317 C  
HETATM   17  H   UNL     1      -9.770  15.026  67.914  1.00  0.00     0.000 HD 
HETATM   18  O   UNL     1     -10.560  15.199  67.417  1.00  0.00    -0.261 OA 
BRANCH  16  19
HETATM   19  C   UNL     1      -9.133  16.390  65.846  1.00  0.00    -0.182 C  
BRANCH  19  20
HETATM   20  O   UNL     1      -9.730  17.664  66.123  1.00  0.00    -0.427 OA 
HETATM   21  S   UNL     1      -8.733  18.835  66.653  1.00  0.00    -0.309 S  
HETATM   22  C   UNL     1      -9.949  20.121  66.808  1.00  0.00    -0.469 C  
HETATM   23  O   UNL     1      -7.819  19.179  65.584  1.00  0.00    -0.451 OA 
HETATM   24  O   UNL     1      -8.270  18.472  67.977  1.00  0.00    -0.256 OA 
ENDBRANCH  19  20
ENDBRANCH  16  19
ENDBRANCH  13  16
ENDBRANCH  10  13
ENDBRANCH   7  10
ENDBRANCH   6   7
ENDBRANCH   3   6
TORSDOF 7
ENDMDL
MODEL        8
REMARK 921   NORMALIZED FREE ENERGY PREDICTED BY IDOCK:   -5.55 KCAL/MOL
REMARK 922        TOTAL FREE ENERGY PREDICTED BY IDOCK:   -9.06 KCAL/MOL
REMARK 923 INTER-LIGAND FREE ENERGY PREDICTED BY IDOCK:   -8.27 KCAL/MOL
REMARK 924 INTRA-LIGAND FREE ENERGY PREDICTED BY IDOCK:   -0.79 KCAL/MOL
REMARK 927      BINDING AFFINITY PREDICTED BY RF-SCORE:    0.00 PKD
ROOT
HETATM    1  C   UNL     1     -10.391   9.486  66.678  1.00  0.00    -0.210 C  
HETATM    2  S   UNL     1      -9.696  10.475  65.379  1.00  0.00    -0.280 S  
HETATM    3  O   UNL     1     -11.072  11.139  64.784  1.00  0.00    -0.208 OA 
HETATM    4  O   UNL     1      -8.905  11.528  65.977  1.00  0.00    -0.200 OA 
HETATM    5  O   UNL     1      -9.155   9.590  64.367  1.00  0.00    -0.230 OA 
ENDROOT
BRANCH   3   6
HETATM    6  C   UNL     1     -10.858  12.042  63.694  1.00  0.00    -0.446 C  
BRANCH   6   7
HETATM    7  C   UNL     1     -12.099  12.891  63.398  1.00  0.00    -0.530 C  
HETATM    8  O   UNL     1     -13.284  12.095  63.594  1.00  0.00    -0.770 OA 
HETATM    9  H   UNL     1     -14.054  12.622  63.411  1.00  0.00     0.000 HD 
BRANCH   7  10
HETATM   10  C   UNL     1     -12.214  14.102  64.348  1.00  0.00    -0.439 C  
HETATM   11  H   UNL     1     -13.322  14.584  65.908  1.00  0.00     0.000 HD 
HETATM   12  O   UNL     1     -13.251  13.839  65.323  1.00  0.00    -0.755 OA 
BRANCH  10  13
HETATM   13  C   UNL     1     -10.946  14.467  65.144  1.00  0.00    -0.373 C  
HETATM   14  O   UNL     1     -10.976  13.685  66.356  1.00  0.00    -0.295 OA 
HETATM   15  H   UNL     1     -10.195  13.910  66.846  1.00  0.00     0.000 HD 
BRANCH  13  16
HETATM   16  C   UNL     1     -10.786  15.956  65.497  1.00  0.00    -0.372 C  
HETATM   17  H   UNL     1     -11.063  17.659  64.567  1.00  0.00     0.000 HD 
HETATM   18  O   UNL     1     -11.161  16.740  64.349  1.00  0.00    -1.112 OA 
BRANCH  16  19
HETATM   19  C   UNL     1      -9.364  16.323  65.936  1.00  0.00    -0.264 C  
BRANCH  19  20
HETATM   20  O   UNL     1      -9.227  17.748  65.855  1.00  0.00    -0.519 OA 
HETATM   21  S   UNL     1      -9.279  18.566  67.260  1.00  0.00    -0.280 S  
HETATM   22  C   UNL     1      -9.056  20.196  66.588  1.00  0.00    -0.329 C  
HETATM   23  O   UNL     1      -8.109  18.215  68.039  1.00  0.00    -0.245 OA 
HETATM   24  O   UNL     1     -10.621  18.464  67.795  1.00  0.00    -0.409 OA 
ENDBRANCH  19  20
ENDBRANCH  16  19
ENDBRANCH  13  16
ENDBRANCH  10  13
ENDBRANCH   7  10
ENDBRANCH   6   7
ENDBRANCH   3   6
TORSDOF 7
ENDMDL
MODEL        9
REMARK 921   NORMALIZED FREE ENERGY PREDICTED BY IDOCK:   -5.54 KCAL/MOL
REMARK 922        TOTAL FREE ENERGY PREDICTED BY IDOCK:   -9.06 KCAL/MOL
REMARK 923 INTER-LIGAND FREE ENERGY PREDICTED BY IDOCK:   -7.89 KCAL/MOL
REMARK 924 INTRA-LIGAND FREE ENERGY PREDICTED BY IDOCK:   -1.17 KCAL/MOL
REMARK 927      BINDING AFFINITY PREDICTED BY RF-SCORE:    0.00 PKD
ROOT
HETATM    1  C   UNL     1     -11.611  10.719  69.813  1.00  0.00    -0.317 C  
HETATM    2  S   UNL     1     -10.793  10.957  68.256  1.00  0.00    -0.248 S  
HETATM    3  O   UNL     1     -12.013  11.659  67.417  1.00  0.00    -0.621 OA 
HETATM    4  O   UNL     1      -9.742  11.936  68.435  1.00  0.00    -0.203 OA 
HETATM    5  O   UNL     1     -10.537   9.657  67.669  1.00  0.00    -0.245 OA 
ENDROOT
BRANCH   3   6
HETATM    6  C   UNL     1     -11.669  12.012  66.073  1.00  0.00    -0.241 C  
BRANCH   6   7
HETATM    7  C   UNL     1     -12.518  13.172  65.546  1.00  0.00    -0.458 C  
HETATM    8  O   UNL     1     -12.864  14.049  66.637  1.00  0.00    -0.431 OA 
HETATM    9  H   UNL     1     -13.392  14.769  66.309  1.00  0.00     0.000 HD 
BRANCH   7  10
HETATM   10  C   UNL     1     -11.755  14.028  64.513  1.00  0.00    -0.413 C  
HETATM   11  H   UNL     1     -12.020  14.553  62.630  1.00  0.00     0.000 HD 
HETATM   12  O   UNL     1     -12.489  14.026  63.266  1.00  0.00    -0.795 OA 
BRANCH  10  13
HETATM   13  C   UNL     1     -11.527  15.505  64.887  1.00  0.00    -0.279 C  
HETATM   14  O   UNL     1     -11.718  16.273  63.680  1.00  0.00    -1.447 OA 
HETATM   15  H   UNL     1     -11.577  17.184  63.911  1.00  0.00     0.000 HD 
BRANCH  13  16
HETATM   16  C   UNL     1     -10.152  15.834  65.494  1.00  0.00    -0.351 C  
HETATM   17  H   UNL     1      -8.563  14.811  66.013  1.00  0.00     0.000 HD 
HETATM   18  O   UNL     1      -9.411  14.608  65.639  1.00  0.00    -0.246 OA 
BRANCH  16  19
HETATM   19  C   UNL     1     -10.244  16.550  66.846  1.00  0.00    -0.296 C  
BRANCH  19  20
HETATM   20  O   UNL     1     -10.941  15.690  67.758  1.00  0.00    -0.304 OA 
HETATM   21  S   UNL     1     -10.455  15.728  69.309  1.00  0.00    -0.270 S  
HETATM   22  C   UNL     1     -11.617  14.542  69.945  1.00  0.00    -0.287 C  
HETATM   23  O   UNL     1     -10.767  17.032  69.857  1.00  0.00    -0.208 OA 
HETATM   24  O   UNL     1      -9.125  15.159  69.383  1.00  0.00    -0.227 OA 
ENDBRANCH  19  20
ENDBRANCH  16  19
ENDBRANCH  13  16
ENDBRANCH  10  13
ENDBRANCH   7  10
ENDBRANCH   6   7
ENDBRANCH   3   6
TORSDOF 7
ENDMDL
MODEL       10
REMARK 921   NORMALIZED FREE ENERGY PREDICTED BY IDOCK:   -5.54 KCAL/MOL
REMARK 922        TOTAL FREE ENERGY PREDICTED BY IDOCK:   -9.05 KCAL/MOL
REMARK 923 INTER-LIGAND FREE ENERGY PREDICTED BY IDOCK:   -7.99 KCAL/MOL
REMARK 924 INTRA-LIGAND FREE ENERGY PREDICTED BY IDOCK:   -1.05 KCAL/MOL
REMARK 927      BINDING AFFINITY PREDICTED BY RF-SCORE:    0.00 PKD
ROOT
HETATM    1  C   UNL     1     -10.444  18.775  65.995  1.00  0.00    -0.432 C  
HETATM    2  S   UNL     1     -10.141  17.031  66.122  1.00  0.00    -0.298 S  
HETATM    3  O   UNL     1     -10.993  16.516  64.819  1.00  0.00    -0.688 OA 
HETATM    4  O   UNL     1      -8.737  16.790  65.869  1.00  0.00    -0.504 OA 
HETATM    5  O   UNL     1     -10.802  16.535  67.312  1.00  0.00    -0.280 OA 
ENDROOT
BRANCH   3   6
HETATM    6  C   UNL     1     -10.941  15.101  64.611  1.00  0.00    -0.303 C  
BRANCH   6   7
HETATM    7  C   UNL     1     -12.327  14.506  64.347  1.00  0.00    -0.413 C  
HETATM    8  O   UNL     1     -12.385  14.003  62.998  1.00  0.00    -1.101 OA 
HETATM    9  H   UNL     1     -13.246  13.633  62.834  1.00  0.00     0.000 HD 
BRANCH   7  10
HETATM   10  C   UNL     1     -12.633  13.314  65.279  1.00  0.00    -0.470 C  
HETATM   11  H   UNL     1     -13.496  11.549  65.093  1.00  0.00     0.000 HD 
HETATM   12  O   UNL     1     -13.308  12.283  64.519  1.00  0.00    -0.769 OA 
BRANCH  10  13
HETATM   13  C   UNL     1     -11.419  12.643  65.949  1.00  0.00    -0.363 C  
HETATM   14  O   UNL     1     -11.013  11.561  65.085  1.00  0.00    -0.287 OA 
HETATM   15  H   UNL     1     -10.265  11.147  65.498  1.00  0.00     0.000 HD 
BRANCH  13  16
HETATM   16  C   UNL     1     -11.656  12.103  67.371  1.00  0.00    -0.340 C  
HETATM   17  H   UNL     1     -11.972  12.888  69.138  1.00  0.00     0.000 HD 
HETATM   18  O   UNL     1     -11.826  13.221  68.261  1.00  0.00    -0.333 OA 
BRANCH  16  19
HETATM   19  C   UNL     1     -10.520  11.205  67.873  1.00  0.00    -0.190 C  
BRANCH  19  20
HETATM   20  O   UNL     1     -10.919   9.839  67.692  1.00  0.00    -0.280 OA 
HETATM   21  S   UNL     1      -9.788   8.821  67.118  1.00  0.00    -0.230 S  
HETATM   22  C   UNL     1     -10.784   7.349  67.112  1.00  0.00    -0.330 C  
HETATM   23  O   UNL     1      -8.748   8.680  68.116  1.00  0.00    -0.139 OA 
HETATM   24  O   UNL     1      -9.498   9.190  65.748  1.00  0.00    -0.239 OA 
ENDBRANCH  19  20
ENDBRANCH  16  19
ENDBRANCH  13  16
ENDBRANCH  10  13
ENDBRANCH   7  10
ENDBRANCH   6   7
ENDBRANCH   3   6
TORSDOF 7
ENDMDL
MODEL       11
REMARK 921   NORMALIZED FREE ENERGY PREDICTED BY IDOCK:   -5.53 KCAL/MOL
REMARK 922        TOTAL FREE ENERGY PREDICTED BY IDOCK:   -9.04 KCAL/MOL
REMARK 923 INTER-LIGAND FREE ENERGY PREDICTED BY IDOCK:   -8.32 KCAL/MOL
REMARK 924 INTRA-LIGAND FREE ENERGY PREDICTED BY IDOCK:   -0.72 KCAL/MOL
REMARK 927      BINDING AFFINITY PREDICTED BY RF-SCORE:    0.00 PKD
ROOT
HETATM    1  C   UNL     1     -10.906  11.519  63.361  1.00  0.00    -0.346 C  
HETATM    2  S   UNL     1     -11.954  12.809  63.984  1.00  0.00    -0.489 S  
HETATM    3  O   UNL     1     -10.820  13.758  64.691  1.00  0.00    -0.375 OA 
HETATM    4  O   UNL     1     -12.512  13.530  62.859  1.00  0.00    -0.601 OA 
HETATM    5  O   UNL     1     -12.790  12.257  65.031  1.00  0.00    -0.563 OA 
ENDROOT
BRANCH   3   6
HETATM    6  C   UNL     1     -11.346  14.944  65.296  1.00  0.00    -0.358 C  
BRANCH   6   7
HETATM    7  C   UNL     1     -10.463  16.166  65.031  1.00  0.00    -0.179 C  
HETATM    8  O   UNL     1     -11.282  17.262  64.576  1.00  0.00    -1.083 OA 
HETATM    9  H   UNL     1     -10.734  18.021  64.412  1.00  0.00     0.000 HD 
BRANCH   7  10
HETATM   10  C   UNL     1      -9.743  16.650  66.308  1.00  0.00    -0.304 C  
HETATM   11  H   UNL     1      -8.300  17.928  66.728  1.00  0.00     0.000 HD 
HETATM   12  O   UNL     1      -8.743  17.631  65.942  1.00  0.00    -0.520 OA 
BRANCH  10  13
HETATM   13  C   UNL     1     -10.630  17.307  67.383  1.00  0.00    -0.303 C  
HETATM   14  O   UNL     1     -10.467  18.733  67.242  1.00  0.00    -0.388 OA 
HETATM   15  H   UNL     1     -11.013  19.138  67.905  1.00  0.00     0.000 HD 
BRANCH  13  16
HETATM   16  C   UNL     1     -10.330  16.896  68.836  1.00  0.00    -0.333 C  
HETATM   17  H   UNL     1      -8.727  16.755  69.955  1.00  0.00     0.000 HD 
HETATM   18  O   UNL     1      -8.912  17.008  69.058  1.00  0.00    -0.238 OA 
BRANCH  16  19
HETATM   19  C   UNL     1     -10.800  15.476  69.171  1.00  0.00    -0.251 C  
BRANCH  19  20
HETATM   20  O   UNL     1     -12.111  15.565  69.745  1.00  0.00    -0.351 OA 
HETATM   21  S   UNL     1     -12.366  14.719  71.111  1.00  0.00    -0.360 S  
HETATM   22  C   UNL     1     -14.061  15.191  71.362  1.00  0.00    -0.504 C  
HETATM   23  O   UNL     1     -11.557  15.294  72.166  1.00  0.00    -0.417 OA 
HETATM   24  O   UNL     1     -12.321  13.308  70.786  1.00  0.00    -0.360 OA 
ENDBRANCH  19  20
ENDBRANCH  16  19
ENDBRANCH  13  16
ENDBRANCH  10  13
ENDBRANCH   7  10
ENDBRANCH   6   7
ENDBRANCH   3   6
TORSDOF 7
ENDMDL
MODEL       12
REMARK 921   NORMALIZED FREE ENERGY PREDICTED BY IDOCK:   -5.53 KCAL/MOL
REMARK 922        TOTAL FREE ENERGY PREDICTED BY IDOCK:   -9.04 KCAL/MOL
REMARK 923 INTER-LIGAND FREE ENERGY PREDICTED BY IDOCK:   -8.22 KCAL/MOL
REMARK 924 INTRA-LIGAND FREE ENERGY PREDICTED BY IDOCK:   -0.81 KCAL/MOL
REMARK 927      BINDING AFFINITY PREDICTED BY RF-SCORE:    0.00 PKD
ROOT
HETATM    1  C   UNL     1      -9.553  10.973  68.557  1.00  0.00    -0.187 C  
HETATM    2  S   UNL     1     -10.777  10.593  67.331  1.00  0.00    -0.287 S  
HETATM    3  O   UNL     1      -9.978  11.094  65.990  1.00  0.00    -0.218 OA 
HETATM    4  O   UNL     1     -10.925   9.155  67.260  1.00  0.00    -0.151 OA 
HETATM    5  O   UNL     1     -11.913  11.471  67.528  1.00  0.00    -0.629 OA 
ENDROOT
BRANCH   3   6
HETATM    6  C   UNL     1     -10.706  10.904  64.772  1.00  0.00    -0.178 C  
BRANCH   6   7
HETATM    7  C   UNL     1     -10.443  12.025  63.763  1.00  0.00    -0.429 C  
HETATM    8  O   UNL     1     -10.066  11.452  62.495  1.00  0.00    -0.565 OA 
HETATM    9  H   UNL     1      -9.903  12.148  61.868  1.00  0.00     0.000 HD 
BRANCH   7  10
HETATM   10  C   UNL     1     -11.701  12.883  63.507  1.00  0.00    -0.512 C  
HETATM   11  H   UNL     1     -13.643  12.558  63.395  1.00  0.00     0.000 HD 
HETATM   12  O   UNL     1     -12.869  12.030  63.552  1.00  0.00    -0.749 OA 
BRANCH  10  13
HETATM   13  C   UNL     1     -11.956  14.032  64.501  1.00  0.00    -0.448 C  
HETATM   14  O   UNL     1     -12.736  15.023  63.800  1.00  0.00    -0.889 OA 
HETATM   15  H   UNL     1     -12.893  15.731  64.413  1.00  0.00     0.000 HD 
BRANCH  13  16
HETATM   16  C   UNL     1     -10.698  14.692  65.093  1.00  0.00    -0.414 C  
HETATM   17  H   UNL     1      -9.837  14.754  66.852  1.00  0.00     0.000 HD 
HETATM   18  O   UNL     1     -10.614  14.346  66.488  1.00  0.00    -0.289 OA 
BRANCH  16  19
HETATM   19  C   UNL     1     -10.685  16.217  64.932  1.00  0.00    -0.274 C  
BRANCH  19  20
HETATM   20  O   UNL     1      -9.558  16.730  65.656  1.00  0.00    -0.527 OA 
HETATM   21  S   UNL     1      -9.841  17.992  66.643  1.00  0.00    -0.369 S  
HETATM   22  C   UNL     1      -8.183  18.184  67.254  1.00  0.00    -0.229 C  
HETATM   23  O   UNL     1     -10.693  17.546  67.727  1.00  0.00    -0.380 OA 
HETATM   24  O   UNL     1     -10.171  19.142  65.826  1.00  0.00    -0.498 OA 
ENDBRANCH  19  20
ENDBRANCH  16  19
ENDBRANCH  13  16
ENDBRANCH  10  13
ENDBRANCH   7  10
ENDBRANCH   6   7
ENDBRANCH   3   6
TORSDOF 7
ENDMDL
MODEL       13
REMARK 921   NORMALIZED FREE ENERGY PREDICTED BY IDOCK:   -5.48 KCAL/MOL
REMARK 922        TOTAL FREE ENERGY PREDICTED BY IDOCK:   -8.97 KCAL/MOL
REMARK 923 INTER-LIGAND FREE ENERGY PREDICTED BY IDOCK:   -8.33 KCAL/MOL
REMARK 924 INTRA-LIGAND FREE ENERGY PREDICTED BY IDOCK:   -0.64 KCAL/MOL
REMARK 927      BINDING AFFINITY PREDICTED BY RF-SCORE:    0.00 PKD
ROOT
HETATM    1  C   UNL     1      -7.711   8.538  64.054  1.00  0.00    -0.137 C  
HETATM    2  S   UNL     1      -8.699   9.527  65.147  1.00  0.00    -0.184 S  
HETATM    3  O   UNL     1      -9.689  10.233  64.048  1.00  0.00    -0.306 OA 
HETATM    4  O   UNL     1      -9.494   8.643  65.972  1.00  0.00    -0.225 OA 
HETATM    5  O   UNL     1      -7.858  10.559  65.719  1.00  0.00    -0.149 OA 
ENDROOT
BRANCH   3   6
HETATM    6  C   UNL     1     -10.661  11.114  64.621  1.00  0.00    -0.318 C  
BRANCH   6   7
HETATM    7  C   UNL     1     -11.195  12.124  63.601  1.00  0.00    -0.464 C  
HETATM    8  O   UNL     1     -12.364  11.584  62.955  1.00  0.00    -0.958 OA 
HETATM    9  H   UNL     1     -12.695  12.211  62.322  1.00  0.00     0.000 HD 
BRANCH   7  10
HETATM   10  C   UNL     1     -11.627  13.448  64.268  1.00  0.00    -0.402 C  
HETATM   11  H   UNL     1     -12.830  14.944  63.809  1.00  0.00     0.000 HD 
HETATM   12  O   UNL     1     -12.563  14.129  63.399  1.00  0.00    -0.818 OA 
BRANCH  10  13
HETATM   13  C   UNL     1     -12.311  13.327  65.643  1.00  0.00    -0.465 C  
HETATM   14  O   UNL     1     -13.530  14.096  65.570  1.00  0.00    -0.710 OA 
HETATM   15  H   UNL     1     -13.951  14.022  66.417  1.00  0.00     0.000 HD 
BRANCH  13  16
HETATM   16  C   UNL     1     -11.477  13.800  66.846  1.00  0.00    -0.347 C  
HETATM   17  H   UNL     1     -11.833  14.773  68.509  1.00  0.00     0.000 HD 
HETATM   18  O   UNL     1     -12.348  14.482  67.766  1.00  0.00    -0.204 OA 
BRANCH  16  19
HETATM   19  C   UNL     1     -10.314  14.718  66.452  1.00  0.00    -0.293 C  
BRANCH  19  20
HETATM   20  O   UNL     1     -10.596  16.032  66.951  1.00  0.00    -0.312 OA 
HETATM   21  S   UNL     1     -10.179  17.279  65.994  1.00  0.00    -0.245 S  
HETATM   22  C   UNL     1     -10.746  18.586  67.056  1.00  0.00    -0.317 C  
HETATM   23  O   UNL     1     -11.009  17.245  64.807  1.00  0.00    -0.950 OA 
HETATM   24  O   UNL     1      -8.734  17.333  65.922  1.00  0.00    -0.528 OA 
ENDBRANCH  19  20
ENDBRANCH  16  19
ENDBRANCH  13  16
ENDBRANCH  10  13
ENDBRANCH   7  10
ENDBRANCH   6   7
ENDBRANCH   3   6
TORSDOF 7
ENDMDL
MODEL       14
REMARK 921   NORMALIZED FREE ENERGY PREDICTED BY IDOCK:   -5.48 KCAL/MOL
REMARK 922        TOTAL FREE ENERGY PREDICTED BY IDOCK:   -8.96 KCAL/MOL
REMARK 923 INTER-LIGAND FREE ENERGY PREDICTED BY IDOCK:   -8.20 KCAL/MOL
REMARK 924 INTRA-LIGAND FREE ENERGY PREDICTED BY IDOCK:   -0.76 KCAL/MOL
REMARK 927      BINDING AFFINITY PREDICTED BY RF-SCORE:    0.00 PKD
ROOT
HETATM    1  C   UNL     1     -10.703  18.242  67.263  1.00  0.00    -0.337 C  
HETATM    2  S   UNL     1     -10.329  17.173  65.897  1.00  0.00    -0.204 S  
HETATM    3  O   UNL     1     -10.929  15.766  66.486  1.00  0.00    -0.278 OA 
HETATM    4  O   UNL     1     -11.139  17.573  64.766  1.00  0.00    -0.959 OA 
HETATM    5  O   UNL     1      -8.890  17.039  65.799  1.00  0.00    -0.523 OA 
ENDROOT
BRANCH   3   6
HETATM    6  C   UNL     1     -10.802  14.657  65.589  1.00  0.00    -0.331 C  
BRANCH   6   7
HETATM    7  C   UNL     1     -12.154  14.223  65.015  1.00  0.00    -0.425 C  
HETATM    8  O   UNL     1     -12.359  14.857  63.737  1.00  0.00    -1.022 OA 
HETATM    9  H   UNL     1     -13.198  14.587  63.381  1.00  0.00     0.000 HD 
BRANCH   7  10
HETATM   10  C   UNL     1     -12.219  12.700  64.772  1.00  0.00    -0.465 C  
HETATM   11  H   UNL     1     -13.628  11.389  64.339  1.00  0.00     0.000 HD 
HETATM   12  O   UNL     1     -13.588  12.327  64.489  1.00  0.00    -0.483 OA 
BRANCH  10  13
HETATM   13  C   UNL     1     -11.366  12.159  63.608  1.00  0.00    -0.464 C  
HETATM   14  O   UNL     1     -12.230  11.314  62.818  1.00  0.00    -0.812 OA 
HETATM   15  H   UNL     1     -11.704  10.981  62.101  1.00  0.00     0.000 HD 
BRANCH  13  16
HETATM   16  C   UNL     1     -10.108  11.372  64.014  1.00  0.00    -0.320 C  
HETATM   17  H   UNL     1      -8.988   9.989  63.191  1.00  0.00     0.000 HD 
HETATM   18  O   UNL     1      -9.765  10.475  62.941  1.00  0.00    -0.317 OA 
BRANCH  16  19
HETATM   19  C   UNL     1     -10.283  10.583  65.316  1.00  0.00    -0.282 C  
BRANCH  19  20
HETATM   20  O   UNL     1      -9.298   9.541  65.341  1.00  0.00    -0.229 OA 
HETATM   21  S   UNL     1      -9.236   8.631  66.688  1.00  0.00    -0.196 S  
HETATM   22  C   UNL     1      -7.916   7.555  66.179  1.00  0.00    -0.111 C  
HETATM   23  O   UNL     1     -10.460   7.862  66.779  1.00  0.00    -0.327 OA 
HETATM   24  O   UNL     1      -8.763   9.461  67.776  1.00  0.00    -0.117 OA 
ENDBRANCH  19  20
ENDBRANCH  16  19
ENDBRANCH  13  16
ENDBRANCH  10  13
ENDBRANCH   7  10
ENDBRANCH   6   7
ENDBRANCH   3   6
TORSDOF 7
ENDMDL
MODEL       15
REMARK 921   NORMALIZED FREE ENERGY PREDICTED BY IDOCK:   -5.44 KCAL/MOL
REMARK 922        TOTAL FREE ENERGY PREDICTED BY IDOCK:   -8.92 KCAL/MOL
REMARK 923 INTER-LIGAND FREE ENERGY PREDICTED BY IDOCK:   -7.39 KCAL/MOL
REMARK 924 INTRA-LIGAND FREE ENERGY PREDICTED BY IDOCK:   -1.52 KCAL/MOL
REMARK 927      BINDING AFFINITY PREDICTED BY RF-SCORE:    0.00 PKD
ROOT
HETATM    1  C   UNL     1     -12.359  12.165  63.529  1.00  0.00    -0.574 C  
HETATM    2  S   UNL     1     -12.007  13.208  64.921  1.00  0.00    -0.415 S  
HETATM    3  O   UNL     1     -12.115  12.097  66.121  1.00  0.00    -0.621 OA 
HETATM    4  O   UNL     1     -10.631  13.646  64.830  1.00  0.00    -0.377 OA 
HETATM    5  O   UNL     1     -13.101  14.145  65.081  1.00  0.00    -0.757 OA 
ENDROOT
BRANCH   3   6
HETATM    6  C   UNL     1     -11.856  12.623  67.427  1.00  0.00    -0.328 C  
BRANCH   6   7
HETATM    7  C   UNL     1     -11.254  11.571  68.363  1.00  0.00    -0.255 C  
HETATM    8  O   UNL     1     -12.307  10.750  68.905  1.00  0.00    -0.788 OA 
HETATM    9  H   UNL     1     -11.933  10.097  69.486  1.00  0.00     0.000 HD 
BRANCH   7  10
HETATM   10  C   UNL     1     -10.287  10.621  67.623  1.00  0.00    -0.209 C  
HETATM   11  H   UNL     1      -8.564  10.801  66.679  1.00  0.00     0.000 HD 
HETATM   12  O   UNL     1      -9.159  11.385  67.134  1.00  0.00    -0.159 OA 
BRANCH  10  13
HETATM   13  C   UNL     1      -9.705   9.460  68.452  1.00  0.00    -0.149 C  
HETATM   14  O   UNL     1     -10.757   8.483  68.595  1.00  0.00    -0.381 OA 
HETATM   15  H   UNL     1     -10.399   7.768  69.106  1.00  0.00     0.000 HD 
BRANCH  13  16
HETATM   16  C   UNL     1      -9.163   9.839  69.842  1.00  0.00    -0.234 C  
HETATM   17  H   UNL     1      -7.391  10.028  70.657  1.00  0.00     0.000 HD 
HETATM   18  O   UNL     1      -7.725   9.793  69.799  1.00  0.00    -0.107 OA 
BRANCH  16  19
HETATM   19  C   UNL     1      -9.681   8.929  70.961  1.00  0.00    -0.252 C  
BRANCH  19  20
HETATM   20  O   UNL     1     -10.992   9.378  71.329  1.00  0.00    -0.317 OA 
HETATM   21  S   UNL     1     -11.986   8.267  71.980  1.00  0.00    -0.374 S  
HETATM   22  C   UNL     1     -13.385   9.332  72.239  1.00  0.00    -0.477 C  
HETATM   23  O   UNL     1     -11.452   7.872  73.268  1.00  0.00    -0.290 OA 
HETATM   24  O   UNL     1     -12.321   7.301  70.955  1.00  0.00    -0.331 OA 
ENDBRANCH  19  20
ENDBRANCH  16  19
ENDBRANCH  13  16
ENDBRANCH  10  13
ENDBRANCH   7  10
ENDBRANCH   6   7
ENDBRANCH   3   6
TORSDOF 7
ENDMDL
MODEL       16
REMARK 921   NORMALIZED FREE ENERGY PREDICTED BY IDOCK:   -5.44 KCAL/MOL
REMARK 922        TOTAL FREE ENERGY PREDICTED BY IDOCK:   -8.91 KCAL/MOL
REMARK 923 INTER-LIGAND FREE ENERGY PREDICTED BY IDOCK:   -7.97 KCAL/MOL
REMARK 924 INTRA-LIGAND FREE ENERGY PREDICTED BY IDOCK:   -0.93 KCAL/MOL
REMARK 927      BINDING AFFINITY PREDICTED BY RF-SCORE:    0.00 PKD
ROOT
HETATM    1  C   UNL     1     -11.381  11.656  63.626  1.00  0.00    -0.394 C  
HETATM    2  S   UNL     1     -11.953  13.184  64.323  1.00  0.00    -0.434 S  
HETATM    3  O   UNL     1     -10.508  13.876  64.674  1.00  0.00    -0.425 OA 
HETATM    4  O   UNL     1     -12.584  13.959  63.276  1.00  0.00    -0.824 OA 
HETATM    5  O   UNL     1     -12.624  12.896  65.575  1.00  0.00    -0.559 OA 
ENDROOT
BRANCH   3   6
HETATM    6  C   UNL     1     -10.611  15.180  65.253  1.00  0.00    -0.411 C  
BRANCH   6   7
HETATM    7  C   UNL     1      -9.615  15.382  66.399  1.00  0.00    -0.293 C  
HETATM    8  O   UNL     1      -9.020  16.690  66.294  1.00  0.00    -0.273 OA 
HETATM    9  H   UNL     1      -8.402  16.815  67.005  1.00  0.00     0.000 HD 
BRANCH   7  10
HETATM   10  C   UNL     1     -10.299  15.314  67.782  1.00  0.00    -0.244 C  
HETATM   11  H   UNL     1     -11.460  16.497  68.852  1.00  0.00     0.000 HD 
HETATM   12  O   UNL     1     -11.039  16.538  68.001  1.00  0.00    -0.345 OA 
BRANCH  10  13
HETATM   13  C   UNL     1     -11.292  14.156  67.995  1.00  0.00    -0.299 C  
HETATM   14  O   UNL     1     -12.582  14.754  68.239  1.00  0.00    -0.429 OA 
HETATM   15  H   UNL     1     -13.194  14.040  68.371  1.00  0.00     0.000 HD 
BRANCH  13  16
HETATM   16  C   UNL     1     -10.949  13.188  69.141  1.00  0.00    -0.145 C  
HETATM   17  H   UNL     1     -10.505  11.285  69.289  1.00  0.00     0.000 HD 
HETATM   18  O   UNL     1     -10.716  11.882  68.582  1.00  0.00    -0.220 OA 
BRANCH  16  19
HETATM   19  C   UNL     1     -12.043  13.108  70.212  1.00  0.00    -0.328 C  
BRANCH  19  20
HETATM   20  O   UNL     1     -11.812  14.156  71.163  1.00  0.00    -0.298 OA 
HETATM   21  S   UNL     1     -13.123  14.759  71.914  1.00  0.00    -0.363 S  
HETATM   22  C   UNL     1     -12.280  15.947  72.931  1.00  0.00    -0.500 C  
HETATM   23  O   UNL     1     -13.682  13.726  72.763  1.00  0.00    -0.699 OA 
HETATM   24  O   UNL     1     -13.921  15.469  70.936  1.00  0.00    -0.489 OA 
ENDBRANCH  19  20
ENDBRANCH  16  19
ENDBRANCH  13  16
ENDBRANCH  10  13
ENDBRANCH   7  10
ENDBRANCH   6   7
ENDBRANCH   3   6
TORSDOF 7
ENDMDL
MODEL       17
REMARK 921   NORMALIZED FREE ENERGY PREDICTED BY IDOCK:   -5.40 KCAL/MOL
REMARK 922        TOTAL FREE ENERGY PREDICTED BY IDOCK:   -8.85 KCAL/MOL
REMARK 923 INTER-LIGAND FREE ENERGY PREDICTED BY IDOCK:   -7.51 KCAL/MOL
REMARK 924 INTRA-LIGAND FREE ENERGY PREDICTED BY IDOCK:   -1.34 KCAL/MOL
REMARK 927      BINDING AFFINITY PREDICTED BY RF-SCORE:    0.00 PKD
ROOT
HETATM    1  C   UNL     1     -14.392  14.930  71.320  1.00  0.00    -0.367 C  
HETATM    2  S   UNL     1     -12.889  13.993  71.418  1.00  0.00    -0.374 S  
HETATM    3  O   UNL     1     -12.585  13.805  69.818  1.00  0.00    -0.233 OA 
HETATM    4  O   UNL     1     -11.857  14.838  71.980  1.00  0.00    -0.339 OA 
HETATM    5  O   UNL     1     -13.195  12.688  71.970  1.00  0.00    -0.461 OA 
ENDROOT
BRANCH   3   6
HETATM    6  C   UNL     1     -11.383  13.081  69.534  1.00  0.00    -0.155 C  
BRANCH   6   7
HETATM    7  C   UNL     1     -10.909  13.294  68.093  1.00  0.00    -0.251 C  
HETATM    8  O   UNL     1      -9.536  13.730  68.098  1.00  0.00    -0.201 OA 
HETATM    9  H   UNL     1      -9.242  13.862  67.204  1.00  0.00     0.000 HD 
BRANCH   7  10
HETATM   10  C   UNL     1     -10.959  11.990  67.267  1.00  0.00    -0.262 C  
HETATM   11  H   UNL     1     -12.062  10.354  67.259  1.00  0.00     0.000 HD 
HETATM   12  O   UNL     1     -12.031  11.157  67.767  1.00  0.00    -0.630 OA 
BRANCH  10  13
HETATM   13  C   UNL     1     -11.197  12.151  65.754  1.00  0.00    -0.339 C  
HETATM   14  O   UNL     1     -10.034  12.818  65.219  1.00  0.00    -0.383 OA 
HETATM   15  H   UNL     1     -10.180  12.918  64.287  1.00  0.00     0.000 HD 
BRANCH  13  16
HETATM   16  C   UNL     1     -12.463  12.931  65.357  1.00  0.00    -0.454 C  
HETATM   17  H   UNL     1     -14.007  12.607  64.194  1.00  0.00     0.000 HD 
HETATM   18  O   UNL     1     -13.225  12.126  64.438  1.00  0.00    -0.758 OA 
BRANCH  16  19
HETATM   19  C   UNL     1     -12.161  14.295  64.728  1.00  0.00    -0.446 C  
BRANCH  19  20
HETATM   20  O   UNL     1     -11.843  15.212  65.784  1.00  0.00    -0.123 OA 
HETATM   21  S   UNL     1     -10.706  16.328  65.461  1.00  0.00    -0.248 S  
HETATM   22  C   UNL     1     -10.734  17.150  67.036  1.00  0.00    -0.149 C  
HETATM   23  O   UNL     1     -11.221  17.230  64.451  1.00  0.00    -1.082 OA 
HETATM   24  O   UNL     1      -9.433  15.652  65.313  1.00  0.00    -0.256 OA 
ENDBRANCH  19  20
ENDBRANCH  16  19
ENDBRANCH  13  16
ENDBRANCH  10  13
ENDBRANCH   7  10
ENDBRANCH   6   7
ENDBRANCH   3   6
TORSDOF 7
ENDMDL
MODEL       18
REMARK 921   NORMALIZED FREE ENERGY PREDICTED BY IDOCK:   -5.37 KCAL/MOL
REMARK 922        TOTAL FREE ENERGY PREDICTED BY IDOCK:   -8.82 KCAL/MOL
REMARK 923 INTER-LIGAND FREE ENERGY PREDICTED BY IDOCK:   -7.59 KCAL/MOL
REMARK 924 INTRA-LIGAND FREE ENERGY PREDICTED BY IDOCK:   -1.23 KCAL/MOL
REMARK 927      BINDING AFFINITY PREDICTED BY RF-SCORE:    0.00 PKD
ROOT
HETATM    1  C   UNL     1     -12.642  12.084  63.471  1.00  0.00    -0.507 C  
HETATM    2  S   UNL     1     -12.232  13.022  64.921  1.00  0.00    -0.461 S  
HETATM    3  O   UNL     1     -10.887  13.783  64.376  1.00  0.00    -0.395 OA 
HETATM    4  O   UNL     1     -13.263  14.016  65.131  1.00  0.00    -0.768 OA 
HETATM    5  O   UNL     1     -11.832  12.101  65.966  1.00  0.00    -0.522 OA 
ENDROOT
BRANCH   3   6
HETATM    6  C   UNL     1     -10.291  14.669  65.330  1.00  0.00    -0.399 C  
BRANCH   6   7
HETATM    7  C   UNL     1     -10.544  16.140  64.986  1.00  0.00    -0.276 C  
HETATM    8  O   UNL     1     -11.536  16.227  63.944  1.00  0.00    -1.484 OA 
HETATM    9  H   UNL     1     -11.692  17.139  63.730  1.00  0.00     0.000 HD 
BRANCH   7  10
HETATM   10  C   UNL     1     -11.095  16.932  66.191  1.00  0.00     0.335 C  
HETATM   11  H   UNL     1     -11.482  16.548  68.087  1.00  0.00     0.000 HD 
HETATM   12  O   UNL     1     -11.142  16.060  67.345  1.00  0.00    -0.278 OA 
BRANCH  10  13
HETATM   13  C   UNL     1     -10.292  18.177  66.613  1.00  0.00    -0.376 C  
HETATM   14  O   UNL     1      -9.126  18.227  65.764  1.00  0.00    -0.443 OA 
HETATM   15  H   UNL     1      -8.631  18.994  66.024  1.00  0.00     0.000 HD 
BRANCH  13  16
HETATM   16  C   UNL     1      -9.856  18.220  68.088  1.00  0.00    -0.341 C  
HETATM   17  H   UNL     1     -10.001  19.505  69.560  1.00  0.00     0.000 HD 
HETATM   18  O   UNL     1     -10.270  19.479  68.650  1.00  0.00    -0.428 OA 
BRANCH  16  19
HETATM   19  C   UNL     1      -8.346  18.037  68.276  1.00  0.00    -0.290 C  
BRANCH  19  20
HETATM   20  O   UNL     1      -7.996  16.724  67.820  1.00  0.00    -0.172 OA 
HETATM   21  S   UNL     1      -7.707  15.608  68.967  1.00  0.00    -0.215 S  
HETATM   22  C   UNL     1      -7.356  14.245  67.881  1.00  0.00    -0.156 C  
HETATM   23  O   UNL     1      -8.945  15.341  69.671  1.00  0.00    -0.232 OA 
HETATM   24  O   UNL     1      -6.489  15.974  69.660  1.00  0.00    -0.184 OA 
ENDBRANCH  19  20
ENDBRANCH  16  19
ENDBRANCH  13  16
ENDBRANCH  10  13
ENDBRANCH   7  10
ENDBRANCH   6   7
ENDBRANCH   3   6
TORSDOF 7
ENDMDL
MODEL       19
REMARK 921   NORMALIZED FREE ENERGY PREDICTED BY IDOCK:   -5.35 KCAL/MOL
REMARK 922        TOTAL FREE ENERGY PREDICTED BY IDOCK:   -8.79 KCAL/MOL
REMARK 923 INTER-LIGAND FREE ENERGY PREDICTED BY IDOCK:   -8.16 KCAL/MOL
REMARK 924 INTRA-LIGAND FREE ENERGY PREDICTED BY IDOCK:   -0.62 KCAL/MOL
REMARK 927      BINDING AFFINITY PREDICTED BY RF-SCORE:    0.00 PKD
ROOT
HETATM    1  C   UNL     1     -14.023  15.153  71.694  1.00  0.00    -0.523 C  
HETATM    2  S   UNL     1     -12.430  14.705  71.052  1.00  0.00    -0.357 S  
HETATM    3  O   UNL     1     -12.344  15.753  69.794  1.00  0.00    -0.319 OA 
HETATM    4  O   UNL     1     -11.424  15.078  72.022  1.00  0.00    -0.389 OA 
HETATM    5  O   UNL     1     -12.514  13.364  70.510  1.00  0.00    -0.323 OA 
ENDROOT
BRANCH   3   6
HETATM    6  C   UNL     1     -11.127  15.668  69.046  1.00  0.00    -0.279 C  
BRANCH   6   7
HETATM    7  C   UNL     1     -10.605  17.048  68.636  1.00  0.00    -0.362 C  
HETATM    8  O   UNL     1      -9.232  17.186  69.054  1.00  0.00    -0.236 OA 
HETATM    9  H   UNL     1      -8.908  18.042  68.799  1.00  0.00     0.000 HD 
BRANCH   7  10
HETATM   10  C   UNL     1     -10.625  17.245  67.105  1.00  0.00    -0.256 C  
HETATM   11  H   UNL     1      -9.764  18.467  65.818  1.00  0.00     0.000 HD 
HETATM   12  O   UNL     1      -9.751  18.346  66.760  1.00  0.00    -0.298 OA 
BRANCH  10  13
HETATM   13  C   UNL     1     -10.170  16.041  66.257  1.00  0.00    -0.316 C  
HETATM   14  O   UNL     1      -8.734  16.131  66.144  1.00  0.00    -0.324 OA 
HETATM   15  H   UNL     1      -8.454  15.390  65.621  1.00  0.00     0.000 HD 
BRANCH  13  16
HETATM   16  C   UNL     1     -10.791  15.943  64.853  1.00  0.00    -0.400 C  
HETATM   17  H   UNL     1     -11.765  17.153  63.658  1.00  0.00     0.000 HD 
HETATM   18  O   UNL     1     -11.382  17.214  64.525  1.00  0.00    -1.034 OA 
BRANCH  16  19
HETATM   19  C   UNL     1     -11.842  14.833  64.734  1.00  0.00    -0.423 C  
BRANCH  19  20
HETATM   20  O   UNL     1     -11.157  13.594  64.506  1.00  0.00    -0.364 OA 
HETATM   21  S   UNL     1     -11.976  12.234  64.859  1.00  0.00    -0.319 S  
HETATM   22  C   UNL     1     -10.713  11.075  64.392  1.00  0.00    -0.269 C  
HETATM   23  O   UNL     1     -13.087  12.115  63.937  1.00  0.00    -0.749 OA 
HETATM   24  O   UNL     1     -12.155  12.171  66.295  1.00  0.00    -0.626 OA 
ENDBRANCH  19  20
ENDBRANCH  16  19
ENDBRANCH  13  16
ENDBRANCH  10  13
ENDBRANCH   7  10
ENDBRANCH   6   7
ENDBRANCH   3   6
TORSDOF 7
ENDMDL
MODEL       20
REMARK 921   NORMALIZED FREE ENERGY PREDICTED BY IDOCK:   -5.35 KCAL/MOL
REMARK 922        TOTAL FREE ENERGY PREDICTED BY IDOCK:   -8.78 KCAL/MOL
REMARK 923 INTER-LIGAND FREE ENERGY PREDICTED BY IDOCK:   -7.64 KCAL/MOL
REMARK 924 INTRA-LIGAND FREE ENERGY PREDICTED BY IDOCK:   -1.14 KCAL/MOL
REMARK 927      BINDING AFFINITY PREDICTED BY RF-SCORE:    0.00 PKD
ROOT
HETATM    1  C   UNL     1     -11.226  11.269  64.034  1.00  0.00    -0.151 C  
HETATM    2  S   UNL     1     -12.080  12.808  64.257  1.00  0.00    -0.452 S  
HETATM    3  O   UNL     1     -11.048  13.538  65.302  1.00  0.00    -0.289 OA 
HETATM    4  O   UNL     1     -12.049  13.536  63.006  1.00  0.00    -0.394 OA 
HETATM    5  O   UNL     1     -13.319  12.548  64.963  1.00  0.00    -0.591 OA 
ENDROOT
BRANCH   3   6
HETATM    6  C   UNL     1     -11.445  14.858  65.686  1.00  0.00    -0.290 C  
BRANCH   6   7
HETATM    7  C   UNL     1     -10.716  15.936  64.878  1.00  0.00    -0.341 C  
HETATM    8  O   UNL     1     -11.614  16.491  63.896  1.00  0.00    -1.598 OA 
HETATM    9  H   UNL     1     -11.162  17.160  63.395  1.00  0.00     0.000 HD 
BRANCH   7  10
HETATM   10  C   UNL     1     -10.249  17.110  65.766  1.00  0.00    -0.219 C  
HETATM   11  H   UNL     1     -10.684  19.028  65.931  1.00  0.00     0.000 HD 
HETATM   12  O   UNL     1     -10.971  18.305  65.384  1.00  0.00    -0.486 OA 
BRANCH  10  13
HETATM   13  C   UNL     1     -10.452  16.939  67.283  1.00  0.00    -0.301 C  
HETATM   14  O   UNL     1     -10.952  18.198  67.780  1.00  0.00    -0.315 OA 
HETATM   15  H   UNL     1     -11.076  18.093  68.715  1.00  0.00     0.000 HD 
BRANCH  13  16
HETATM   16  C   UNL     1      -9.200  16.533  68.081  1.00  0.00    -0.217 C  
HETATM   17  H   UNL     1      -8.842  15.488  69.700  1.00  0.00     0.000 HD 
HETATM   18  O   UNL     1      -9.615  15.739  69.208  1.00  0.00    -0.236 OA 
BRANCH  16  19
HETATM   19  C   UNL     1      -8.375  17.732  68.563  1.00  0.00    -0.297 C  
BRANCH  19  20
HETATM   20  O   UNL     1      -7.769  18.344  67.417  1.00  0.00    -0.220 OA 
HETATM   21  S   UNL     1      -7.765  19.970  67.377  1.00  0.00    -0.306 S  
HETATM   22  C   UNL     1      -6.920  20.162  65.825  1.00  0.00    -0.288 C  
HETATM   23  O   UNL     1      -6.908  20.454  68.441  1.00  0.00    -0.281 OA 
HETATM   24  O   UNL     1      -9.131  20.424  67.221  1.00  0.00    -0.365 OA 
ENDBRANCH  19  20
ENDBRANCH  16  19
ENDBRANCH  13  16
ENDBRANCH  10  13
ENDBRANCH   7  10
ENDBRANCH   6   7
ENDBRANCH   3   6
TORSDOF 7
ENDMDL
MODEL       21
REMARK 921   NORMALIZED FREE ENERGY PREDICTED BY IDOCK:   -5.24 KCAL/MOL
REMARK 922        TOTAL FREE ENERGY PREDICTED BY IDOCK:   -8.63 KCAL/MOL
REMARK 923 INTER-LIGAND FREE ENERGY PREDICTED BY IDOCK:   -7.78 KCAL/MOL
REMARK 924 INTRA-LIGAND FREE ENERGY PREDICTED BY IDOCK:   -0.85 KCAL/MOL
REMARK 927      BINDING AFFINITY PREDICTED BY RF-SCORE:    0.00 PKD
ROOT
HETATM    1  C   UNL     1     -10.296  10.623  64.971  1.00  0.00    -0.271 C  
HETATM    2  S   UNL     1     -11.048  11.911  64.011  1.00  0.00    -0.424 S  
HETATM    3  O   UNL     1     -11.323  13.006  65.199  1.00  0.00    -0.285 OA 
HETATM    4  O   UNL     1     -10.051  12.456  63.113  1.00  0.00    -0.359 OA 
HETATM    5  O   UNL     1     -12.332  11.439  63.534  1.00  0.00    -0.185 OA 
ENDROOT
BRANCH   3   6
HETATM    6  C   UNL     1     -11.927  14.221  64.744  1.00  0.00    -0.440 C  
BRANCH   6   7
HETATM    7  C   UNL     1     -10.935  15.388  64.731  1.00  0.00    -0.393 C  
HETATM    8  O   UNL     1     -11.473  16.468  63.942  1.00  0.00    -1.608 OA 
HETATM    9  H   UNL     1     -10.857  17.192  63.935  1.00  0.00     0.000 HD 
BRANCH   7  10
HETATM   10  C   UNL     1     -10.685  15.953  66.146  1.00  0.00    -0.271 C  
HETATM   11  H   UNL     1      -9.417  15.595  67.615  1.00  0.00     0.000 HD 
HETATM   12  O   UNL     1      -9.571  15.248  66.744  1.00  0.00    -0.223 OA 
BRANCH  10  13
HETATM   13  C   UNL     1     -10.350  17.455  66.231  1.00  0.00    -0.330 C  
HETATM   14  O   UNL     1      -9.003  17.609  65.736  1.00  0.00    -0.509 OA 
HETATM   15  H   UNL     1      -8.797  18.534  65.789  1.00  0.00     0.000 HD 
BRANCH  13  16
HETATM   16  C   UNL     1     -10.459  18.083  67.631  1.00  0.00    -0.409 C  
HETATM   17  H   UNL     1     -10.790  19.878  68.345  1.00  0.00     0.000 HD 
HETATM   18  O   UNL     1     -10.722  19.491  67.480  1.00  0.00    -0.465 OA 
BRANCH  16  19
HETATM   19  C   UNL     1      -9.203  17.877  68.485  1.00  0.00    -0.284 C  
BRANCH  19  20
HETATM   20  O   UNL     1      -8.408  19.068  68.402  1.00  0.00    -0.322 OA 
HETATM   21  S   UNL     1      -6.802  18.862  68.254  1.00  0.00    -0.256 S  
HETATM   22  C   UNL     1      -6.353  20.580  68.185  1.00  0.00    -0.309 C  
HETATM   23  O   UNL     1      -6.533  18.254  66.966  1.00  0.00    -0.173 OA 
HETATM   24  O   UNL     1      -6.299  18.300  69.491  1.00  0.00    -0.262 OA 
ENDBRANCH  19  20
ENDBRANCH  16  19
ENDBRANCH  13  16
ENDBRANCH  10  13
ENDBRANCH   7  10
ENDBRANCH   6   7
ENDBRANCH   3   6
TORSDOF 7
ENDMDL
MODEL       22
REMARK 921   NORMALIZED FREE ENERGY PREDICTED BY IDOCK:   -5.24 KCAL/MOL
REMARK 922        TOTAL FREE ENERGY PREDICTED BY IDOCK:   -8.63 KCAL/MOL
REMARK 923 INTER-LIGAND FREE ENERGY PREDICTED BY IDOCK:   -7.71 KCAL/MOL
REMARK 924 INTRA-LIGAND FREE ENERGY PREDICTED BY IDOCK:   -0.92 KCAL/MOL
REMARK 927      BINDING AFFINITY PREDICTED BY RF-SCORE:    0.00 PKD
ROOT
HETATM    1  C   UNL     1     -12.565  11.889  63.209  1.00  0.00    -0.344 C  
HETATM    2  S   UNL     1     -11.995  13.259  64.182  1.00  0.00    -0.462 S  
HETATM    3  O   UNL     1     -12.580  12.810  65.646  1.00  0.00    -0.596 OA 
HETATM    4  O   UNL     1     -10.550  13.214  64.238  1.00  0.00    -0.403 OA 
HETATM    5  O   UNL     1     -12.709  14.449  63.763  1.00  0.00    -0.785 OA 
ENDROOT
BRANCH   3   6
HETATM    6  C   UNL     1     -12.268  13.722  66.704  1.00  0.00    -0.409 C  
BRANCH   6   7
HETATM    7  C   UNL     1     -11.831  12.997  67.980  1.00  0.00    -0.347 C  
HETATM    8  O   UNL     1     -11.987  11.575  67.803  1.00  0.00    -0.623 OA 
HETATM    9  H   UNL     1     -11.716  11.125  68.595  1.00  0.00     0.000 HD 
BRANCH   7  10
HETATM   10  C   UNL     1     -10.342  13.243  68.307  1.00  0.00    -0.249 C  
HETATM   11  H   UNL     1      -8.730  12.126  68.518  1.00  0.00     0.000 HD 
HETATM   12  O   UNL     1      -9.646  11.974  68.317  1.00  0.00    -0.197 OA 
BRANCH  10  13
HETATM   13  C   UNL     1      -9.574  14.159  67.335  1.00  0.00    -0.229 C  
HETATM   14  O   UNL     1      -8.586  13.335  66.681  1.00  0.00    -0.418 OA 
HETATM   15  H   UNL     1      -8.112  13.899  66.083  1.00  0.00     0.000 HD 
BRANCH  13  16
HETATM   16  C   UNL     1      -8.886  15.379  67.972  1.00  0.00    -0.165 C  
HETATM   17  H   UNL     1      -7.985  15.757  69.671  1.00  0.00     0.000 HD 
HETATM   18  O   UNL     1      -8.411  15.004  69.278  1.00  0.00    -0.195 OA 
BRANCH  16  19
HETATM   19  C   UNL     1      -9.804  16.601  68.082  1.00  0.00    -0.250 C  
BRANCH  19  20
HETATM   20  O   UNL     1      -9.168  17.697  67.412  1.00  0.00    -0.243 OA 
HETATM   21  S   UNL     1     -10.135  18.691  66.561  1.00  0.00    -0.414 S  
HETATM   22  C   UNL     1      -8.876  19.808  65.992  1.00  0.00    -0.258 C  
HETATM   23  O   UNL     1     -11.002  19.391  67.487  1.00  0.00    -0.464 OA 
HETATM   24  O   UNL     1     -10.653  17.957  65.425  1.00  0.00    -0.656 OA 
ENDBRANCH  19  20
ENDBRANCH  16  19
ENDBRANCH  13  16
ENDBRANCH  10  13
ENDBRANCH   7  10
ENDBRANCH   6   7
ENDBRANCH   3   6
TORSDOF 7
ENDMDL
MODEL       23
REMARK 921   NORMALIZED FREE ENERGY PREDICTED BY IDOCK:   -5.24 KCAL/MOL
REMARK 922        TOTAL FREE ENERGY PREDICTED BY IDOCK:   -8.63 KCAL/MOL
REMARK 923 INTER-LIGAND FREE ENERGY PREDICTED BY IDOCK:   -7.70 KCAL/MOL
REMARK 924 INTRA-LIGAND FREE ENERGY PREDICTED BY IDOCK:   -0.92 KCAL/MOL
REMARK 927      BINDING AFFINITY PREDICTED BY RF-SCORE:    0.00 PKD
ROOT
HETATM    1  C   UNL     1     -12.368  14.946  64.226  1.00  0.00    -0.277 C  
HETATM    2  S   UNL     1     -12.005  13.356  64.926  1.00  0.00    -0.403 S  
HETATM    3  O   UNL     1     -11.968  13.763  66.513  1.00  0.00    -0.387 OA 
HETATM    4  O   UNL     1     -13.142  12.488  64.707  1.00  0.00    -0.853 OA 
HETATM    5  O   UNL     1     -10.664  12.975  64.532  1.00  0.00    -0.340 OA 
ENDROOT
BRANCH   3   6
HETATM    6  C   UNL     1     -11.709  12.664  67.392  1.00  0.00    -0.369 C  
BRANCH   6   7
HETATM    7  C   UNL     1     -11.391  13.127  68.816  1.00  0.00    -0.291 C  
HETATM    8  O   UNL     1      -9.966  13.286  68.963  1.00  0.00    -0.424 OA 
HETATM    9  H   UNL     1      -9.769  13.574  69.848  1.00  0.00     0.000 HD 
BRANCH   7  10
HETATM   10  C   UNL     1     -12.027  14.497  69.137  1.00  0.00    -0.309 C  
HETATM   11  H   UNL     1     -13.209  15.221  70.541  1.00  0.00     0.000 HD 
HETATM   12  O   UNL     1     -12.818  14.377  70.343  1.00  0.00    -0.350 OA 
BRANCH  10  13
HETATM   13  C   UNL     1     -11.049  15.665  69.366  1.00  0.00    -0.303 C  
HETATM   14  O   UNL     1     -11.600  16.465  70.433  1.00  0.00    -0.465 OA 
HETATM   15  H   UNL     1     -10.998  17.185  70.574  1.00  0.00     0.000 HD 
BRANCH  13  16
HETATM   16  C   UNL     1     -10.778  16.557  68.142  1.00  0.00    -0.343 C  
HETATM   17  H   UNL     1      -9.553  16.513  66.613  1.00  0.00     0.000 HD 
HETATM   18  O   UNL     1      -9.719  15.962  67.369  1.00  0.00    -0.225 OA 
BRANCH  16  19
HETATM   19  C   UNL     1     -10.407  17.997  68.514  1.00  0.00    -0.349 C  
BRANCH  19  20
HETATM   20  O   UNL     1      -9.282  18.387  67.714  1.00  0.00    -0.271 OA 
HETATM   21  S   UNL     1      -9.545  19.552  66.610  1.00  0.00    -0.390 S  
HETATM   22  C   UNL     1      -7.892  19.633  65.962  1.00  0.00    -0.326 C  
HETATM   23  O   UNL     1      -9.837  20.788  67.307  1.00  0.00    -0.474 OA 
HETATM   24  O   UNL     1     -10.419  19.019  65.586  1.00  0.00    -0.554 OA 
ENDBRANCH  19  20
ENDBRANCH  16  19
ENDBRANCH  13  16
ENDBRANCH  10  13
ENDBRANCH   7  10
ENDBRANCH   6   7
ENDBRANCH   3   6
TORSDOF 7
ENDMDL
MODEL       24
REMARK 921   NORMALIZED FREE ENERGY PREDICTED BY IDOCK:   -5.23 KCAL/MOL
REMARK 922        TOTAL FREE ENERGY PREDICTED BY IDOCK:   -8.62 KCAL/MOL
REMARK 923 INTER-LIGAND FREE ENERGY PREDICTED BY IDOCK:   -7.11 KCAL/MOL
REMARK 924 INTRA-LIGAND FREE ENERGY PREDICTED BY IDOCK:   -1.51 KCAL/MOL
REMARK 927      BINDING AFFINITY PREDICTED BY RF-SCORE:    0.00 PKD
ROOT
HETATM    1  C   UNL     1     -13.418   7.392  71.368  1.00  0.00    -0.330 C  
HETATM    2  S   UNL     1     -12.493   8.827  71.851  1.00  0.00    -0.400 S  
HETATM    3  O   UNL     1     -11.871   9.248  70.394  1.00  0.00    -0.191 OA 
HETATM    4  O   UNL     1     -13.424   9.857  72.261  1.00  0.00    -0.430 OA 
HETATM    5  O   UNL     1     -11.397   8.403  72.698  1.00  0.00    -0.372 OA 
ENDROOT
BRANCH   3   6
HETATM    6  C   UNL     1     -11.058  10.425  70.425  1.00  0.00    -0.296 C  
BRANCH   6   7
HETATM    7  C   UNL     1     -11.257  11.296  69.181  1.00  0.00    -0.273 C  
HETATM    8  O   UNL     1     -11.936  10.534  68.164  1.00  0.00    -0.788 OA 
HETATM    9  H   UNL     1     -12.059  11.074  67.392  1.00  0.00     0.000 HD 
BRANCH   7  10
HETATM   10  C   UNL     1     -12.136  12.532  69.471  1.00  0.00    -0.187 C  
HETATM   11  H   UNL     1     -12.810  13.449  71.083  1.00  0.00     0.000 HD 
HETATM   12  O   UNL     1     -12.269  12.688  70.904  1.00  0.00    -0.349 OA 
BRANCH  10  13
HETATM   13  C   UNL     1     -11.620  13.878  68.928  1.00  0.00    -0.316 C  
HETATM   14  O   UNL     1     -12.457  14.220  67.804  1.00  0.00    -0.567 OA 
HETATM   15  H   UNL     1     -12.139  15.049  67.468  1.00  0.00     0.000 HD 
BRANCH  13  16
HETATM   16  C   UNL     1     -10.144  13.900  68.494  1.00  0.00    -0.234 C  
HETATM   17  H   UNL     1      -8.569  14.987  68.919  1.00  0.00     0.000 HD 
HETATM   18  O   UNL     1      -9.481  14.974  69.186  1.00  0.00    -0.208 OA 
BRANCH  16  19
HETATM   19  C   UNL     1      -9.961  14.063  66.981  1.00  0.00    -0.257 C  
BRANCH  19  20
HETATM   20  O   UNL     1      -9.811  12.757  66.408  1.00  0.00    -0.257 OA 
HETATM   21  S   UNL     1     -10.832  12.371  65.202  1.00  0.00    -0.309 S  
HETATM   22  C   UNL     1     -10.209  10.737  64.886  1.00  0.00    -0.320 C  
HETATM   23  O   UNL     1     -10.537  13.215  64.062  1.00  0.00    -0.402 OA 
HETATM   24  O   UNL     1     -12.166  12.260  65.754  1.00  0.00    -0.622 OA 
ENDBRANCH  19  20
ENDBRANCH  16  19
ENDBRANCH  13  16
ENDBRANCH  10  13
ENDBRANCH   7  10
ENDBRANCH   6   7
ENDBRANCH   3   6
TORSDOF 7
ENDMDL
MODEL       25
REMARK 921   NORMALIZED FREE ENERGY PREDICTED BY IDOCK:   -5.21 KCAL/MOL
REMARK 922        TOTAL FREE ENERGY PREDICTED BY IDOCK:   -8.58 KCAL/MOL
REMARK 923 INTER-LIGAND FREE ENERGY PREDICTED BY IDOCK:   -7.51 KCAL/MOL
REMARK 924 INTRA-LIGAND FREE ENERGY PREDICTED BY IDOCK:   -1.07 KCAL/MOL
REMARK 927      BINDING AFFINITY PREDICTED BY RF-SCORE:    0.00 PKD
ROOT
HETATM    1  C   UNL     1     -10.042   9.232  66.154  1.00  0.00    -0.233 C  
HETATM    2  S   UNL     1      -9.471  10.625  65.214  1.00  0.00    -0.242 S  
HETATM    3  O   UNL     1     -10.786  10.864  64.265  1.00  0.00    -0.353 OA 
HETATM    4  O   UNL     1      -9.342  11.758  66.105  1.00  0.00    -0.221 OA 
HETATM    5  O   UNL     1      -8.381  10.190  64.364  1.00  0.00    -0.158 OA 
ENDROOT
BRANCH   3   6
HETATM    6  C   UNL     1     -10.662  11.970  63.365  1.00  0.00    -0.417 C  
BRANCH   6   7
HETATM    7  C   UNL     1     -11.911  12.856  63.364  1.00  0.00    -0.537 C  
HETATM    8  O   UNL     1     -13.050  12.080  63.787  1.00  0.00    -0.730 OA 
HETATM    9  H   UNL     1     -13.826  12.630  63.786  1.00  0.00     0.000 HD 
BRANCH   7  10
HETATM   10  C   UNL     1     -11.787  14.037  64.351  1.00  0.00    -0.431 C  
HETATM   11  H   UNL     1     -12.422  15.903  64.420  1.00  0.00     0.000 HD 
HETATM   12  O   UNL     1     -12.498  15.176  63.813  1.00  0.00    -0.719 OA 
BRANCH  10  13
HETATM   13  C   UNL     1     -12.342  13.801  65.769  1.00  0.00    -0.486 C  
HETATM   14  O   UNL     1     -13.745  14.135  65.726  1.00  0.00    -0.433 OA 
HETATM   15  H   UNL     1     -14.087  13.990  66.600  1.00  0.00     0.000 HD 
BRANCH  13  16
HETATM   16  C   UNL     1     -11.658  14.598  66.893  1.00  0.00    -0.362 C  
HETATM   17  H   UNL     1      -9.815  15.080  67.355  1.00  0.00     0.000 HD 
HETATM   18  O   UNL     1     -10.237  14.587  66.661  1.00  0.00    -0.266 OA 
BRANCH  16  19
HETATM   19  C   UNL     1     -11.961  14.052  68.292  1.00  0.00    -0.349 C  
BRANCH  19  20
HETATM   20  O   UNL     1     -10.972  13.062  68.608  1.00  0.00    -0.247 OA 
HETATM   21  S   UNL     1     -11.520  11.650  69.199  1.00  0.00    -0.329 S  
HETATM   22  C   UNL     1      -9.944  10.849  69.383  1.00  0.00    -0.057 C  
HETATM   23  O   UNL     1     -12.270  10.976  68.159  1.00  0.00    -0.578 OA 
HETATM   24  O   UNL     1     -12.073  11.892  70.516  1.00  0.00    -0.366 OA 
ENDBRANCH  19  20
ENDBRANCH  16  19
ENDBRANCH  13  16
ENDBRANCH  10  13
ENDBRANCH   7  10
ENDBRANCH   6   7
ENDBRANCH   3   6
TORSDOF 7
ENDMDL
MODEL       26
REMARK 921   NORMALIZED FREE ENERGY PREDICTED BY IDOCK:   -5.20 KCAL/MOL
REMARK 922        TOTAL FREE ENERGY PREDICTED BY IDOCK:   -8.57 KCAL/MOL
REMARK 923 INTER-LIGAND FREE ENERGY PREDICTED BY IDOCK:   -7.94 KCAL/MOL
REMARK 924 INTRA-LIGAND FREE ENERGY PREDICTED BY IDOCK:   -0.64 KCAL/MOL
REMARK 927      BINDING AFFINITY PREDICTED BY RF-SCORE:    0.00 PKD
ROOT
HETATM    1  C   UNL     1     -12.002  11.606  70.314  1.00  0.00    -0.358 C  
HETATM    2  S   UNL     1     -10.981  11.061  68.968  1.00  0.00    -0.253 S  
HETATM    3  O   UNL     1     -10.856  12.470  68.139  1.00  0.00    -0.206 OA 
HETATM    4  O   UNL     1      -9.675  10.724  69.491  1.00  0.00    -0.133 OA 
HETATM    5  O   UNL     1     -11.746  10.134  68.158  1.00  0.00    -0.199 OA 
ENDROOT
BRANCH   3   6
HETATM    6  C   UNL     1     -10.049  12.383  66.961  1.00  0.00    -0.214 C  
BRANCH   6   7
HETATM    7  C   UNL     1     -10.881  12.062  65.715  1.00  0.00    -0.287 C  
HETATM    8  O   UNL     1     -12.274  11.974  66.077  1.00  0.00    -0.546 OA 
HETATM    9  H   UNL     1     -12.790  11.776  65.304  1.00  0.00     0.000 HD 
BRANCH   7  10
HETATM   10  C   UNL     1     -10.770  13.167  64.643  1.00  0.00    -0.380 C  
HETATM   11  H   UNL     1     -10.533  13.229  62.685  1.00  0.00     0.000 HD 
HETATM   12  O   UNL     1     -10.602  12.549  63.345  1.00  0.00    -0.415 OA 
BRANCH  10  13
HETATM   13  C   UNL     1     -11.972  14.123  64.522  1.00  0.00    -0.458 C  
HETATM   14  O   UNL     1     -12.417  14.060  63.151  1.00  0.00    -1.137 OA 
HETATM   15  H   UNL     1     -13.157  14.649  63.076  1.00  0.00     0.000 HD 
BRANCH  13  16
HETATM   16  C   UNL     1     -11.700  15.588  64.907  1.00  0.00    -0.118 C  
HETATM   17  H   UNL     1     -11.527  17.286  63.944  1.00  0.00     0.000 HD 
HETATM   18  O   UNL     1     -11.695  16.382  63.706  1.00  0.00    -1.049 OA 
BRANCH  16  19
HETATM   19  C   UNL     1     -10.380  15.779  65.663  1.00  0.00    -0.388 C  
BRANCH  19  20
HETATM   20  O   UNL     1     -10.070  17.179  65.670  1.00  0.00    -0.561 OA 
HETATM   21  S   UNL     1      -9.581  17.808  67.088  1.00  0.00    -0.285 S  
HETATM   22  C   UNL     1      -9.336  19.477  66.528  1.00  0.00    -0.370 C  
HETATM   23  O   UNL     1      -8.295  17.233  67.427  1.00  0.00    -0.195 OA 
HETATM   24  O   UNL     1     -10.701  17.786  68.005  1.00  0.00    -0.382 OA 
ENDBRANCH  19  20
ENDBRANCH  16  19
ENDBRANCH  13  16
ENDBRANCH  10  13
ENDBRANCH   7  10
ENDBRANCH   6   7
ENDBRANCH   3   6
TORSDOF 7
ENDMDL
MODEL       27
REMARK 921   NORMALIZED FREE ENERGY PREDICTED BY IDOCK:   -5.20 KCAL/MOL
REMARK 922        TOTAL FREE ENERGY PREDICTED BY IDOCK:   -8.57 KCAL/MOL
REMARK 923 INTER-LIGAND FREE ENERGY PREDICTED BY IDOCK:   -7.54 KCAL/MOL
REMARK 924 INTRA-LIGAND FREE ENERGY PREDICTED BY IDOCK:   -1.04 KCAL/MOL
REMARK 927      BINDING AFFINITY PREDICTED BY RF-SCORE:    0.00 PKD
ROOT
HETATM    1  C   UNL     1     -12.512  12.118  63.418  1.00  0.00    -0.512 C  
HETATM    2  S   UNL     1     -11.948  13.398  64.510  1.00  0.00    -0.428 S  
HETATM    3  O   UNL     1     -12.359  12.726  65.947  1.00  0.00    -0.551 OA 
HETATM    4  O   UNL     1     -10.504  13.461  64.435  1.00  0.00    -0.426 OA 
HETATM    5  O   UNL     1     -12.778  14.569  64.312  1.00  0.00    -0.659 OA 
ENDROOT
BRANCH   3   6
HETATM    6  C   UNL     1     -12.011  13.522  67.084  1.00  0.00    -0.381 C  
BRANCH   6   7
HETATM    7  C   UNL     1     -11.138  12.754  68.080  1.00  0.00    -0.250 C  
HETATM    8  O   UNL     1     -10.732  13.636  69.145  1.00  0.00    -0.375 OA 
HETATM    9  H   UNL     1     -10.190  13.159  69.763  1.00  0.00     0.000 HD 
BRANCH   7  10
HETATM   10  C   UNL     1     -11.900  11.583  68.739  1.00  0.00    -0.330 C  
HETATM   11  H   UNL     1     -12.066   9.642  68.429  1.00  0.00     0.000 HD 
HETATM   12  O   UNL     1     -11.597  10.362  68.023  1.00  0.00    -0.392 OA 
BRANCH  10  13
HETATM   13  C   UNL     1     -11.584  11.314  70.222  1.00  0.00    -0.275 C  
HETATM   14  O   UNL     1     -10.369  10.536  70.254  1.00  0.00    -0.434 OA 
HETATM   15  H   UNL     1     -10.174  10.369  71.168  1.00  0.00     0.000 HD 
BRANCH  13  16
HETATM   16  C   UNL     1     -12.682  10.584  71.015  1.00  0.00    -0.408 C  
HETATM   17  H   UNL     1     -13.876  11.032  72.503  1.00  0.00     0.000 HD 
HETATM   18  O   UNL     1     -13.198  11.483  72.014  1.00  0.00    -0.509 OA 
BRANCH  16  19
HETATM   19  C   UNL     1     -12.190   9.293  71.680  1.00  0.00    -0.370 C  
BRANCH  19  20
HETATM   20  O   UNL     1     -12.047   8.294  70.660  1.00  0.00    -0.136 OA 
HETATM   21  S   UNL     1     -10.989   7.096  70.959  1.00  0.00    -0.260 S  
HETATM   22  C   UNL     1     -11.226   6.195  69.446  1.00  0.00    -0.396 C  
HETATM   23  O   UNL     1     -11.493   6.302  72.062  1.00  0.00    -0.282 OA 
HETATM   24  O   UNL     1      -9.654   7.658  70.961  1.00  0.00    -0.163 OA 
ENDBRANCH  19  20
ENDBRANCH  16  19
ENDBRANCH  13  16
ENDBRANCH  10  13
ENDBRANCH   7  10
ENDBRANCH   6   7
ENDBRANCH   3   6
TORSDOF 7
ENDMDL
MODEL       28
REMARK 921   NORMALIZED FREE ENERGY PREDICTED BY IDOCK:   -5.19 KCAL/MOL
REMARK 922        TOTAL FREE ENERGY PREDICTED BY IDOCK:   -8.56 KCAL/MOL
REMARK 923 INTER-LIGAND FREE ENERGY PREDICTED BY IDOCK:   -8.26 KCAL/MOL
REMARK 924 INTRA-LIGAND FREE ENERGY PREDICTED BY IDOCK:   -0.30 KCAL/MOL
REMARK 927      BINDING AFFINITY PREDICTED BY RF-SCORE:    0.00 PKD
ROOT
HETATM    1  C   UNL     1     -10.384  19.073  67.702  1.00  0.00    -0.423 C  
HETATM    2  S   UNL     1     -10.119  18.218  66.170  1.00  0.00    -0.300 S  
HETATM    3  O   UNL     1     -10.448  16.688  66.656  1.00  0.00    -0.298 OA 
HETATM    4  O   UNL     1     -11.144  18.627  65.233  1.00  0.00    -0.409 OA 
HETATM    5  O   UNL     1      -8.709  18.289  65.842  1.00  0.00    -0.500 OA 
ENDROOT
BRANCH   3   6
HETATM    6  C   UNL     1     -10.343  15.710  65.616  1.00  0.00    -0.385 C  
BRANCH   6   7
HETATM    7  C   UNL     1     -11.691  15.443  64.940  1.00  0.00    -0.174 C  
HETATM    8  O   UNL     1     -11.792  16.235  63.739  1.00  0.00    -1.445 OA 
HETATM    9  H   UNL     1     -12.628  16.069  63.320  1.00  0.00     0.000 HD 
BRANCH   7  10
HETATM   10  C   UNL     1     -11.844  13.967  64.513  1.00  0.00    -0.434 C  
HETATM   11  H   UNL     1     -12.644  13.005  62.988  1.00  0.00     0.000 HD 
HETATM   12  O   UNL     1     -12.550  13.913  63.250  1.00  0.00    -0.824 OA 
BRANCH  10  13
HETATM   13  C   UNL     1     -10.536  13.175  64.319  1.00  0.00    -0.412 C  
HETATM   14  O   UNL     1     -10.676  12.436  63.088  1.00  0.00    -0.592 OA 
HETATM   15  H   UNL     1      -9.871  11.948  62.969  1.00  0.00     0.000 HD 
BRANCH  13  16
HETATM   16  C   UNL     1     -10.168  12.209  65.459  1.00  0.00    -0.265 C  
HETATM   17  H   UNL     1      -9.328  10.443  65.589  1.00  0.00     0.000 HD 
HETATM   18  O   UNL     1      -9.556  11.039  64.886  1.00  0.00    -0.221 OA 
BRANCH  16  19
HETATM   19  C   UNL     1     -11.371  11.801  66.317  1.00  0.00    -0.287 C  
BRANCH  19  20
HETATM   20  O   UNL     1     -11.633  12.859  67.249  1.00  0.00    -0.319 OA 
HETATM   21  S   UNL     1     -10.778  12.838  68.632  1.00  0.00    -0.224 S  
HETATM   22  C   UNL     1     -11.469  14.308  69.353  1.00  0.00    -0.292 C  
HETATM   23  O   UNL     1      -9.385  13.080  68.316  1.00  0.00    -0.212 OA 
HETATM   24  O   UNL     1     -11.204  11.695  69.412  1.00  0.00    -0.250 OA 
ENDBRANCH  19  20
ENDBRANCH  16  19
ENDBRANCH  13  16
ENDBRANCH  10  13
ENDBRANCH   7  10
ENDBRANCH   6   7
ENDBRANCH   3   6
TORSDOF 7
ENDMDL
MODEL       29
REMARK 921   NORMALIZED FREE ENERGY PREDICTED BY IDOCK:   -5.19 KCAL/MOL
REMARK 922        TOTAL FREE ENERGY PREDICTED BY IDOCK:   -8.56 KCAL/MOL
REMARK 923 INTER-LIGAND FREE ENERGY PREDICTED BY IDOCK:   -7.78 KCAL/MOL
REMARK 924 INTRA-LIGAND FREE ENERGY PREDICTED BY IDOCK:   -0.78 KCAL/MOL
REMARK 927      BINDING AFFINITY PREDICTED BY RF-SCORE:    0.00 PKD
ROOT
HETATM    1  C   UNL     1     -10.824  11.838  63.294  1.00  0.00    -0.326 C  
HETATM    2  S   UNL     1     -11.894  12.934  64.190  1.00  0.00    -0.450 S  
HETATM    3  O   UNL     1     -10.767  13.819  64.985  1.00  0.00    -0.335 OA 
HETATM    4  O   UNL     1     -12.563  13.798  63.241  1.00  0.00    -0.830 OA 
HETATM    5  O   UNL     1     -12.628  12.160  65.171  1.00  0.00    -0.505 OA 
ENDROOT
BRANCH   3   6
HETATM    6  C   UNL     1     -11.313  14.848  65.816  1.00  0.00    -0.314 C  
BRANCH   6   7
HETATM    7  C   UNL     1     -10.223  15.724  66.440  1.00  0.00    -0.293 C  
HETATM    8  O   UNL     1      -8.928  15.161  66.149  1.00  0.00    -0.417 OA 
HETATM    9  H   UNL     1      -8.252  15.705  66.536  1.00  0.00     0.000 HD 
BRANCH   7  10
HETATM   10  C   UNL     1     -10.226  17.155  65.861  1.00  0.00    -0.276 C  
HETATM   11  H   UNL     1     -11.158  18.094  64.398  1.00  0.00     0.000 HD 
HETATM   12  O   UNL     1     -11.157  17.213  64.754  1.00  0.00    -0.909 OA 
BRANCH  10  13
HETATM   13  C   UNL     1     -10.626  18.282  66.832  1.00  0.00    -0.329 C  
HETATM   14  O   UNL     1     -10.572  19.515  66.083  1.00  0.00    -0.468 OA 
HETATM   15  H   UNL     1     -10.819  20.209  66.682  1.00  0.00     0.000 HD 
BRANCH  13  16
HETATM   16  C   UNL     1      -9.759  18.411  68.097  1.00  0.00    -0.331 C  
HETATM   17  H   UNL     1      -9.377  19.822  69.402  1.00  0.00     0.000 HD 
HETATM   18  O   UNL     1      -9.912  19.743  68.622  1.00  0.00    -0.427 OA 
BRANCH  16  19
HETATM   19  C   UNL     1      -8.276  18.117  67.845  1.00  0.00    -0.249 C  
BRANCH  19  20
HETATM   20  O   UNL     1      -7.580  19.369  67.777  1.00  0.00    -0.255 OA 
HETATM   21  S   UNL     1      -6.787  19.686  66.392  1.00  0.00    -0.222 S  
HETATM   22  C   UNL     1      -6.159  21.286  66.847  1.00  0.00    -0.333 C  
HETATM   23  O   UNL     1      -7.761  19.848  65.332  1.00  0.00    -0.356 OA 
HETATM   24  O   UNL     1      -5.675  18.765  66.284  1.00  0.00    -0.150 OA 
ENDBRANCH  19  20
ENDBRANCH  16  19
ENDBRANCH  13  16
ENDBRANCH  10  13
ENDBRANCH   7  10
ENDBRANCH   6   7
ENDBRANCH   3   6
TORSDOF 7
ENDMDL
MODEL       30
REMARK 921   NORMALIZED FREE ENERGY PREDICTED BY IDOCK:   -5.19 KCAL/MOL
REMARK 922        TOTAL FREE ENERGY PREDICTED BY IDOCK:   -8.56 KCAL/MOL
REMARK 923 INTER-LIGAND FREE ENERGY PREDICTED BY IDOCK:   -7.49 KCAL/MOL
REMARK 924 INTRA-LIGAND FREE ENERGY PREDICTED BY IDOCK:   -1.06 KCAL/MOL
REMARK 927      BINDING AFFINITY PREDICTED BY RF-SCORE:    0.00 PKD
ROOT
HETATM    1  C   UNL     1      -6.680  10.899  66.411  1.00  0.00    -0.134 C  
HETATM    2  S   UNL     1      -8.404  10.561  66.661  1.00  0.00    -0.135 S  
HETATM    3  O   UNL     1      -8.968  10.932  65.167  1.00  0.00    -0.197 OA 
HETATM    4  O   UNL     1      -8.568   9.138  66.868  1.00  0.00    -0.121 OA 
HETATM    5  O   UNL     1      -8.933  11.537  67.592  1.00  0.00    -0.153 OA 
ENDROOT
BRANCH   3   6
HETATM    6  C   UNL     1     -10.379  10.743  65.014  1.00  0.00    -0.287 C  
BRANCH   6   7
HETATM    7  C   UNL     1     -11.047  11.934  64.320  1.00  0.00    -0.356 C  
HETATM    8  O   UNL     1     -11.779  11.470  63.168  1.00  0.00    -0.854 OA 
HETATM    9  H   UNL     1     -12.194  12.210  62.737  1.00  0.00     0.000 HD 
BRANCH   7  10
HETATM   10  C   UNL     1     -12.067  12.643  65.238  1.00  0.00    -0.467 C  
HETATM   11  H   UNL     1     -12.726  12.403  67.081  1.00  0.00     0.000 HD 
HETATM   12  O   UNL     1     -12.099  11.966  66.517  1.00  0.00    -0.568 OA 
BRANCH  10  13
HETATM   13  C   UNL     1     -11.797  14.131  65.534  1.00  0.00    -0.364 C  
HETATM   14  O   UNL     1     -11.022  14.640  64.429  1.00  0.00    -0.610 OA 
HETATM   15  H   UNL     1     -10.855  15.557  64.611  1.00  0.00     0.000 HD 
BRANCH  13  16
HETATM   16  C   UNL     1     -11.064  14.425  66.855  1.00  0.00    -0.323 C  
HETATM   17  H   UNL     1     -11.566  15.122  68.616  1.00  0.00     0.000 HD 
HETATM   18  O   UNL     1     -12.018  14.941  67.801  1.00  0.00    -0.321 OA 
BRANCH  16  19
HETATM   19  C   UNL     1      -9.903  15.412  66.694  1.00  0.00    -0.255 C  
BRANCH  19  20
HETATM   20  O   UNL     1     -10.351  16.701  67.134  1.00  0.00    -0.293 OA 
HETATM   21  S   UNL     1     -10.182  17.929  66.080  1.00  0.00    -0.288 S  
HETATM   22  C   UNL     1     -10.879  19.207  67.100  1.00  0.00    -0.410 C  
HETATM   23  O   UNL     1     -11.064  17.693  64.955  1.00  0.00    -0.854 OA 
HETATM   24  O   UNL     1      -8.768  18.191  65.910  1.00  0.00    -0.505 OA 
ENDBRANCH  19  20
ENDBRANCH  16  19
ENDBRANCH  13  16
ENDBRANCH  10  13
ENDBRANCH   7  10
ENDBRANCH   6   7
ENDBRANCH   3   6
TORSDOF 7
ENDMDL
MODEL       31
REMARK 921   NORMALIZED FREE ENERGY PREDICTED BY IDOCK:   -5.19 KCAL/MOL
REMARK 922        TOTAL FREE ENERGY PREDICTED BY IDOCK:   -8.56 KCAL/MOL
REMARK 923 INTER-LIGAND FREE ENERGY PREDICTED BY IDOCK:   -7.66 KCAL/MOL
REMARK 924 INTRA-LIGAND FREE ENERGY PREDICTED BY IDOCK:   -0.89 KCAL/MOL
REMARK 927      BINDING AFFINITY PREDICTED BY RF-SCORE:    0.00 PKD
ROOT
HETATM    1  C   UNL     1     -10.380  20.200  66.478  1.00  0.00    -0.383 C  
HETATM    2  S   UNL     1      -9.504  18.817  67.162  1.00  0.00    -0.313 S  
HETATM    3  O   UNL     1      -9.549  17.806  65.872  1.00  0.00    -0.517 OA 
HETATM    4  O   UNL     1      -8.129  19.209  67.384  1.00  0.00    -0.266 OA 
HETATM    5  O   UNL     1     -10.314  18.234  68.213  1.00  0.00    -0.367 OA 
ENDROOT
BRANCH   3   6
HETATM    6  C   UNL     1      -8.887  16.556  66.088  1.00  0.00    -0.306 C  
BRANCH   6   7
HETATM    7  C   UNL     1      -9.809  15.362  65.819  1.00  0.00    -0.364 C  
HETATM    8  O   UNL     1      -9.940  14.576  67.020  1.00  0.00    -0.248 OA 
HETATM    9  H   UNL     1     -10.513  13.836  66.853  1.00  0.00     0.000 HD 
BRANCH   7  10
HETATM   10  C   UNL     1     -11.233  15.807  65.421  1.00  0.00    -0.142 C  
HETATM   11  H   UNL     1     -12.040  16.830  63.939  1.00  0.00     0.000 HD 
HETATM   12  O   UNL     1     -11.164  16.556  64.184  1.00  0.00    -1.004 OA 
BRANCH  10  13
HETATM   13  C   UNL     1     -12.260  14.681  65.195  1.00  0.00    -0.282 C  
HETATM   14  O   UNL     1     -12.629  14.188  66.500  1.00  0.00    -0.542 OA 
HETATM   15  H   UNL     1     -13.262  13.494  66.362  1.00  0.00     0.000 HD 
BRANCH  13  16
HETATM   16  C   UNL     1     -11.783  13.509  64.320  1.00  0.00    -0.416 C  
HETATM   17  H   UNL     1     -12.287  12.756  62.582  1.00  0.00     0.000 HD 
HETATM   18  O   UNL     1     -12.582  13.479  63.122  1.00  0.00    -0.762 OA 
BRANCH  16  19
HETATM   19  C   UNL     1     -11.858  12.154  65.031  1.00  0.00    -0.298 C  
BRANCH  19  20
HETATM   20  O   UNL     1     -10.835  12.120  66.035  1.00  0.00    -0.263 OA 
HETATM   21  S   UNL     1     -10.898  10.890  67.097  1.00  0.00    -0.268 S  
HETATM   22  C   UNL     1      -9.459  11.328  68.043  1.00  0.00    -0.173 C  
HETATM   23  O   UNL     1     -10.635   9.655  66.386  1.00  0.00    -0.150 OA 
HETATM   24  O   UNL     1     -12.071  11.066  67.928  1.00  0.00    -0.600 OA 
ENDBRANCH  19  20
ENDBRANCH  16  19
ENDBRANCH  13  16
ENDBRANCH  10  13
ENDBRANCH   7  10
ENDBRANCH   6   7
ENDBRANCH   3   6
TORSDOF 7
ENDMDL
MODEL       32
REMARK 921   NORMALIZED FREE ENERGY PREDICTED BY IDOCK:   -5.18 KCAL/MOL
REMARK 922        TOTAL FREE ENERGY PREDICTED BY IDOCK:   -8.54 KCAL/MOL
REMARK 923 INTER-LIGAND FREE ENERGY PREDICTED BY IDOCK:   -7.51 KCAL/MOL
REMARK 924 INTRA-LIGAND FREE ENERGY PREDICTED BY IDOCK:   -1.02 KCAL/MOL
REMARK 927      BINDING AFFINITY PREDICTED BY RF-SCORE:    0.00 PKD
ROOT
HETATM    1  C   UNL     1     -12.476  11.949  63.216  1.00  0.00    -0.384 C  
HETATM    2  S   UNL     1     -11.969  13.333  64.203  1.00  0.00    -0.462 S  
HETATM    3  O   UNL     1     -12.646  12.905  65.633  1.00  0.00    -0.555 OA 
HETATM    4  O   UNL     1     -10.530  13.289  64.351  1.00  0.00    -0.412 OA 
HETATM    5  O   UNL     1     -12.655  14.516  63.722  1.00  0.00    -0.825 OA 
ENDROOT
BRANCH   3   6
HETATM    6  C   UNL     1     -12.402  13.832  66.695  1.00  0.00    -0.357 C  
BRANCH   6   7
HETATM    7  C   UNL     1     -11.888  13.138  67.960  1.00  0.00    -0.358 C  
HETATM    8  O   UNL     1     -12.116  11.719  67.856  1.00  0.00    -0.592 OA 
HETATM    9  H   UNL     1     -11.797  11.288  68.641  1.00  0.00     0.000 HD 
BRANCH   7  10
HETATM   10  C   UNL     1     -10.368  13.330  68.150  1.00  0.00    -0.244 C  
HETATM   11  H   UNL     1      -8.733  12.384  67.582  1.00  0.00     0.000 HD 
HETATM   12  O   UNL     1      -9.668  12.265  67.464  1.00  0.00    -0.185 OA 
BRANCH  10  13
HETATM   13  C   UNL     1      -9.777  14.653  67.625  1.00  0.00    -0.214 C  
HETATM   14  O   UNL     1      -8.875  14.309  66.553  1.00  0.00    -0.430 OA 
HETATM   15  H   UNL     1      -8.511  15.124  66.229  1.00  0.00     0.000 HD 
BRANCH  13  16
HETATM   16  C   UNL     1      -9.035  15.511  68.665  1.00  0.00    -0.194 C  
HETATM   17  H   UNL     1      -9.524  16.472  70.302  1.00  0.00     0.000 HD 
HETATM   18  O   UNL     1      -9.982  15.943  69.660  1.00  0.00    -0.265 OA 
BRANCH  16  19
HETATM   19  C   UNL     1      -8.331  16.727  68.053  1.00  0.00    -0.200 C  
BRANCH  19  20
HETATM   20  O   UNL     1      -9.333  17.587  67.493  1.00  0.00    -0.243 OA 
HETATM   21  S   UNL     1      -8.823  19.019  66.917  1.00  0.00    -0.312 S  
HETATM   22  C   UNL     1     -10.401  19.622  66.365  1.00  0.00    -0.504 C  
HETATM   23  O   UNL     1      -7.983  18.777  65.762  1.00  0.00    -0.476 OA 
HETATM   24  O   UNL     1      -8.382  19.828  68.034  1.00  0.00    -0.302 OA 
ENDBRANCH  19  20
ENDBRANCH  16  19
ENDBRANCH  13  16
ENDBRANCH  10  13
ENDBRANCH   7  10
ENDBRANCH   6   7
ENDBRANCH   3   6
TORSDOF 7
ENDMDL
MODEL       33
REMARK 921   NORMALIZED FREE ENERGY PREDICTED BY IDOCK:   -5.17 KCAL/MOL
REMARK 922        TOTAL FREE ENERGY PREDICTED BY IDOCK:   -8.53 KCAL/MOL
REMARK 923 INTER-LIGAND FREE ENERGY PREDICTED BY IDOCK:   -7.62 KCAL/MOL
REMARK 924 INTRA-LIGAND FREE ENERGY PREDICTED BY IDOCK:   -0.91 KCAL/MOL
REMARK 927      BINDING AFFINITY PREDICTED BY RF-SCORE:    0.00 PKD
ROOT
HETATM    1  C   UNL     1     -10.854  19.437  67.071  1.00  0.00    -0.432 C  
HETATM    2  S   UNL     1     -10.199  18.084  66.128  1.00  0.00    -0.311 S  
HETATM    3  O   UNL     1     -10.563  16.849  67.143  1.00  0.00    -0.313 OA 
HETATM    4  O   UNL     1     -10.994  17.934  64.928  1.00  0.00    -0.827 OA 
HETATM    5  O   UNL     1      -8.756  18.212  66.081  1.00  0.00    -0.460 OA 
ENDROOT
BRANCH   3   6
HETATM    6  C   UNL     1     -10.174  15.560  66.656  1.00  0.00    -0.276 C  
BRANCH   6   7
HETATM    7  C   UNL     1     -11.255  14.503  66.898  1.00  0.00    -0.336 C  
HETATM    8  O   UNL     1     -12.087  14.909  68.003  1.00  0.00    -0.547 OA 
HETATM    9  H   UNL     1     -12.757  14.252  68.152  1.00  0.00     0.000 HD 
BRANCH   7  10
HETATM   10  C   UNL     1     -12.187  14.336  65.678  1.00  0.00    -0.400 C  
HETATM   11  H   UNL     1     -12.141  14.849  63.773  1.00  0.00     0.000 HD 
HETATM   12  O   UNL     1     -11.567  14.952  64.524  1.00  0.00    -0.392 OA 
BRANCH  10  13
HETATM   13  C   UNL     1     -12.528  12.889  65.274  1.00  0.00    -0.493 C  
HETATM   14  O   UNL     1     -12.120  12.044  66.370  1.00  0.00    -0.610 OA 
HETATM   15  H   UNL     1     -12.330  11.153  66.122  1.00  0.00     0.000 HD 
BRANCH  13  16
HETATM   16  C   UNL     1     -11.878  12.390  63.972  1.00  0.00    -0.439 C  
HETATM   17  H   UNL     1     -12.512  11.577  62.305  1.00  0.00     0.000 HD 
HETATM   18  O   UNL     1     -12.914  11.884  63.109  1.00  0.00    -0.640 OA 
BRANCH  16  19
HETATM   19  C   UNL     1     -10.817  11.308  64.202  1.00  0.00    -0.337 C  
BRANCH  19  20
HETATM   20  O   UNL     1      -9.842  11.828  65.116  1.00  0.00    -0.243 OA 
HETATM   21  S   UNL     1      -8.761  10.767  65.707  1.00  0.00    -0.186 S  
HETATM   22  C   UNL     1      -7.844  11.908  66.715  1.00  0.00    -0.070 C  
HETATM   23  O   UNL     1      -7.916  10.317  64.620  1.00  0.00    -0.148 OA 
HETATM   24  O   UNL     1      -9.460   9.840  66.574  1.00  0.00    -0.160 OA 
ENDBRANCH  19  20
ENDBRANCH  16  19
ENDBRANCH  13  16
ENDBRANCH  10  13
ENDBRANCH   7  10
ENDBRANCH   6   7
ENDBRANCH   3   6
TORSDOF 7
ENDMDL
MODEL       34
REMARK 921   NORMALIZED FREE ENERGY PREDICTED BY IDOCK:   -5.16 KCAL/MOL
REMARK 922        TOTAL FREE ENERGY PREDICTED BY IDOCK:   -8.52 KCAL/MOL
REMARK 923 INTER-LIGAND FREE ENERGY PREDICTED BY IDOCK:   -7.02 KCAL/MOL
REMARK 924 INTRA-LIGAND FREE ENERGY PREDICTED BY IDOCK:   -1.51 KCAL/MOL
REMARK 927      BINDING AFFINITY PREDICTED BY RF-SCORE:    0.00 PKD
ROOT
HETATM    1  C   UNL     1     -10.917  11.748  63.432  1.00  0.00    -0.380 C  
HETATM    2  S   UNL     1     -11.915  13.022  64.161  1.00  0.00    -0.457 S  
HETATM    3  O   UNL     1     -10.729  13.972  64.776  1.00  0.00    -0.394 OA 
HETATM    4  O   UNL     1     -12.576  13.750  63.099  1.00  0.00    -0.793 OA 
HETATM    5  O   UNL     1     -12.650  12.451  65.271  1.00  0.00    -0.636 OA 
ENDROOT
BRANCH   3   6
HETATM    6  C   UNL     1     -11.209  15.146  65.439  1.00  0.00    -0.338 C  
BRANCH   6   7
HETATM    7  C   UNL     1     -11.135  15.017  66.964  1.00  0.00    -0.334 C  
HETATM    8  O   UNL     1     -12.402  14.550  67.469  1.00  0.00    -0.619 OA 
HETATM    9  H   UNL     1     -12.356  14.470  68.415  1.00  0.00     0.000 HD 
BRANCH   7  10
HETATM   10  C   UNL     1     -10.073  13.988  67.409  1.00  0.00    -0.244 C  
HETATM   11  H   UNL     1      -8.562  13.963  68.677  1.00  0.00     0.000 HD 
HETATM   12  O   UNL     1      -9.216  14.597  68.403  1.00  0.00    -0.184 OA 
BRANCH  10  13
HETATM   13  C   UNL     1     -10.607  12.682  68.028  1.00  0.00    -0.221 C  
HETATM   14  O   UNL     1     -10.701  12.906  69.451  1.00  0.00    -0.438 OA 
HETATM   15  H   UNL     1     -11.030  12.101  69.833  1.00  0.00     0.000 HD 
BRANCH  13  16
HETATM   16  C   UNL     1      -9.763  11.424  67.760  1.00  0.00    -0.175 C  
HETATM   17  H   UNL     1      -8.656  10.760  66.285  1.00  0.00     0.000 HD 
HETATM   18  O   UNL     1      -9.178  11.537  66.450  1.00  0.00    -0.196 OA 
BRANCH  16  19
HETATM   19  C   UNL     1     -10.569  10.124  67.861  1.00  0.00    -0.249 C  
BRANCH  19  20
HETATM   20  O   UNL     1     -11.265  10.127  69.114  1.00  0.00    -0.225 OA 
HETATM   21  S   UNL     1     -10.735   9.084  70.244  1.00  0.00    -0.239 S  
HETATM   22  C   UNL     1     -11.894   9.516  71.520  1.00  0.00    -0.405 C  
HETATM   23  O   UNL     1      -9.408   9.489  70.658  1.00  0.00    -0.254 OA 
HETATM   24  O   UNL     1     -11.024   7.739  69.791  1.00  0.00    -0.237 OA 
ENDBRANCH  19  20
ENDBRANCH  16  19
ENDBRANCH  13  16
ENDBRANCH  10  13
ENDBRANCH   7  10
ENDBRANCH   6   7
ENDBRANCH   3   6
TORSDOF 7
ENDMDL
MODEL       35
REMARK 921   NORMALIZED FREE ENERGY PREDICTED BY IDOCK:   -5.15 KCAL/MOL
REMARK 922        TOTAL FREE ENERGY PREDICTED BY IDOCK:   -8.51 KCAL/MOL
REMARK 923 INTER-LIGAND FREE ENERGY PREDICTED BY IDOCK:   -7.53 KCAL/MOL
REMARK 924 INTRA-LIGAND FREE ENERGY PREDICTED BY IDOCK:   -0.97 KCAL/MOL
REMARK 927      BINDING AFFINITY PREDICTED BY RF-SCORE:    0.00 PKD
ROOT
HETATM    1  C   UNL     1     -12.109  12.887  63.537  1.00  0.00    -0.555 C  
HETATM    2  S   UNL     1     -12.365  14.311  64.565  1.00  0.00    -0.357 S  
HETATM    3  O   UNL     1     -10.952  14.299  65.396  1.00  0.00    -0.306 OA 
HETATM    4  O   UNL     1     -12.387  15.487  63.723  1.00  0.00    -0.606 OA 
HETATM    5  O   UNL     1     -13.433  14.017  65.499  1.00  0.00    -0.677 OA 
ENDROOT
BRANCH   3   6
HETATM    6  C   UNL     1     -10.818  15.371  66.335  1.00  0.00    -0.303 C  
BRANCH   6   7
HETATM    7  C   UNL     1     -11.082  14.914  67.772  1.00  0.00    -0.309 C  
HETATM    8  O   UNL     1     -12.439  15.233  68.137  1.00  0.00    -0.333 OA 
HETATM    9  H   UNL     1     -12.603  14.949  69.029  1.00  0.00     0.000 HD 
BRANCH   7  10
HETATM   10  C   UNL     1     -10.926  13.386  67.933  1.00  0.00    -0.256 C  
HETATM   11  H   UNL     1      -9.443  12.140  68.308  1.00  0.00     0.000 HD 
HETATM   12  O   UNL     1      -9.539  13.081  68.209  1.00  0.00    -0.219 OA 
BRANCH  10  13
HETATM   13  C   UNL     1     -11.752  12.732  69.058  1.00  0.00    -0.323 C  
HETATM   14  O   UNL     1     -11.436  13.443  70.273  1.00  0.00    -0.510 OA 
HETATM   15  H   UNL     1     -11.945  13.039  70.966  1.00  0.00     0.000 HD 
BRANCH  13  16
HETATM   16  C   UNL     1     -11.516  11.226  69.267  1.00  0.00    -0.301 C  
HETATM   17  H   UNL     1     -11.739   9.604  68.190  1.00  0.00     0.000 HD 
HETATM   18  O   UNL     1     -11.885  10.533  68.060  1.00  0.00    -0.425 OA 
BRANCH  16  19
HETATM   19  C   UNL     1     -12.296  10.652  70.456  1.00  0.00    -0.359 C  
BRANCH  19  20
HETATM   20  O   UNL     1     -11.374   9.938  71.290  1.00  0.00    -0.368 OA 
HETATM   21  S   UNL     1     -11.869   8.495  71.854  1.00  0.00    -0.370 S  
HETATM   22  C   UNL     1     -10.399   8.085  72.763  1.00  0.00    -0.339 C  
HETATM   23  O   UNL     1     -12.000   7.585  70.735  1.00  0.00    -0.277 OA 
HETATM   24  O   UNL     1     -12.948   8.721  72.794  1.00  0.00    -0.345 OA 
ENDBRANCH  19  20
ENDBRANCH  16  19
ENDBRANCH  13  16
ENDBRANCH  10  13
ENDBRANCH   7  10
ENDBRANCH   6   7
ENDBRANCH   3   6
TORSDOF 7
ENDMDL
MODEL       36
REMARK 921   NORMALIZED FREE ENERGY PREDICTED BY IDOCK:   -5.14 KCAL/MOL
REMARK 922        TOTAL FREE ENERGY PREDICTED BY IDOCK:   -8.49 KCAL/MOL
REMARK 923 INTER-LIGAND FREE ENERGY PREDICTED BY IDOCK:   -7.53 KCAL/MOL
REMARK 924 INTRA-LIGAND FREE ENERGY PREDICTED BY IDOCK:   -0.96 KCAL/MOL
REMARK 927      BINDING AFFINITY PREDICTED BY RF-SCORE:    0.00 PKD
ROOT
HETATM    1  C   UNL     1      -9.609  19.130  68.259  1.00  0.00    -0.356 C  
HETATM    2  S   UNL     1      -9.423  18.502  66.609  1.00  0.00    -0.319 S  
HETATM    3  O   UNL     1     -10.071  17.010  66.816  1.00  0.00    -0.280 OA 
HETATM    4  O   UNL     1     -10.292  19.256  65.731  1.00  0.00    -0.478 OA 
HETATM    5  O   UNL     1      -8.010  18.340  66.336  1.00  0.00    -0.254 OA 
ENDROOT
BRANCH   3   6
HETATM    6  C   UNL     1     -10.095  16.215  65.626  1.00  0.00    -0.337 C  
BRANCH   6   7
HETATM    7  C   UNL     1     -11.524  15.890  65.180  1.00  0.00    -0.002 C  
HETATM    8  O   UNL     1     -11.767  16.470  63.883  1.00  0.00    -1.527 OA 
HETATM    9  H   UNL     1     -12.653  16.268  63.606  1.00  0.00     0.000 HD 
BRANCH   7  10
HETATM   10  C   UNL     1     -11.755  14.370  65.037  1.00  0.00    -0.389 C  
HETATM   11  H   UNL     1     -12.625  13.182  63.723  1.00  0.00     0.000 HD 
HETATM   12  O   UNL     1     -12.483  14.118  63.811  1.00  0.00    -0.791 OA 
BRANCH  10  13
HETATM   13  C   UNL     1     -10.491  13.490  64.987  1.00  0.00    -0.376 C  
HETATM   14  O   UNL     1     -10.255  13.181  63.598  1.00  0.00    -0.644 OA 
HETATM   15  H   UNL     1      -9.476  12.638  63.567  1.00  0.00     0.000 HD 
BRANCH  13  16
HETATM   16  C   UNL     1     -10.555  12.186  65.800  1.00  0.00    -0.260 C  
HETATM   17  H   UNL     1     -11.973  11.101  66.610  1.00  0.00     0.000 HD 
HETATM   18  O   UNL     1     -11.934  11.907  66.108  1.00  0.00    -0.537 OA 
BRANCH  16  19
HETATM   19  C   UNL     1      -9.734  12.239  67.093  1.00  0.00    -0.201 C  
BRANCH  19  20
HETATM   20  O   UNL     1      -8.689  13.206  66.917  1.00  0.00    -0.209 OA 
HETATM   21  S   UNL     1      -8.008  13.796  68.271  1.00  0.00    -0.153 S  
HETATM   22  C   UNL     1      -6.836  14.877  67.487  1.00  0.00    -0.161 C  
HETATM   23  O   UNL     1      -7.290  12.723  68.929  1.00  0.00    -0.089 OA 
HETATM   24  O   UNL     1      -8.993  14.602  68.961  1.00  0.00    -0.171 OA 
ENDBRANCH  19  20
ENDBRANCH  16  19
ENDBRANCH  13  16
ENDBRANCH  10  13
ENDBRANCH   7  10
ENDBRANCH   6   7
ENDBRANCH   3   6
TORSDOF 7
ENDMDL
MODEL       37
REMARK 921   NORMALIZED FREE ENERGY PREDICTED BY IDOCK:   -5.11 KCAL/MOL
REMARK 922        TOTAL FREE ENERGY PREDICTED BY IDOCK:   -8.45 KCAL/MOL
REMARK 923 INTER-LIGAND FREE ENERGY PREDICTED BY IDOCK:   -7.08 KCAL/MOL
REMARK 924 INTRA-LIGAND FREE ENERGY PREDICTED BY IDOCK:   -1.37 KCAL/MOL
REMARK 927      BINDING AFFINITY PREDICTED BY RF-SCORE:    0.00 PKD
ROOT
HETATM    1  C   UNL     1      -6.179  17.457  67.786  1.00  0.00    -0.149 C  
HETATM    2  S   UNL     1      -7.922  17.774  67.887  1.00  0.00    -0.239 S  
HETATM    3  O   UNL     1      -8.382  17.216  66.415  1.00  0.00    -0.247 OA 
HETATM    4  O   UNL     1      -8.488  16.907  68.898  1.00  0.00    -0.248 OA 
HETATM    5  O   UNL     1      -8.129  19.208  67.904  1.00  0.00    -0.274 OA 
ENDROOT
BRANCH   3   6
HETATM    6  C   UNL     1      -9.788  17.308  66.170  1.00  0.00    -0.253 C  
BRANCH   6   7
HETATM    7  C   UNL     1     -10.471  15.938  66.209  1.00  0.00    -0.318 C  
HETATM    8  O   UNL     1     -11.057  15.729  67.509  1.00  0.00    -0.317 OA 
HETATM    9  H   UNL     1     -11.481  14.878  67.532  1.00  0.00     0.000 HD 
BRANCH   7  10
HETATM   10  C   UNL     1     -11.620  15.833  65.182  1.00  0.00     0.068 C  
HETATM   11  H   UNL     1     -12.009  16.591  63.402  1.00  0.00     0.000 HD 
HETATM   12  O   UNL     1     -11.302  16.656  64.034  1.00  0.00    -1.120 OA 
BRANCH  10  13
HETATM   13  C   UNL     1     -11.922  14.422  64.640  1.00  0.00    -0.464 C  
HETATM   14  O   UNL     1     -13.205  14.037  65.179  1.00  0.00    -0.768 OA 
HETATM   15  H   UNL     1     -13.391  13.168  64.845  1.00  0.00     0.000 HD 
BRANCH  13  16
HETATM   16  C   UNL     1     -10.879  13.342  64.976  1.00  0.00    -0.322 C  
HETATM   17  H   UNL     1      -9.757  12.104  63.951  1.00  0.00     0.000 HD 
HETATM   18  O   UNL     1     -10.401  12.771  63.744  1.00  0.00    -0.402 OA 
BRANCH  16  19
HETATM   19  C   UNL     1     -11.426  12.236  65.885  1.00  0.00    -0.376 C  
BRANCH  19  20
HETATM   20  O   UNL     1     -11.780  12.828  67.143  1.00  0.00    -0.348 OA 
HETATM   21  S   UNL     1     -11.342  12.013  68.480  1.00  0.00    -0.299 S  
HETATM   22  C   UNL     1     -11.990  13.159  69.673  1.00  0.00    -0.306 C  
HETATM   23  O   UNL     1      -9.896  12.013  68.566  1.00  0.00    -0.209 OA 
HETATM   24  O   UNL     1     -12.118  10.791  68.541  1.00  0.00    -0.493 OA 
ENDBRANCH  19  20
ENDBRANCH  16  19
ENDBRANCH  13  16
ENDBRANCH  10  13
ENDBRANCH   7  10
ENDBRANCH   6   7
ENDBRANCH   3   6
TORSDOF 7
ENDMDL
MODEL       38
REMARK 921   NORMALIZED FREE ENERGY PREDICTED BY IDOCK:   -5.11 KCAL/MOL
REMARK 922        TOTAL FREE ENERGY PREDICTED BY IDOCK:   -8.44 KCAL/MOL
REMARK 923 INTER-LIGAND FREE ENERGY PREDICTED BY IDOCK:   -7.28 KCAL/MOL
REMARK 924 INTRA-LIGAND FREE ENERGY PREDICTED BY IDOCK:   -1.16 KCAL/MOL
REMARK 927      BINDING AFFINITY PREDICTED BY RF-SCORE:    0.00 PKD
ROOT
HETATM    1  C   UNL     1     -12.004   8.324  72.265  1.00  0.00    -0.386 C  
HETATM    2  S   UNL     1     -10.903   8.825  70.967  1.00  0.00    -0.282 S  
HETATM    3  O   UNL     1     -11.668  10.190  70.479  1.00  0.00    -0.277 OA 
HETATM    4  O   UNL     1      -9.637   9.203  71.560  1.00  0.00    -0.283 OA 
HETATM    5  O   UNL     1     -10.987   7.857  69.893  1.00  0.00    -0.243 OA 
ENDROOT
BRANCH   3   6
HETATM    6  C   UNL     1     -11.006  10.881  69.414  1.00  0.00    -0.252 C  
BRANCH   6   7
HETATM    7  C   UNL     1     -11.661  12.231  69.109  1.00  0.00    -0.318 C  
HETATM    8  O   UNL     1     -12.306  12.732  70.296  1.00  0.00    -0.287 OA 
HETATM    9  H   UNL     1     -12.712  13.571  70.106  1.00  0.00     0.000 HD 
BRANCH   7  10
HETATM   10  C   UNL     1     -10.625  13.295  68.684  1.00  0.00    -0.246 C  
HETATM   11  H   UNL     1      -9.155  13.403  67.373  1.00  0.00     0.000 HD 
HETATM   12  O   UNL     1      -9.792  12.748  67.634  1.00  0.00    -0.205 OA 
BRANCH  10  13
HETATM   13  C   UNL     1     -11.194  14.623  68.147  1.00  0.00    -0.289 C  
HETATM   14  O   UNL     1     -12.535  14.347  67.693  1.00  0.00    -0.596 OA 
HETATM   15  H   UNL     1     -12.886  15.165  67.362  1.00  0.00     0.000 HD 
BRANCH  13  16
HETATM   16  C   UNL     1     -10.392  15.279  67.010  1.00  0.00    -0.277 C  
HETATM   17  H   UNL     1      -9.561  17.028  66.702  1.00  0.00     0.000 HD 
HETATM   18  O   UNL     1     -10.057  16.623  67.404  1.00  0.00    -0.261 OA 
BRANCH  16  19
HETATM   19  C   UNL     1     -11.144  15.300  65.674  1.00  0.00    -0.308 C  
BRANCH  19  20
HETATM   20  O   UNL     1     -10.735  14.154  64.916  1.00  0.00    -0.382 OA 
HETATM   21  S   UNL     1     -11.922  13.209  64.329  1.00  0.00    -0.434 S  
HETATM   22  C   UNL     1     -10.887  12.020  63.509  1.00  0.00    -0.444 C  
HETATM   23  O   UNL     1     -12.656  13.960  63.331  1.00  0.00    -0.853 OA 
HETATM   24  O   UNL     1     -12.579  12.560  65.444  1.00  0.00    -0.656 OA 
ENDBRANCH  19  20
ENDBRANCH  16  19
ENDBRANCH  13  16
ENDBRANCH  10  13
ENDBRANCH   7  10
ENDBRANCH   6   7
ENDBRANCH   3   6
TORSDOF 7
ENDMDL
MODEL       39
REMARK 921   NORMALIZED FREE ENERGY PREDICTED BY IDOCK:   -5.10 KCAL/MOL
REMARK 922        TOTAL FREE ENERGY PREDICTED BY IDOCK:   -8.43 KCAL/MOL
REMARK 923 INTER-LIGAND FREE ENERGY PREDICTED BY IDOCK:   -7.65 KCAL/MOL
REMARK 924 INTRA-LIGAND FREE ENERGY PREDICTED BY IDOCK:   -0.78 KCAL/MOL
REMARK 927      BINDING AFFINITY PREDICTED BY RF-SCORE:    0.00 PKD
ROOT
HETATM    1  C   UNL     1     -13.003  15.666  73.492  1.00  0.00    -0.556 C  
HETATM    2  S   UNL     1     -13.543  14.693  72.109  1.00  0.00    -0.463 S  
HETATM    3  O   UNL     1     -12.094  14.416  71.394  1.00  0.00    -0.344 OA 
HETATM    4  O   UNL     1     -14.053  13.433  72.606  1.00  0.00    -0.767 OA 
HETATM    5  O   UNL     1     -14.320  15.541  71.227  1.00  0.00    -0.536 OA 
ENDROOT
BRANCH   3   6
HETATM    6  C   UNL     1     -12.171  13.611  70.214  1.00  0.00    -0.353 C  
BRANCH   6   7
HETATM    7  C   UNL     1     -12.149  14.456  68.937  1.00  0.00    -0.253 C  
HETATM    8  O   UNL     1     -11.530  15.728  69.213  1.00  0.00    -0.316 OA 
HETATM    9  H   UNL     1     -11.516  16.253  68.420  1.00  0.00     0.000 HD 
BRANCH   7  10
HETATM   10  C   UNL     1     -11.320  13.793  67.816  1.00  0.00    -0.303 C  
HETATM   11  H   UNL     1     -11.222  12.004  66.990  1.00  0.00     0.000 HD 
HETATM   12  O   UNL     1     -11.732  12.412  67.680  1.00  0.00    -0.337 OA 
BRANCH  10  13
HETATM   13  C   UNL     1     -11.437  14.427  66.416  1.00  0.00    -0.360 C  
HETATM   14  O   UNL     1     -11.537  13.338  65.474  1.00  0.00    -0.311 OA 
HETATM   15  H   UNL     1     -11.609  13.728  64.612  1.00  0.00     0.000 HD 
BRANCH  13  16
HETATM   16  C   UNL     1     -10.281  15.356  66.007  1.00  0.00    -0.324 C  
HETATM   17  H   UNL     1      -8.553  15.873  66.774  1.00  0.00     0.000 HD 
HETATM   18  O   UNL     1      -9.267  15.299  67.027  1.00  0.00    -0.199 OA 
BRANCH  16  19
HETATM   19  C   UNL     1     -10.721  16.808  65.789  1.00  0.00    -0.180 C  
BRANCH  19  20
HETATM   20  O   UNL     1      -9.548  17.632  65.780  1.00  0.00    -0.524 OA 
HETATM   21  S   UNL     1      -9.674  19.085  66.499  1.00  0.00    -0.373 S  
HETATM   22  C   UNL     1      -8.007  19.631  66.211  1.00  0.00    -0.328 C  
HETATM   23  O   UNL     1      -9.862  18.880  67.920  1.00  0.00    -0.317 OA 
HETATM   24  O   UNL     1     -10.573  19.905  65.712  1.00  0.00    -0.507 OA 
ENDBRANCH  19  20
ENDBRANCH  16  19
ENDBRANCH  13  16
ENDBRANCH  10  13
ENDBRANCH   7  10
ENDBRANCH   6   7
ENDBRANCH   3   6
TORSDOF 7
ENDMDL
MODEL       40
REMARK 921   NORMALIZED FREE ENERGY PREDICTED BY IDOCK:   -5.09 KCAL/MOL
REMARK 922        TOTAL FREE ENERGY PREDICTED BY IDOCK:   -8.42 KCAL/MOL
REMARK 923 INTER-LIGAND FREE ENERGY PREDICTED BY IDOCK:   -7.00 KCAL/MOL
REMARK 924 INTRA-LIGAND FREE ENERGY PREDICTED BY IDOCK:   -1.42 KCAL/MOL
REMARK 927      BINDING AFFINITY PREDICTED BY RF-SCORE:    0.00 PKD
ROOT
HETATM    1  C   UNL     1     -10.979  11.551  63.423  1.00  0.00    -0.315 C  
HETATM    2  S   UNL     1     -12.129  12.750  64.047  1.00  0.00    -0.483 S  
HETATM    3  O   UNL     1     -11.222  13.387  65.255  1.00  0.00    -0.287 OA 
HETATM    4  O   UNL     1     -12.321  13.770  63.038  1.00  0.00    -0.661 OA 
HETATM    5  O   UNL     1     -13.244  12.047  64.649  1.00  0.00    -0.508 OA 
ENDROOT
BRANCH   3   6
HETATM    6  C   UNL     1     -11.870  14.438  65.978  1.00  0.00    -0.372 C  
BRANCH   6   7
HETATM    7  C   UNL     1     -10.865  15.388  66.636  1.00  0.00    -0.302 C  
HETATM    8  O   UNL     1      -9.768  14.628  67.180  1.00  0.00    -0.227 OA 
HETATM    9  H   UNL     1      -9.145  15.218  67.588  1.00  0.00     0.000 HD 
BRANCH   7  10
HETATM   10  C   UNL     1     -10.258  16.383  65.624  1.00  0.00    -0.324 C  
HETATM   11  H   UNL     1     -10.832  17.215  63.930  1.00  0.00     0.000 HD 
HETATM   12  O   UNL     1     -11.206  16.603  64.553  1.00  0.00    -0.909 OA 
BRANCH  10  13
HETATM   13  C   UNL     1      -9.885  17.773  66.174  1.00  0.00    -0.244 C  
HETATM   14  O   UNL     1      -8.493  17.985  65.860  1.00  0.00    -0.509 OA 
HETATM   15  H   UNL     1      -8.263  18.842  66.199  1.00  0.00     0.000 HD 
BRANCH  13  16
HETATM   16  C   UNL     1     -10.108  17.974  67.683  1.00  0.00    -0.347 C  
HETATM   17  H   UNL     1     -11.030  19.289  68.807  1.00  0.00     0.000 HD 
HETATM   18  O   UNL     1     -10.893  19.165  67.875  1.00  0.00    -0.352 OA 
BRANCH  16  19
HETATM   19  C   UNL     1      -8.801  18.078  68.478  1.00  0.00    -0.295 C  
BRANCH  19  20
HETATM   20  O   UNL     1      -8.341  16.748  68.754  1.00  0.00    -0.239 OA 
HETATM   21  S   UNL     1      -6.760  16.458  68.507  1.00  0.00    -0.148 S  
HETATM   22  C   UNL     1      -6.758  14.751  68.999  1.00  0.00    -0.105 C  
HETATM   23  O   UNL     1      -5.996  17.226  69.469  1.00  0.00    -0.214 OA 
HETATM   24  O   UNL     1      -6.502  16.531  67.083  1.00  0.00    -0.164 OA 
ENDBRANCH  19  20
ENDBRANCH  16  19
ENDBRANCH  13  16
ENDBRANCH  10  13
ENDBRANCH   7  10
ENDBRANCH   6   7
ENDBRANCH   3   6
TORSDOF 7
ENDMDL
MODEL       41
REMARK 921   NORMALIZED FREE ENERGY PREDICTED BY IDOCK:   -5.08 KCAL/MOL
REMARK 922        TOTAL FREE ENERGY PREDICTED BY IDOCK:   -8.41 KCAL/MOL
REMARK 923 INTER-LIGAND FREE ENERGY PREDICTED BY IDOCK:   -7.50 KCAL/MOL
REMARK 924 INTRA-LIGAND FREE ENERGY PREDICTED BY IDOCK:   -0.91 KCAL/MOL
REMARK 927      BINDING AFFINITY PREDICTED BY RF-SCORE:    0.00 PKD
ROOT
HETATM    1  C   UNL     1     -10.563  19.211  65.959  1.00  0.00    -0.442 C  
HETATM    2  S   UNL     1     -10.206  17.483  66.151  1.00  0.00    -0.282 S  
HETATM    3  O   UNL     1     -11.101  16.886  64.914  1.00  0.00    -0.583 OA 
HETATM    4  O   UNL     1      -8.808  17.267  65.845  1.00  0.00    -0.528 OA 
HETATM    5  O   UNL     1     -10.799  17.027  67.392  1.00  0.00    -0.281 OA 
ENDROOT
BRANCH   3   6
HETATM    6  C   UNL     1     -11.019  15.465  64.768  1.00  0.00    -0.393 C  
BRANCH   6   7
HETATM    7  C   UNL     1     -12.372  14.843  64.410  1.00  0.00    -0.323 C  
HETATM    8  O   UNL     1     -12.307  14.284  63.083  1.00  0.00    -1.096 OA 
HETATM    9  H   UNL     1     -13.147  13.898  62.861  1.00  0.00     0.000 HD 
BRANCH   7  10
HETATM   10  C   UNL     1     -12.750  13.687  65.361  1.00  0.00    -0.453 C  
HETATM   11  H   UNL     1     -13.604  11.918  65.178  1.00  0.00     0.000 HD 
HETATM   12  O   UNL     1     -13.371  12.629  64.593  1.00  0.00    -0.767 OA 
BRANCH  10  13
HETATM   13  C   UNL     1     -11.590  13.040  66.142  1.00  0.00    -0.366 C  
HETATM   14  O   UNL     1     -11.193  11.867  65.400  1.00  0.00    -0.317 OA 
HETATM   15  H   UNL     1     -10.478  11.468  65.881  1.00  0.00     0.000 HD 
BRANCH  13  16
HETATM   16  C   UNL     1     -11.903  12.646  67.596  1.00  0.00    -0.329 C  
HETATM   17  H   UNL     1     -12.456  13.592  69.221  1.00  0.00     0.000 HD 
HETATM   18  O   UNL     1     -12.262  13.836  68.323  1.00  0.00    -0.335 OA 
BRANCH  16  19
HETATM   19  C   UNL     1     -10.736  11.941  68.295  1.00  0.00    -0.223 C  
BRANCH  19  20
HETATM   20  O   UNL     1      -9.632  12.854  68.350  1.00  0.00    -0.221 OA 
HETATM   21  S   UNL     1      -8.170  12.253  67.964  1.00  0.00    -0.172 S  
HETATM   22  C   UNL     1      -7.240  13.752  68.179  1.00  0.00    -0.121 C  
HETATM   23  O   UNL     1      -8.174  11.900  66.560  1.00  0.00    -0.133 OA 
HETATM   24  O   UNL     1      -7.780  11.313  68.995  1.00  0.00    -0.135 OA 
ENDBRANCH  19  20
ENDBRANCH  16  19
ENDBRANCH  13  16
ENDBRANCH  10  13
ENDBRANCH   7  10
ENDBRANCH   6   7
ENDBRANCH   3   6
TORSDOF 7
ENDMDL
MODEL       42
REMARK 921   NORMALIZED FREE ENERGY PREDICTED BY IDOCK:   -5.08 KCAL/MOL
REMARK 922        TOTAL FREE ENERGY PREDICTED BY IDOCK:   -8.40 KCAL/MOL
REMARK 923 INTER-LIGAND FREE ENERGY PREDICTED BY IDOCK:   -7.14 KCAL/MOL
REMARK 924 INTRA-LIGAND FREE ENERGY PREDICTED BY IDOCK:   -1.26 KCAL/MOL
REMARK 927      BINDING AFFINITY PREDICTED BY RF-SCORE:    0.00 PKD
ROOT
HETATM    1  C   UNL     1     -11.982  12.621  65.658  1.00  0.00    -0.452 C  
HETATM    2  S   UNL     1     -11.432  12.906  67.321  1.00  0.00    -0.356 S  
HETATM    3  O   UNL     1     -12.128  11.618  68.058  1.00  0.00    -0.597 OA 
HETATM    4  O   UNL     1      -9.996  12.732  67.365  1.00  0.00    -0.208 OA 
HETATM    5  O   UNL     1     -12.074  14.106  67.818  1.00  0.00    -0.367 OA 
ENDROOT
BRANCH   3   6
HETATM    6  C   UNL     1     -11.856  11.532  69.460  1.00  0.00    -0.351 C  
BRANCH   6   7
HETATM    7  C   UNL     1     -11.997  10.100  69.987  1.00  0.00    -0.136 C  
HETATM    8  O   UNL     1     -10.785   9.368  69.719  1.00  0.00    -0.220 OA 
HETATM    9  H   UNL     1     -10.873   8.480  70.047  1.00  0.00     0.000 HD 
BRANCH   7  10
HETATM   10  C   UNL     1     -12.211  10.063  71.516  1.00  0.00    -0.405 C  
HETATM   11  H   UNL     1     -13.403  10.961  72.806  1.00  0.00     0.000 HD 
HETATM   12  O   UNL     1     -13.271  10.984  71.866  1.00  0.00    -0.473 OA 
BRANCH  10  13
HETATM   13  C   UNL     1     -12.598   8.698  72.116  1.00  0.00    -0.391 C  
HETATM   14  O   UNL     1     -13.631   8.951  73.091  1.00  0.00    -0.997 OA 
HETATM   15  H   UNL     1     -13.869   8.110  73.461  1.00  0.00     0.000 HD 
BRANCH  13  16
HETATM   16  C   UNL     1     -11.451   7.911  72.776  1.00  0.00    -0.368 C  
HETATM   17  H   UNL     1      -9.514   8.142  72.965  1.00  0.00     0.000 HD 
HETATM   18  O   UNL     1     -10.221   8.627  72.557  1.00  0.00    -0.290 OA 
BRANCH  16  19
HETATM   19  C   UNL     1     -11.321   6.478  72.248  1.00  0.00    -0.282 C  
BRANCH  19  20
HETATM   20  O   UNL     1     -11.468   6.514  70.822  1.00  0.00    -0.318 OA 
HETATM   21  S   UNL     1     -10.226   5.931  69.948  1.00  0.00    -0.241 S  
HETATM   22  C   UNL     1     -10.930   6.200  68.338  1.00  0.00    -0.305 C  
HETATM   23  O   UNL     1     -10.126   4.506  70.185  1.00  0.00    -0.229 OA 
HETATM   24  O   UNL     1      -9.096   6.822  70.114  1.00  0.00    -0.154 OA 
ENDBRANCH  19  20
ENDBRANCH  16  19
ENDBRANCH  13  16
ENDBRANCH  10  13
ENDBRANCH   7  10
ENDBRANCH   6   7
ENDBRANCH   3   6
TORSDOF 7
ENDMDL
MODEL       43
REMARK 921   NORMALIZED FREE ENERGY PREDICTED BY IDOCK:   -5.06 KCAL/MOL
REMARK 922        TOTAL FREE ENERGY PREDICTED BY IDOCK:   -8.38 KCAL/MOL
REMARK 923 INTER-LIGAND FREE ENERGY PREDICTED BY IDOCK:   -7.37 KCAL/MOL
REMARK 924 INTRA-LIGAND FREE ENERGY PREDICTED BY IDOCK:   -1.01 KCAL/MOL
REMARK 927      BINDING AFFINITY PREDICTED BY RF-SCORE:    0.00 PKD
ROOT
HETATM    1  C   UNL     1     -10.524  18.206  66.558  1.00  0.00    -0.341 C  
HETATM    2  S   UNL     1     -10.321  16.685  65.666  1.00  0.00    -0.221 S  
HETATM    3  O   UNL     1     -11.017  15.654  66.734  1.00  0.00    -0.310 OA 
HETATM    4  O   UNL     1     -11.147  16.736  64.479  1.00  0.00    -0.989 OA 
HETATM    5  O   UNL     1      -8.907  16.375  65.603  1.00  0.00    -0.406 OA 
ENDROOT
BRANCH   3   6
HETATM    6  C   UNL     1     -11.039  14.291  66.297  1.00  0.00    -0.323 C  
BRANCH   6   7
HETATM    7  C   UNL     1     -11.937  13.418  67.179  1.00  0.00    -0.366 C  
HETATM    8  O   UNL     1     -12.110  12.128  66.562  1.00  0.00    -0.627 OA 
HETATM    9  H   UNL     1     -12.667  11.586  67.110  1.00  0.00     0.000 HD 
BRANCH   7  10
HETATM   10  C   UNL     1     -11.315  13.166  68.570  1.00  0.00    -0.286 C  
HETATM   11  H   UNL     1     -11.354  14.060  70.328  1.00  0.00     0.000 HD 
HETATM   12  O   UNL     1     -11.737  14.215  69.472  1.00  0.00    -0.272 OA 
BRANCH  10  13
HETATM   13  C   UNL     1     -11.679  11.830  69.247  1.00  0.00    -0.335 C  
HETATM   14  O   UNL     1     -12.030  12.139  70.612  1.00  0.00    -0.477 OA 
HETATM   15  H   UNL     1     -12.254  11.316  71.029  1.00  0.00     0.000 HD 
BRANCH  13  16
HETATM   16  C   UNL     1     -10.581  10.753  69.229  1.00  0.00    -0.229 C  
HETATM   17  H   UNL     1     -10.113   9.241  68.074  1.00  0.00     0.000 HD 
HETATM   18  O   UNL     1     -10.791   9.905  68.085  1.00  0.00    -0.241 OA 
BRANCH  16  19
HETATM   19  C   UNL     1     -10.546   9.905  70.506  1.00  0.00    -0.293 C  
BRANCH  19  20
HETATM   20  O   UNL     1     -11.689   9.039  70.496  1.00  0.00    -0.234 OA 
HETATM   21  S   UNL     1     -12.513   8.906  71.892  1.00  0.00    -0.405 S  
HETATM   22  C   UNL     1     -13.762   7.780  71.317  1.00  0.00    -0.203 C  
HETATM   23  O   UNL     1     -13.131  10.183  72.185  1.00  0.00    -0.435 OA 
HETATM   24  O   UNL     1     -11.674   8.217  72.851  1.00  0.00    -0.373 OA 
ENDBRANCH  19  20
ENDBRANCH  16  19
ENDBRANCH  13  16
ENDBRANCH  10  13
ENDBRANCH   7  10
ENDBRANCH   6   7
ENDBRANCH   3   6
TORSDOF 7
ENDMDL
MODEL       44
REMARK 921   NORMALIZED FREE ENERGY PREDICTED BY IDOCK:   -5.06 KCAL/MOL
REMARK 922        TOTAL FREE ENERGY PREDICTED BY IDOCK:   -8.38 KCAL/MOL
REMARK 923 INTER-LIGAND FREE ENERGY PREDICTED BY IDOCK:   -7.56 KCAL/MOL
REMARK 924 INTRA-LIGAND FREE ENERGY PREDICTED BY IDOCK:   -0.82 KCAL/MOL
REMARK 927      BINDING AFFINITY PREDICTED BY RF-SCORE:    0.00 PKD
ROOT
HETATM    1  C   UNL     1     -10.203  11.322  63.928  1.00  0.00    -0.365 C  
HETATM    2  S   UNL     1     -11.421  12.564  64.278  1.00  0.00    -0.394 S  
HETATM    3  O   UNL     1     -10.441  13.743  64.859  1.00  0.00    -0.377 OA 
HETATM    4  O   UNL     1     -11.984  13.019  63.025  1.00  0.00    -0.431 OA 
HETATM    5  O   UNL     1     -12.253  12.098  65.369  1.00  0.00    -0.515 OA 
ENDROOT
BRANCH   3   6
HETATM    6  C   UNL     1     -11.129  14.942  65.230  1.00  0.00    -0.378 C  
BRANCH   6   7
HETATM    7  C   UNL     1     -11.301  15.061  66.747  1.00  0.00    -0.293 C  
HETATM    8  O   UNL     1     -12.287  14.111  67.196  1.00  0.00    -0.562 OA 
HETATM    9  H   UNL     1     -12.393  14.185  68.138  1.00  0.00     0.000 HD 
BRANCH   7  10
HETATM   10  C   UNL     1      -9.995  14.739  67.506  1.00  0.00    -0.219 C  
HETATM   11  H   UNL     1      -8.147  15.428  67.511  1.00  0.00     0.000 HD 
HETATM   12  O   UNL     1      -8.950  15.627  67.044  1.00  0.00    -0.198 OA 
BRANCH  10  13
HETATM   13  C   UNL     1     -10.046  14.880  69.040  1.00  0.00    -0.237 C  
HETATM   14  O   UNL     1     -10.411  13.587  69.564  1.00  0.00    -0.418 OA 
HETATM   15  H   UNL     1     -10.443  13.674  70.509  1.00  0.00     0.000 HD 
BRANCH  13  16
HETATM   16  C   UNL     1     -11.016  15.946  69.579  1.00  0.00    -0.311 C  
HETATM   17  H   UNL     1     -11.055  17.904  69.652  1.00  0.00     0.000 HD 
HETATM   18  O   UNL     1     -10.456  17.247  69.320  1.00  0.00    -0.338 OA 
BRANCH  16  19
HETATM   19  C   UNL     1     -11.310  15.794  71.075  1.00  0.00    -0.392 C  
BRANCH  19  20
HETATM   20  O   UNL     1     -12.145  14.641  71.250  1.00  0.00    -0.321 OA 
HETATM   21  S   UNL     1     -13.124  14.641  72.548  1.00  0.00    -0.450 S  
HETATM   22  C   UNL     1     -13.889  13.064  72.262  1.00  0.00    -0.434 C  
HETATM   23  O   UNL     1     -14.116  15.683  72.376  1.00  0.00    -0.543 OA 
HETATM   24  O   UNL     1     -12.302  14.549  73.737  1.00  0.00    -0.384 OA 
ENDBRANCH  19  20
ENDBRANCH  16  19
ENDBRANCH  13  16
ENDBRANCH  10  13
ENDBRANCH   7  10
ENDBRANCH   6   7
ENDBRANCH   3   6
TORSDOF 7
ENDMDL
MODEL       45
REMARK 921   NORMALIZED FREE ENERGY PREDICTED BY IDOCK:   -5.05 KCAL/MOL
REMARK 922        TOTAL FREE ENERGY PREDICTED BY IDOCK:   -8.36 KCAL/MOL
REMARK 923 INTER-LIGAND FREE ENERGY PREDICTED BY IDOCK:   -7.31 KCAL/MOL
REMARK 924 INTRA-LIGAND FREE ENERGY PREDICTED BY IDOCK:   -1.05 KCAL/MOL
REMARK 927      BINDING AFFINITY PREDICTED BY RF-SCORE:    0.00 PKD
ROOT
HETATM    1  C   UNL     1      -8.361  16.344  66.216  1.00  0.00    -0.327 C  
HETATM    2  S   UNL     1     -10.127  16.453  66.349  1.00  0.00    -0.331 S  
HETATM    3  O   UNL     1     -10.504  14.862  66.233  1.00  0.00    -0.284 OA 
HETATM    4  O   UNL     1     -10.460  16.902  67.683  1.00  0.00    -0.315 OA 
HETATM    5  O   UNL     1     -10.636  17.119  65.166  1.00  0.00    -0.695 OA 
ENDROOT
BRANCH   3   6
HETATM    6  C   UNL     1     -11.905  14.586  66.326  1.00  0.00    -0.344 C  
BRANCH   6   7
HETATM    7  C   UNL     1     -12.483  14.082  65.001  1.00  0.00    -0.425 C  
HETATM    8  O   UNL     1     -11.795  14.716  63.904  1.00  0.00    -0.731 OA 
HETATM    9  H   UNL     1     -12.154  14.402  63.082  1.00  0.00     0.000 HD 
BRANCH   7  10
HETATM   10  C   UNL     1     -12.290  12.560  64.825  1.00  0.00    -0.474 C  
HETATM   11  H   UNL     1     -13.280  11.093  63.952  1.00  0.00     0.000 HD 
HETATM   12  O   UNL     1     -13.398  12.030  64.060  1.00  0.00    -0.703 OA 
BRANCH  10  13
HETATM   13  C   UNL     1     -11.004  12.115  64.102  1.00  0.00    -0.361 C  
HETATM   14  O   UNL     1     -11.415  11.274  63.004  1.00  0.00    -0.852 OA 
HETATM   15  H   UNL     1     -10.623  10.999  62.559  1.00  0.00     0.000 HD 
BRANCH  13  16
HETATM   16  C   UNL     1      -9.979  11.363  64.969  1.00  0.00    -0.266 C  
HETATM   17  H   UNL     1      -9.169   9.578  64.960  1.00  0.00     0.000 HD 
HETATM   18  O   UNL     1      -9.802  10.042  64.425  1.00  0.00    -0.296 OA 
BRANCH  16  19
HETATM   19  C   UNL     1     -10.388  11.269  66.443  1.00  0.00    -0.245 C  
BRANCH  19  20
HETATM   20  O   UNL     1      -9.347  11.860  67.233  1.00  0.00    -0.172 OA 
HETATM   21  S   UNL     1      -8.393  10.837  68.063  1.00  0.00    -0.124 S  
HETATM   22  C   UNL     1      -7.335  12.057  68.804  1.00  0.00    -0.098 C  
HETATM   23  O   UNL     1      -7.621  10.058  67.117  1.00  0.00    -0.091 OA 
HETATM   24  O   UNL     1      -9.188  10.219  69.104  1.00  0.00    -0.174 OA 
ENDBRANCH  19  20
ENDBRANCH  16  19
ENDBRANCH  13  16
ENDBRANCH  10  13
ENDBRANCH   7  10
ENDBRANCH   6   7
ENDBRANCH   3   6
TORSDOF 7
ENDMDL
MODEL       46
REMARK 921   NORMALIZED FREE ENERGY PREDICTED BY IDOCK:   -5.04 KCAL/MOL
REMARK 922        TOTAL FREE ENERGY PREDICTED BY IDOCK:   -8.34 KCAL/MOL
REMARK 923 INTER-LIGAND FREE ENERGY PREDICTED BY IDOCK:   -6.57 KCAL/MOL
REMARK 924 INTRA-LIGAND FREE ENERGY PREDICTED BY IDOCK:   -1.78 KCAL/MOL
REMARK 927      BINDING AFFINITY PREDICTED BY RF-SCORE:    0.00 PKD
ROOT
HETATM    1  C   UNL     1     -10.209   8.660  68.424  1.00  0.00    -0.200 C  
HETATM    2  S   UNL     1     -10.339  10.281  69.135  1.00  0.00    -0.238 S  
HETATM    3  O   UNL     1     -11.498  10.908  68.160  1.00  0.00    -0.333 OA 
HETATM    4  O   UNL     1     -10.887  10.155  70.468  1.00  0.00    -0.298 OA 
HETATM    5  O   UNL     1      -9.105  10.995  68.877  1.00  0.00    -0.175 OA 
ENDROOT
BRANCH   3   6
HETATM    6  C   UNL     1     -11.869  12.252  68.485  1.00  0.00    -0.307 C  
BRANCH   6   7
HETATM    7  C   UNL     1     -11.459  13.243  67.392  1.00  0.00    -0.332 C  
HETATM    8  O   UNL     1     -10.150  13.770  67.687  1.00  0.00    -0.236 OA 
HETATM    9  H   UNL     1      -9.896  14.385  67.008  1.00  0.00     0.000 HD 
BRANCH   7  10
HETATM   10  C   UNL     1     -11.366  12.572  66.005  1.00  0.00    -0.344 C  
HETATM   11  H   UNL     1     -12.586  11.560  64.831  1.00  0.00     0.000 HD 
HETATM   12  O   UNL     1     -12.644  11.973  65.684  1.00  0.00    -0.252 OA 
BRANCH  10  13
HETATM   13  C   UNL     1     -11.004  13.494  64.825  1.00  0.00    -0.373 C  
HETATM   14  O   UNL     1      -9.602  13.808  64.957  1.00  0.00    -0.554 OA 
HETATM   15  H   UNL     1      -9.379  14.376  64.230  1.00  0.00     0.000 HD 
BRANCH  13  16
HETATM   16  C   UNL     1     -11.815  14.798  64.725  1.00  0.00    -0.423 C  
HETATM   17  H   UNL     1     -13.122  15.548  63.472  1.00  0.00     0.000 HD 
HETATM   18  O   UNL     1     -12.622  14.744  63.533  1.00  0.00    -0.654 OA 
BRANCH  16  19
HETATM   19  C   UNL     1     -10.938  16.054  64.704  1.00  0.00    -0.278 C  
BRANCH  19  20
HETATM   20  O   UNL     1     -10.705  16.457  66.060  1.00  0.00    -0.284 OA 
HETATM   21  S   UNL     1      -9.212  16.997  66.412  1.00  0.00    -0.260 S  
HETATM   22  C   UNL     1      -9.492  17.348  68.132  1.00  0.00    -0.288 C  
HETATM   23  O   UNL     1      -8.995  18.244  65.707  1.00  0.00    -0.440 OA 
HETATM   24  O   UNL     1      -8.291  15.884  66.311  1.00  0.00    -0.299 OA 
ENDBRANCH  19  20
ENDBRANCH  16  19
ENDBRANCH  13  16
ENDBRANCH  10  13
ENDBRANCH   7  10
ENDBRANCH   6   7
ENDBRANCH   3   6
TORSDOF 7
ENDMDL
MODEL       47
REMARK 921   NORMALIZED FREE ENERGY PREDICTED BY IDOCK:   -5.03 KCAL/MOL
REMARK 922        TOTAL FREE ENERGY PREDICTED BY IDOCK:   -8.34 KCAL/MOL
REMARK 923 INTER-LIGAND FREE ENERGY PREDICTED BY IDOCK:   -7.47 KCAL/MOL
REMARK 924 INTRA-LIGAND FREE ENERGY PREDICTED BY IDOCK:   -0.87 KCAL/MOL
REMARK 927      BINDING AFFINITY PREDICTED BY RF-SCORE:    0.00 PKD
ROOT
HETATM    1  C   UNL     1     -12.698  15.482  74.047  1.00  0.00    -0.543 C  
HETATM    2  S   UNL     1     -13.289  14.784  72.526  1.00  0.00    -0.475 S  
HETATM    3  O   UNL     1     -11.922  14.902  71.629  1.00  0.00    -0.332 OA 
HETATM    4  O   UNL     1     -13.570  13.381  72.743  1.00  0.00    -0.656 OA 
HETATM    5  O   UNL     1     -14.273  15.684  71.960  1.00  0.00    -0.491 OA 
ENDROOT
BRANCH   3   6
HETATM    6  C   UNL     1     -12.052  14.389  70.299  1.00  0.00    -0.331 C  
BRANCH   6   7
HETATM    7  C   UNL     1     -11.974  15.496  69.244  1.00  0.00    -0.316 C  
HETATM    8  O   UNL     1     -11.211  16.603  69.764  1.00  0.00    -0.370 OA 
HETATM    9  H   UNL     1     -11.162  17.290  69.109  1.00  0.00     0.000 HD 
BRANCH   7  10
HETATM   10  C   UNL     1     -11.255  15.025  67.961  1.00  0.00    -0.316 C  
HETATM   11  H   UNL     1     -10.544  15.885  66.334  1.00  0.00     0.000 HD 
HETATM   12  O   UNL     1     -10.986  16.175  67.123  1.00  0.00    -0.266 OA 
BRANCH  10  13
HETATM   13  C   UNL     1      -9.910  14.302  68.160  1.00  0.00    -0.226 C  
HETATM   14  O   UNL     1      -8.934  15.014  67.370  1.00  0.00    -0.173 OA 
HETATM   15  H   UNL     1      -8.105  14.568  67.493  1.00  0.00     0.000 HD 
BRANCH  13  16
HETATM   16  C   UNL     1      -9.892  12.811  67.777  1.00  0.00    -0.220 C  
HETATM   17  H   UNL     1      -8.835  11.681  66.574  1.00  0.00     0.000 HD 
HETATM   18  O   UNL     1      -8.846  12.601  66.810  1.00  0.00    -0.211 OA 
BRANCH  16  19
HETATM   19  C   UNL     1     -11.229  12.316  67.214  1.00  0.00    -0.300 C  
BRANCH  19  20
HETATM   20  O   UNL     1     -10.998  11.819  65.889  1.00  0.00    -0.293 OA 
HETATM   21  S   UNL     1     -11.662  12.665  64.669  1.00  0.00    -0.380 S  
HETATM   22  C   UNL     1     -11.067  11.653  63.335  1.00  0.00    -0.337 C  
HETATM   23  O   UNL     1     -11.016  13.959  64.601  1.00  0.00    -0.376 OA 
HETATM   24  O   UNL     1     -13.101  12.525  64.750  1.00  0.00    -0.853 OA 
ENDBRANCH  19  20
ENDBRANCH  16  19
ENDBRANCH  13  16
ENDBRANCH  10  13
ENDBRANCH   7  10
ENDBRANCH   6   7
ENDBRANCH   3   6
TORSDOF 7
ENDMDL
MODEL       48
REMARK 921   NORMALIZED FREE ENERGY PREDICTED BY IDOCK:   -5.03 KCAL/MOL
REMARK 922        TOTAL FREE ENERGY PREDICTED BY IDOCK:   -8.33 KCAL/MOL
REMARK 923 INTER-LIGAND FREE ENERGY PREDICTED BY IDOCK:   -7.04 KCAL/MOL
REMARK 924 INTRA-LIGAND FREE ENERGY PREDICTED BY IDOCK:   -1.29 KCAL/MOL
REMARK 927      BINDING AFFINITY PREDICTED BY RF-SCORE:    0.00 PKD
ROOT
HETATM    1  C   UNL     1     -12.267  14.869  64.144  1.00  0.00    -0.255 C  
HETATM    2  S   UNL     1     -12.057  13.330  65.001  1.00  0.00    -0.437 S  
HETATM    3  O   UNL     1     -12.022  13.884  66.543  1.00  0.00    -0.392 OA 
HETATM    4  O   UNL     1     -13.259  12.542  64.830  1.00  0.00    -0.839 OA 
HETATM    5  O   UNL     1     -10.745  12.803  64.686  1.00  0.00    -0.302 OA 
ENDROOT
BRANCH   3   6
HETATM    6  C   UNL     1     -11.878  12.857  67.529  1.00  0.00    -0.351 C  
BRANCH   6   7
HETATM    7  C   UNL     1     -10.979  13.293  68.689  1.00  0.00    -0.264 C  
HETATM    8  O   UNL     1      -9.783  12.490  68.701  1.00  0.00    -0.367 OA 
HETATM    9  H   UNL     1      -9.225  12.761  69.421  1.00  0.00     0.000 HD 
BRANCH   7  10
HETATM   10  C   UNL     1     -10.526  14.763  68.551  1.00  0.00    -0.249 C  
HETATM   11  H   UNL     1     -10.623  16.391  69.662  1.00  0.00     0.000 HD 
HETATM   12  O   UNL     1     -10.902  15.486  69.747  1.00  0.00    -0.249 OA 
BRANCH  10  13
HETATM   13  C   UNL     1      -9.015  14.994  68.355  1.00  0.00    -0.179 C  
HETATM   14  O   UNL     1      -8.695  16.235  69.019  1.00  0.00    -0.242 OA 
HETATM   15  H   UNL     1      -7.764  16.378  68.897  1.00  0.00     0.000 HD 
BRANCH  13  16
HETATM   16  C   UNL     1      -8.534  15.054  66.895  1.00  0.00    -0.236 C  
HETATM   17  H   UNL     1      -6.897  15.615  65.975  1.00  0.00     0.000 HD 
HETATM   18  O   UNL     1      -7.194  15.579  66.876  1.00  0.00    -0.172 OA 
BRANCH  16  19
HETATM   19  C   UNL     1      -9.439  15.903  65.995  1.00  0.00    -0.354 C  
BRANCH  19  20
HETATM   20  O   UNL     1      -8.928  17.242  65.986  1.00  0.00    -0.486 OA 
HETATM   21  S   UNL     1      -9.982  18.426  66.351  1.00  0.00    -0.383 S  
HETATM   22  C   UNL     1      -8.855  19.792  66.208  1.00  0.00    -0.370 C  
HETATM   23  O   UNL     1     -10.372  18.282  67.739  1.00  0.00    -0.364 OA 
HETATM   24  O   UNL     1     -10.955  18.513  65.282  1.00  0.00    -0.551 OA 
ENDBRANCH  19  20
ENDBRANCH  16  19
ENDBRANCH  13  16
ENDBRANCH  10  13
ENDBRANCH   7  10
ENDBRANCH   6   7
ENDBRANCH   3   6
TORSDOF 7
ENDMDL
MODEL       49
REMARK 921   NORMALIZED FREE ENERGY PREDICTED BY IDOCK:   -5.03 KCAL/MOL
REMARK 922        TOTAL FREE ENERGY PREDICTED BY IDOCK:   -8.33 KCAL/MOL
REMARK 923 INTER-LIGAND FREE ENERGY PREDICTED BY IDOCK:   -7.25 KCAL/MOL
REMARK 924 INTRA-LIGAND FREE ENERGY PREDICTED BY IDOCK:   -1.09 KCAL/MOL
REMARK 927      BINDING AFFINITY PREDICTED BY RF-SCORE:    0.00 PKD
ROOT
HETATM    1  C   UNL     1     -10.086   8.000  72.609  1.00  0.00    -0.301 C  
HETATM    2  S   UNL     1     -11.457   8.519  71.608  1.00  0.00    -0.323 S  
HETATM    3  O   UNL     1     -10.931  10.013  71.187  1.00  0.00    -0.302 OA 
HETATM    4  O   UNL     1     -11.492   7.698  70.417  1.00  0.00    -0.259 OA 
HETATM    5  O   UNL     1     -12.615   8.678  72.464  1.00  0.00    -0.392 OA 
ENDROOT
BRANCH   3   6
HETATM    6  C   UNL     1     -11.827  10.726  70.329  1.00  0.00    -0.349 C  
BRANCH   6   7
HETATM    7  C   UNL     1     -11.226  10.970  68.942  1.00  0.00    -0.265 C  
HETATM    8  O   UNL     1     -11.447   9.813  68.112  1.00  0.00    -0.520 OA 
HETATM    9  H   UNL     1     -11.074   9.965  67.251  1.00  0.00     0.000 HD 
BRANCH   7  10
HETATM   10  C   UNL     1     -11.888  12.166  68.224  1.00  0.00    -0.301 C  
HETATM   11  H   UNL     1     -11.875  14.128  68.424  1.00  0.00     0.000 HD 
HETATM   12  O   UNL     1     -11.468  13.393  68.866  1.00  0.00    -0.262 OA 
BRANCH  10  13
HETATM   13  C   UNL     1     -11.569  12.322  66.725  1.00  0.00    -0.369 C  
HETATM   14  O   UNL     1     -10.225  12.839  66.638  1.00  0.00    -0.233 OA 
HETATM   15  H   UNL     1     -10.028  12.936  65.714  1.00  0.00     0.000 HD 
BRANCH  13  16
HETATM   16  C   UNL     1     -12.522  13.234  65.932  1.00  0.00    -0.368 C  
HETATM   17  H   UNL     1     -13.746  13.012  64.418  1.00  0.00     0.000 HD 
HETATM   18  O   UNL     1     -13.158  12.449  64.907  1.00  0.00    -0.765 OA 
BRANCH  16  19
HETATM   19  C   UNL     1     -11.818  14.442  65.304  1.00  0.00    -0.373 C  
BRANCH  19  20
HETATM   20  O   UNL     1     -11.462  15.348  66.357  1.00  0.00    -0.175 OA 
HETATM   21  S   UNL     1     -10.300  16.435  66.020  1.00  0.00    -0.343 S  
HETATM   22  C   UNL     1     -10.286  17.254  67.597  1.00  0.00    -0.333 C  
HETATM   23  O   UNL     1     -10.805  17.352  65.018  1.00  0.00    -0.676 OA 
HETATM   24  O   UNL     1      -9.049  15.725  65.854  1.00  0.00    -0.337 OA 
ENDBRANCH  19  20
ENDBRANCH  16  19
ENDBRANCH  13  16
ENDBRANCH  10  13
ENDBRANCH   7  10
ENDBRANCH   6   7
ENDBRANCH   3   6
TORSDOF 7
ENDMDL
MODEL       50
REMARK 921   NORMALIZED FREE ENERGY PREDICTED BY IDOCK:   -5.01 KCAL/MOL
REMARK 922        TOTAL FREE ENERGY PREDICTED BY IDOCK:   -8.30 KCAL/MOL
REMARK 923 INTER-LIGAND FREE ENERGY PREDICTED BY IDOCK:   -7.25 KCAL/MOL
REMARK 924 INTRA-LIGAND FREE ENERGY PREDICTED BY IDOCK:   -1.05 KCAL/MOL
REMARK 927      BINDING AFFINITY PREDICTED BY RF-SCORE:    0.00 PKD
ROOT
HETATM    1  C   UNL     1      -7.544  10.013  65.557  1.00  0.00    -0.136 C  
HETATM    2  S   UNL     1      -9.248   9.985  65.064  1.00  0.00    -0.247 S  
HETATM    3  O   UNL     1      -9.645  11.544  65.382  1.00  0.00    -0.226 OA 
HETATM    4  O   UNL     1      -9.309   9.784  63.632  1.00  0.00    -0.253 OA 
HETATM    5  O   UNL     1      -9.980   9.142  65.988  1.00  0.00    -0.291 OA 
ENDROOT
BRANCH   3   6
HETATM    6  C   UNL     1     -11.000  11.876  65.065  1.00  0.00    -0.312 C  
BRANCH   6   7
HETATM    7  C   UNL     1     -11.092  13.032  64.064  1.00  0.00    -0.395 C  
HETATM    8  O   UNL     1     -11.885  12.625  62.931  1.00  0.00    -0.686 OA 
HETATM    9  H   UNL     1     -11.941  13.343  62.310  1.00  0.00     0.000 HD 
BRANCH   7  10
HETATM   10  C   UNL     1     -11.785  14.271  64.670  1.00  0.00    -0.430 C  
HETATM   11  H   UNL     1     -13.465  14.628  65.639  1.00  0.00     0.000 HD 
HETATM   12  O   UNL     1     -13.039  13.865  65.266  1.00  0.00    -0.777 OA 
BRANCH  10  13
HETATM   13  C   UNL     1     -11.001  15.023  65.763  1.00  0.00    -0.350 C  
HETATM   14  O   UNL     1     -11.573  14.631  67.028  1.00  0.00    -0.362 OA 
HETATM   15  H   UNL     1     -11.090  15.094  67.702  1.00  0.00     0.000 HD 
BRANCH  13  16
HETATM   16  C   UNL     1     -11.008  16.558  65.651  1.00  0.00    -0.051 C  
HETATM   17  H   UNL     1     -11.298  17.862  64.216  1.00  0.00     0.000 HD 
HETATM   18  O   UNL     1     -11.293  16.915  64.285  1.00  0.00    -1.202 OA 
BRANCH  16  19
HETATM   19  C   UNL     1      -9.689  17.201  66.092  1.00  0.00    -0.242 C  
BRANCH  19  20
HETATM   20  O   UNL     1      -9.069  16.333  67.051  1.00  0.00    -0.197 OA 
HETATM   21  S   UNL     1      -9.087  16.829  68.600  1.00  0.00    -0.255 S  
HETATM   22  C   UNL     1      -8.241  15.431  69.300  1.00  0.00    -0.252 C  
HETATM   23  O   UNL     1     -10.458  16.830  69.066  1.00  0.00    -0.297 OA 
HETATM   24  O   UNL     1      -8.232  17.993  68.714  1.00  0.00    -0.289 OA 
ENDBRANCH  19  20
ENDBRANCH  16  19
ENDBRANCH  13  16
ENDBRANCH  10  13
ENDBRANCH   7  10
ENDBRANCH   6   7
ENDBRANCH   3   6
TORSDOF 7
ENDMDL
MODEL       51
REMARK 921   NORMALIZED FREE ENERGY PREDICTED BY IDOCK:   -5.00 KCAL/MOL
REMARK 922        TOTAL FREE ENERGY PREDICTED BY IDOCK:   -8.30 KCAL/MOL
REMARK 923 INTER-LIGAND FREE ENERGY PREDICTED BY IDOCK:   -7.65 KCAL/MOL
REMARK 924 INTRA-LIGAND FREE ENERGY PREDICTED BY IDOCK:   -0.65 KCAL/MOL
REMARK 927      BINDING AFFINITY PREDICTED BY RF-SCORE:    0.00 PKD
ROOT
HETATM    1  C   UNL     1      -6.017  21.149  67.943  1.00  0.00    -0.349 C  
HETATM    2  S   UNL     1      -6.722  19.654  68.590  1.00  0.00    -0.309 S  
HETATM    3  O   UNL     1      -8.234  19.781  67.970  1.00  0.00    -0.304 OA 
HETATM    4  O   UNL     1      -6.066  18.528  67.962  1.00  0.00    -0.188 OA 
HETATM    5  O   UNL     1      -6.819  19.779  70.031  1.00  0.00    -0.274 OA 
ENDROOT
BRANCH   3   6
HETATM    6  C   UNL     1      -9.092  18.683  68.297  1.00  0.00    -0.322 C  
BRANCH   6   7
HETATM    7  C   UNL     1     -10.298  18.595  67.358  1.00  0.00    -0.406 C  
HETATM    8  O   UNL     1     -10.650  19.916  66.901  1.00  0.00    -0.454 OA 
HETATM    9  H   UNL     1     -11.399  19.861  66.318  1.00  0.00     0.000 HD 
BRANCH   7  10
HETATM   10  C   UNL     1      -9.993  17.756  66.098  1.00  0.00    -0.276 C  
HETATM   11  H   UNL     1      -8.373  17.205  65.116  1.00  0.00     0.000 HD 
HETATM   12  O   UNL     1      -8.561  17.721  65.891  1.00  0.00    -0.516 OA 
BRANCH  10  13
HETATM   13  C   UNL     1     -10.470  16.291  66.123  1.00  0.00    -0.322 C  
HETATM   14  O   UNL     1      -9.359  15.501  66.597  1.00  0.00    -0.230 OA 
HETATM   15  H   UNL     1      -9.653  14.598  66.612  1.00  0.00     0.000 HD 
BRANCH  13  16
HETATM   16  C   UNL     1     -10.964  15.728  64.779  1.00  0.00    -0.393 C  
HETATM   17  H   UNL     1     -11.827  16.462  63.179  1.00  0.00     0.000 HD 
HETATM   18  O   UNL     1     -11.523  16.809  64.009  1.00  0.00    -1.198 OA 
BRANCH  16  19
HETATM   19  C   UNL     1     -12.001  14.611  64.937  1.00  0.00    -0.400 C  
BRANCH  19  20
HETATM   20  O   UNL     1     -11.457  13.414  64.365  1.00  0.00    -0.355 OA 
HETATM   21  S   UNL     1     -10.945  12.276  65.408  1.00  0.00    -0.311 S  
HETATM   22  C   UNL     1     -10.414  11.081  64.205  1.00  0.00    -0.366 C  
HETATM   23  O   UNL     1     -12.095  11.752  66.116  1.00  0.00    -0.422 OA 
HETATM   24  O   UNL     1      -9.779  12.786  66.100  1.00  0.00    -0.258 OA 
ENDBRANCH  19  20
ENDBRANCH  16  19
ENDBRANCH  13  16
ENDBRANCH  10  13
ENDBRANCH   7  10
ENDBRANCH   6   7
ENDBRANCH   3   6
TORSDOF 7
ENDMDL
MODEL       52
REMARK 921   NORMALIZED FREE ENERGY PREDICTED BY IDOCK:   -5.00 KCAL/MOL
REMARK 922        TOTAL FREE ENERGY PREDICTED BY IDOCK:   -8.30 KCAL/MOL
REMARK 923 INTER-LIGAND FREE ENERGY PREDICTED BY IDOCK:   -6.83 KCAL/MOL
REMARK 924 INTRA-LIGAND FREE ENERGY PREDICTED BY IDOCK:   -1.47 KCAL/MOL
REMARK 927      BINDING AFFINITY PREDICTED BY RF-SCORE:    0.00 PKD
ROOT
HETATM    1  C   UNL     1      -9.035  11.370  67.286  1.00  0.00    -0.159 C  
HETATM    2  S   UNL     1     -10.459  11.334  66.228  1.00  0.00    -0.261 S  
HETATM    3  O   UNL     1     -10.207  12.722  65.392  1.00  0.00    -0.283 OA 
HETATM    4  O   UNL     1     -10.323  10.222  65.312  1.00  0.00    -0.278 OA 
HETATM    5  O   UNL     1     -11.642  11.514  67.044  1.00  0.00    -0.510 OA 
ENDROOT
BRANCH   3   6
HETATM    6  C   UNL     1     -11.203  12.995  64.401  1.00  0.00    -0.358 C  
BRANCH   6   7
HETATM    7  C   UNL     1     -11.967  14.289  64.694  1.00  0.00    -0.455 C  
HETATM    8  O   UNL     1     -12.611  14.187  65.980  1.00  0.00    -0.478 OA 
HETATM    9  H   UNL     1     -13.086  14.990  66.162  1.00  0.00     0.000 HD 
BRANCH   7  10
HETATM   10  C   UNL     1     -11.030  15.514  64.763  1.00  0.00    -0.399 C  
HETATM   11  H   UNL     1     -10.941  17.285  63.898  1.00  0.00     0.000 HD 
HETATM   12  O   UNL     1     -11.517  16.531  63.856  1.00  0.00    -1.145 OA 
BRANCH  10  13
HETATM   13  C   UNL     1     -10.888  16.187  66.142  1.00  0.00    -0.138 C  
HETATM   14  O   UNL     1     -10.545  17.567  65.898  1.00  0.00    -0.388 OA 
HETATM   15  H   UNL     1     -10.457  17.981  66.747  1.00  0.00     0.000 HD 
BRANCH  13  16
HETATM   16  C   UNL     1      -9.848  15.558  67.086  1.00  0.00    -0.235 C  
HETATM   17  H   UNL     1      -9.893  14.306  68.594  1.00  0.00     0.000 HD 
HETATM   18  O   UNL     1     -10.535  14.695  68.011  1.00  0.00    -0.232 OA 
BRANCH  16  19
HETATM   19  C   UNL     1      -9.025  16.597  67.855  1.00  0.00    -0.217 C  
BRANCH  19  20
HETATM   20  O   UNL     1      -7.728  16.676  67.248  1.00  0.00    -0.150 OA 
HETATM   21  S   UNL     1      -7.187  18.164  66.878  1.00  0.00    -0.214 S  
HETATM   22  C   UNL     1      -5.616  17.678  66.205  1.00  0.00    -0.206 C  
HETATM   23  O   UNL     1      -6.965  18.891  68.111  1.00  0.00    -0.234 OA 
HETATM   24  O   UNL     1      -8.007  18.693  65.808  1.00  0.00    -0.487 OA 
ENDBRANCH  19  20
ENDBRANCH  16  19
ENDBRANCH  13  16
ENDBRANCH  10  13
ENDBRANCH   7  10
ENDBRANCH   6   7
ENDBRANCH   3   6
TORSDOF 7
ENDMDL
MODEL       53
REMARK 921   NORMALIZED FREE ENERGY PREDICTED BY IDOCK:   -4.99 KCAL/MOL
REMARK 922        TOTAL FREE ENERGY PREDICTED BY IDOCK:   -8.27 KCAL/MOL
REMARK 923 INTER-LIGAND FREE ENERGY PREDICTED BY IDOCK:   -7.58 KCAL/MOL
REMARK 924 INTRA-LIGAND FREE ENERGY PREDICTED BY IDOCK:   -0.69 KCAL/MOL
REMARK 927      BINDING AFFINITY PREDICTED BY RF-SCORE:    0.00 PKD
ROOT
HETATM    1  C   UNL     1      -6.864   9.389  65.863  1.00  0.00    -0.089 C  
HETATM    2  S   UNL     1      -8.472   9.203  65.136  1.00  0.00    -0.176 S  
HETATM    3  O   UNL     1      -9.111  10.663  65.520  1.00  0.00    -0.175 OA 
HETATM    4  O   UNL     1      -8.320   9.138  63.698  1.00  0.00    -0.169 OA 
HETATM    5  O   UNL     1      -9.197   8.190  65.876  1.00  0.00    -0.171 OA 
ENDROOT
BRANCH   3   6
HETATM    6  C   UNL     1     -10.447  10.858  65.046  1.00  0.00    -0.261 C  
BRANCH   6   7
HETATM    7  C   UNL     1     -10.490  11.740  63.794  1.00  0.00    -0.416 C  
HETATM    8  O   UNL     1     -10.665  10.912  62.628  1.00  0.00    -0.720 OA 
HETATM    9  H   UNL     1     -10.693  11.459  61.852  1.00  0.00     0.000 HD 
BRANCH   7  10
HETATM   10  C   UNL     1     -11.678  12.727  63.821  1.00  0.00    -0.493 C  
HETATM   11  H   UNL     1     -13.616  12.627  63.470  1.00  0.00     0.000 HD 
HETATM   12  O   UNL     1     -12.886  12.019  63.454  1.00  0.00    -0.760 OA 
BRANCH  10  13
HETATM   13  C   UNL     1     -11.963  13.413  65.170  1.00  0.00    -0.378 C  
HETATM   14  O   UNL     1     -13.182  14.167  65.004  1.00  0.00    -0.691 OA 
HETATM   15  H   UNL     1     -13.357  14.591  65.835  1.00  0.00     0.000 HD 
BRANCH  13  16
HETATM   16  C   UNL     1     -10.852  14.341  65.693  1.00  0.00    -0.309 C  
HETATM   17  H   UNL     1     -10.237  14.945  67.453  1.00  0.00     0.000 HD 
HETATM   18  O   UNL     1     -10.922  14.373  67.131  1.00  0.00    -0.291 OA 
BRANCH  16  19
HETATM   19  C   UNL     1     -10.944  15.766  65.136  1.00  0.00    -0.382 C  
BRANCH  19  20
HETATM   20  O   UNL     1      -9.794  16.495  65.586  1.00  0.00    -0.511 OA 
HETATM   21  S   UNL     1     -10.078  17.879  66.392  1.00  0.00    -0.365 S  
HETATM   22  C   UNL     1      -8.385  18.320  66.701  1.00  0.00    -0.264 C  
HETATM   23  O   UNL     1     -10.717  17.555  67.651  1.00  0.00    -0.362 OA 
HETATM   24  O   UNL     1     -10.645  18.836  65.464  1.00  0.00    -0.596 OA 
ENDBRANCH  19  20
ENDBRANCH  16  19
ENDBRANCH  13  16
ENDBRANCH  10  13
ENDBRANCH   7  10
ENDBRANCH   6   7
ENDBRANCH   3   6
TORSDOF 7
ENDMDL
MODEL       54
REMARK 921   NORMALIZED FREE ENERGY PREDICTED BY IDOCK:   -4.97 KCAL/MOL
REMARK 922        TOTAL FREE ENERGY PREDICTED BY IDOCK:   -8.25 KCAL/MOL
REMARK 923 INTER-LIGAND FREE ENERGY PREDICTED BY IDOCK:   -7.46 KCAL/MOL
REMARK 924 INTRA-LIGAND FREE ENERGY PREDICTED BY IDOCK:   -0.79 KCAL/MOL
REMARK 927      BINDING AFFINITY PREDICTED BY RF-SCORE:    0.00 PKD
ROOT
HETATM    1  C   UNL     1     -12.437  12.411  63.382  1.00  0.00    -0.446 C  
HETATM    2  S   UNL     1     -11.847  13.650  64.507  1.00  0.00    -0.432 S  
HETATM    3  O   UNL     1     -12.393  13.015  65.916  1.00  0.00    -0.439 OA 
HETATM    4  O   UNL     1     -10.400  13.606  64.520  1.00  0.00    -0.433 OA 
HETATM    5  O   UNL     1     -12.574  14.879  64.260  1.00  0.00    -0.699 OA 
ENDROOT
BRANCH   3   6
HETATM    6  C   UNL     1     -12.057  13.787  67.073  1.00  0.00    -0.397 C  
BRANCH   6   7
HETATM    7  C   UNL     1     -11.167  13.009  68.046  1.00  0.00    -0.278 C  
HETATM    8  O   UNL     1     -10.602  13.917  69.013  1.00  0.00    -0.308 OA 
HETATM    9  H   UNL     1     -10.050  13.433  69.617  1.00  0.00     0.000 HD 
BRANCH   7  10
HETATM   10  C   UNL     1     -11.963  11.951  68.842  1.00  0.00    -0.254 C  
HETATM   11  H   UNL     1     -12.431  10.050  68.604  1.00  0.00     0.000 HD 
HETATM   12  O   UNL     1     -11.941  10.700  68.115  1.00  0.00    -0.460 OA 
BRANCH  10  13
HETATM   13  C   UNL     1     -11.453  11.643  70.263  1.00  0.00    -0.026 C  
HETATM   14  O   UNL     1     -10.615  10.473  70.159  1.00  0.00    -0.426 OA 
HETATM   15  H   UNL     1     -10.301  10.282  71.034  1.00  0.00     0.000 HD 
BRANCH  13  16
HETATM   16  C   UNL     1     -12.542  11.401  71.323  1.00  0.00    -0.374 C  
HETATM   17  H   UNL     1     -13.917  10.042  71.643  1.00  0.00     0.000 HD 
HETATM   18  O   UNL     1     -13.246  10.191  70.988  1.00  0.00    -0.394 OA 
BRANCH  16  19
HETATM   19  C   UNL     1     -13.534  12.564  71.445  1.00  0.00     0.201 C  
BRANCH  19  20
HETATM   20  O   UNL     1     -13.176  13.335  72.599  1.00  0.00    -0.461 OA 
HETATM   21  S   UNL     1     -13.002  14.937  72.378  1.00  0.00    -0.386 S  
HETATM   22  C   UNL     1     -12.593  15.359  74.055  1.00  0.00    -0.598 C  
HETATM   23  O   UNL     1     -14.298  15.500  72.055  1.00  0.00    -0.529 OA 
HETATM   24  O   UNL     1     -11.837  15.158  71.547  1.00  0.00    -0.322 OA 
ENDBRANCH  19  20
ENDBRANCH  16  19
ENDBRANCH  13  16
ENDBRANCH  10  13
ENDBRANCH   7  10
ENDBRANCH   6   7
ENDBRANCH   3   6
TORSDOF 7
ENDMDL
MODEL       55
REMARK 921   NORMALIZED FREE ENERGY PREDICTED BY IDOCK:   -4.96 KCAL/MOL
REMARK 922        TOTAL FREE ENERGY PREDICTED BY IDOCK:   -8.24 KCAL/MOL
REMARK 923 INTER-LIGAND FREE ENERGY PREDICTED BY IDOCK:   -6.97 KCAL/MOL
REMARK 924 INTRA-LIGAND FREE ENERGY PREDICTED BY IDOCK:   -1.27 KCAL/MOL
REMARK 927      BINDING AFFINITY PREDICTED BY RF-SCORE:    0.00 PKD
ROOT
HETATM    1  C   UNL     1     -10.101  20.125  66.093  1.00  0.00    -0.415 C  
HETATM    2  S   UNL     1      -9.437  18.995  67.289  1.00  0.00    -0.315 S  
HETATM    3  O   UNL     1     -10.780  18.103  67.589  1.00  0.00    -0.416 OA 
HETATM    4  O   UNL     1      -8.467  18.147  66.631  1.00  0.00    -0.248 OA 
HETATM    5  O   UNL     1      -9.117  19.736  68.492  1.00  0.00    -0.324 OA 
ENDROOT
BRANCH   3   6
HETATM    6  C   UNL     1     -10.579  17.048  68.535  1.00  0.00    -0.370 C  
BRANCH   6   7
HETATM    7  C   UNL     1     -10.704  15.664  67.889  1.00  0.00    -0.294 C  
HETATM    8  O   UNL     1      -9.739  15.540  66.826  1.00  0.00    -0.226 OA 
HETATM    9  H   UNL     1      -9.817  14.682  66.426  1.00  0.00     0.000 HD 
BRANCH   7  10
HETATM   10  C   UNL     1     -10.411  14.527  68.891  1.00  0.00    -0.237 C  
HETATM   11  H   UNL     1     -11.125  13.953  70.638  1.00  0.00     0.000 HD 
HETATM   12  O   UNL     1     -11.306  14.653  70.022  1.00  0.00    -0.255 OA 
BRANCH  10  13
HETATM   13  C   UNL     1     -10.574  13.091  68.359  1.00  0.00    -0.251 C  
HETATM   14  O   UNL     1      -9.643  12.944  67.266  1.00  0.00    -0.209 OA 
HETATM   15  H   UNL     1      -9.744  12.059  66.938  1.00  0.00     0.000 HD 
BRANCH  13  16
HETATM   16  C   UNL     1     -11.988  12.713  67.883  1.00  0.00    -0.249 C  
HETATM   17  H   UNL     1     -13.015  11.054  67.702  1.00  0.00     0.000 HD 
HETATM   18  O   UNL     1     -12.142  11.286  67.995  1.00  0.00    -0.638 OA 
BRANCH  16  19
HETATM   19  C   UNL     1     -12.280  13.158  66.446  1.00  0.00    -0.329 C  
BRANCH  19  20
HETATM   20  O   UNL     1     -11.661  12.220  65.555  1.00  0.00    -0.376 OA 
HETATM   21  S   UNL     1     -11.235  12.781  64.089  1.00  0.00    -0.418 S  
HETATM   22  C   UNL     1     -10.542  11.271  63.457  1.00  0.00    -0.369 C  
HETATM   23  O   UNL     1     -10.172  13.750  64.260  1.00  0.00    -0.322 OA 
HETATM   24  O   UNL     1     -12.442  13.082  63.349  1.00  0.00    -0.710 OA 
ENDBRANCH  19  20
ENDBRANCH  16  19
ENDBRANCH  13  16
ENDBRANCH  10  13
ENDBRANCH   7  10
ENDBRANCH   6   7
ENDBRANCH   3   6
TORSDOF 7
ENDMDL
MODEL       56
REMARK 921   NORMALIZED FREE ENERGY PREDICTED BY IDOCK:   -4.94 KCAL/MOL
REMARK 922        TOTAL FREE ENERGY PREDICTED BY IDOCK:   -8.21 KCAL/MOL
REMARK 923 INTER-LIGAND FREE ENERGY PREDICTED BY IDOCK:   -7.16 KCAL/MOL
REMARK 924 INTRA-LIGAND FREE ENERGY PREDICTED BY IDOCK:   -1.05 KCAL/MOL
REMARK 927      BINDING AFFINITY PREDICTED BY RF-SCORE:    0.00 PKD
ROOT
HETATM    1  C   UNL     1     -12.624  15.209  73.526  1.00  0.00    -0.554 C  
HETATM    2  S   UNL     1     -13.416  14.571  72.072  1.00  0.00    -0.428 S  
HETATM    3  O   UNL     1     -12.098  14.348  71.124  1.00  0.00    -0.323 OA 
HETATM    4  O   UNL     1     -13.975  13.274  72.386  1.00  0.00    -0.608 OA 
HETATM    5  O   UNL     1     -14.215  15.628  71.484  1.00  0.00    -0.508 OA 
ENDROOT
BRANCH   3   6
HETATM    6  C   UNL     1     -12.393  13.803  69.834  1.00  0.00    -0.275 C  
BRANCH   6   7
HETATM    7  C   UNL     1     -11.191  13.881  68.887  1.00  0.00    -0.271 C  
HETATM    8  O   UNL     1     -10.415  12.671  68.994  1.00  0.00    -0.416 OA 
HETATM    9  H   UNL     1      -9.670  12.720  68.406  1.00  0.00     0.000 HD 
BRANCH   7  10
HETATM   10  C   UNL     1     -11.624  14.004  67.410  1.00  0.00    -0.368 C  
HETATM   11  H   UNL     1     -11.523  15.390  66.010  1.00  0.00     0.000 HD 
HETATM   12  O   UNL     1     -11.257  15.314  66.919  1.00  0.00    -0.322 OA 
BRANCH  10  13
HETATM   13  C   UNL     1     -11.011  12.981  66.434  1.00  0.00    -0.281 C  
HETATM   14  O   UNL     1      -9.589  13.224  66.416  1.00  0.00    -0.265 OA 
HETATM   15  H   UNL     1      -9.212  12.594  65.814  1.00  0.00     0.000 HD 
BRANCH  13  16
HETATM   16  C   UNL     1     -11.558  13.022  64.997  1.00  0.00    -0.325 C  
HETATM   17  H   UNL     1     -13.323  12.863  64.158  1.00  0.00     0.000 HD 
HETATM   18  O   UNL     1     -12.985  12.837  65.046  1.00  0.00    -0.811 OA 
BRANCH  16  19
HETATM   19  C   UNL     1     -10.928  11.967  64.080  1.00  0.00    -0.360 C  
BRANCH  19  20
HETATM   20  O   UNL     1     -10.707  10.780  64.854  1.00  0.00    -0.250 OA 
HETATM   21  S   UNL     1      -9.224  10.118  64.764  1.00  0.00    -0.266 S  
HETATM   22  C   UNL     1      -9.508   8.760  65.874  1.00  0.00    -0.208 C  
HETATM   23  O   UNL     1      -8.276  11.031  65.370  1.00  0.00    -0.076 OA 
HETATM   24  O   UNL     1      -9.041   9.594  63.426  1.00  0.00    -0.248 OA 
ENDBRANCH  19  20
ENDBRANCH  16  19
ENDBRANCH  13  16
ENDBRANCH  10  13
ENDBRANCH   7  10
ENDBRANCH   6   7
ENDBRANCH   3   6
TORSDOF 7
ENDMDL
MODEL       57
REMARK 921   NORMALIZED FREE ENERGY PREDICTED BY IDOCK:   -4.94 KCAL/MOL
REMARK 922        TOTAL FREE ENERGY PREDICTED BY IDOCK:   -8.21 KCAL/MOL
REMARK 923 INTER-LIGAND FREE ENERGY PREDICTED BY IDOCK:   -7.22 KCAL/MOL
REMARK 924 INTRA-LIGAND FREE ENERGY PREDICTED BY IDOCK:   -0.99 KCAL/MOL
REMARK 927      BINDING AFFINITY PREDICTED BY RF-SCORE:    0.00 PKD
ROOT
HETATM    1  C   UNL     1     -10.899  11.663  63.370  1.00  0.00    -0.379 C  
HETATM    2  S   UNL     1     -11.933  12.952  64.016  1.00  0.00    -0.487 S  
HETATM    3  O   UNL     1     -10.781  14.057  64.390  1.00  0.00    -0.377 OA 
HETATM    4  O   UNL     1     -12.735  13.482  62.934  1.00  0.00    -0.569 OA 
HETATM    5  O   UNL     1     -12.525  12.490  65.254  1.00  0.00    -0.608 OA 
ENDROOT
BRANCH   3   6
HETATM    6  C   UNL     1     -11.296  15.275  64.936  1.00  0.00    -0.384 C  
BRANCH   6   7
HETATM    7  C   UNL     1     -10.201  16.121  65.593  1.00  0.00    -0.364 C  
HETATM    8  O   UNL     1     -10.499  17.519  65.409  1.00  0.00    -0.647 OA 
HETATM    9  H   UNL     1      -9.819  18.044  65.817  1.00  0.00     0.000 HD 
BRANCH   7  10
HETATM   10  C   UNL     1     -10.117  15.881  67.116  1.00  0.00    -0.264 C  
HETATM   11  H   UNL     1     -10.872  14.581  68.394  1.00  0.00     0.000 HD 
HETATM   12  O   UNL     1     -10.924  14.729  67.456  1.00  0.00    -0.286 OA 
BRANCH  10  13
HETATM   13  C   UNL     1      -8.710  15.617  67.687  1.00  0.00    -0.175 C  
HETATM   14  O   UNL     1      -8.806  15.776  69.118  1.00  0.00    -0.219 OA 
HETATM   15  H   UNL     1      -7.940  15.614  69.470  1.00  0.00     0.000 HD 
BRANCH  13  16
HETATM   16  C   UNL     1      -7.590  16.521  67.143  1.00  0.00    -0.179 C  
HETATM   17  H   UNL     1      -5.713  16.282  66.632  1.00  0.00     0.000 HD 
HETATM   18  O   UNL     1      -6.404  15.724  66.968  1.00  0.00    -0.308 OA 
BRANCH  16  19
HETATM   19  C   UNL     1      -7.284  17.717  68.052  1.00  0.00    -0.216 C  
BRANCH  19  20
HETATM   20  O   UNL     1      -8.383  18.634  67.966  1.00  0.00    -0.264 OA 
HETATM   21  S   UNL     1      -8.192  19.905  66.969  1.00  0.00    -0.329 S  
HETATM   22  C   UNL     1      -9.784  20.650  67.237  1.00  0.00    -0.422 C  
HETATM   23  O   UNL     1      -8.126  19.416  65.607  1.00  0.00    -0.414 OA 
HETATM   24  O   UNL     1      -7.175  20.772  67.527  1.00  0.00    -0.331 OA 
ENDBRANCH  19  20
ENDBRANCH  16  19
ENDBRANCH  13  16
ENDBRANCH  10  13
ENDBRANCH   7  10
ENDBRANCH   6   7
ENDBRANCH   3   6
TORSDOF 7
ENDMDL
MODEL       58
REMARK 921   NORMALIZED FREE ENERGY PREDICTED BY IDOCK:   -4.93 KCAL/MOL
REMARK 922        TOTAL FREE ENERGY PREDICTED BY IDOCK:   -8.20 KCAL/MOL
REMARK 923 INTER-LIGAND FREE ENERGY PREDICTED BY IDOCK:   -6.82 KCAL/MOL
REMARK 924 INTRA-LIGAND FREE ENERGY PREDICTED BY IDOCK:   -1.37 KCAL/MOL
REMARK 927      BINDING AFFINITY PREDICTED BY RF-SCORE:    0.00 PKD
ROOT
HETATM    1  C   UNL     1      -9.694  10.738  68.885  1.00  0.00    -0.198 C  
HETATM    2  S   UNL     1     -11.284  11.485  69.134  1.00  0.00    -0.292 S  
HETATM    3  O   UNL     1     -10.859  13.064  69.025  1.00  0.00    -0.231 OA 
HETATM    4  O   UNL     1     -12.125  11.162  68.002  1.00  0.00    -0.635 OA 
HETATM    5  O   UNL     1     -11.703  11.230  70.498  1.00  0.00    -0.329 OA 
ENDROOT
BRANCH   3   6
HETATM    6  C   UNL     1     -11.954  13.974  69.166  1.00  0.00    -0.360 C  
BRANCH   6   7
HETATM    7  C   UNL     1     -11.903  15.103  68.132  1.00  0.00    -0.228 C  
HETATM    8  O   UNL     1     -11.159  16.214  68.669  1.00  0.00    -0.318 OA 
HETATM    9  H   UNL     1     -11.127  16.915  68.027  1.00  0.00     0.000 HD 
BRANCH   7  10
HETATM   10  C   UNL     1     -11.182  14.671  66.837  1.00  0.00    -0.343 C  
HETATM   11  H   UNL     1     -11.724  13.973  65.073  1.00  0.00     0.000 HD 
HETATM   12  O   UNL     1     -12.168  14.239  65.870  1.00  0.00    -0.417 OA 
BRANCH  10  13
HETATM   13  C   UNL     1     -10.327  15.748  66.141  1.00  0.00    -0.320 C  
HETATM   14  O   UNL     1     -10.665  15.706  64.739  1.00  0.00    -0.537 OA 
HETATM   15  H   UNL     1     -10.138  16.369  64.311  1.00  0.00     0.000 HD 
BRANCH  13  16
HETATM   16  C   UNL     1      -8.804  15.599  66.307  1.00  0.00    -0.329 C  
HETATM   17  H   UNL     1      -7.600  14.919  67.696  1.00  0.00     0.000 HD 
HETATM   18  O   UNL     1      -8.540  15.011  67.594  1.00  0.00    -0.158 OA 
BRANCH  16  19
HETATM   19  C   UNL     1      -8.050  16.927  66.176  1.00  0.00    -0.260 C  
BRANCH  19  20
HETATM   20  O   UNL     1      -9.000  17.947  65.841  1.00  0.00    -0.512 OA 
HETATM   21  S   UNL     1      -9.163  19.167  66.905  1.00  0.00    -0.323 S  
HETATM   22  C   UNL     1     -10.393  20.089  66.013  1.00  0.00    -0.448 C  
HETATM   23  O   UNL     1      -7.929  19.927  66.925  1.00  0.00    -0.282 OA 
HETATM   24  O   UNL     1      -9.764  18.640  68.113  1.00  0.00    -0.305 OA 
ENDBRANCH  19  20
ENDBRANCH  16  19
ENDBRANCH  13  16
ENDBRANCH  10  13
ENDBRANCH   7  10
ENDBRANCH   6   7
ENDBRANCH   3   6
TORSDOF 7
ENDMDL
MODEL       59
REMARK 921   NORMALIZED FREE ENERGY PREDICTED BY IDOCK:   -4.90 KCAL/MOL
REMARK 922        TOTAL FREE ENERGY PREDICTED BY IDOCK:   -8.15 KCAL/MOL
REMARK 923 INTER-LIGAND FREE ENERGY PREDICTED BY IDOCK:   -7.53 KCAL/MOL
REMARK 924 INTRA-LIGAND FREE ENERGY PREDICTED BY IDOCK:   -0.62 KCAL/MOL
REMARK 927      BINDING AFFINITY PREDICTED BY RF-SCORE:    0.00 PKD
ROOT
HETATM    1  C   UNL     1     -10.782  11.556  63.566  1.00  0.00    -0.414 C  
HETATM    2  S   UNL     1     -11.855  12.886  64.045  1.00  0.00    -0.482 S  
HETATM    3  O   UNL     1     -10.729  13.995  64.480  1.00  0.00    -0.409 OA 
HETATM    4  O   UNL     1     -12.539  13.371  62.866  1.00  0.00    -0.576 OA 
HETATM    5  O   UNL     1     -12.573  12.488  65.239  1.00  0.00    -0.645 OA 
ENDROOT
BRANCH   3   6
HETATM    6  C   UNL     1     -11.278  15.243  64.915  1.00  0.00    -0.415 C  
BRANCH   6   7
HETATM    7  C   UNL     1     -10.203  16.185  65.464  1.00  0.00    -0.331 C  
HETATM    8  O   UNL     1     -10.668  17.547  65.380  1.00  0.00    -0.612 OA 
HETATM    9  H   UNL     1     -10.001  18.131  65.721  1.00  0.00     0.000 HD 
BRANCH   7  10
HETATM   10  C   UNL     1      -9.896  15.912  66.952  1.00  0.00    -0.243 C  
HETATM   11  H   UNL     1      -8.494  16.443  68.235  1.00  0.00     0.000 HD 
HETATM   12  O   UNL     1      -8.683  16.611  67.319  1.00  0.00    -0.186 OA 
BRANCH  10  13
HETATM   13  C   UNL     1     -10.976  16.346  67.962  1.00  0.00    -0.327 C  
HETATM   14  O   UNL     1     -10.358  17.307  68.844  1.00  0.00    -0.331 OA 
HETATM   15  H   UNL     1     -11.023  17.574  69.466  1.00  0.00     0.000 HD 
BRANCH  13  16
HETATM   16  C   UNL     1     -11.604  15.214  68.793  1.00  0.00    -0.349 C  
HETATM   17  H   UNL     1     -12.071  14.947  70.678  1.00  0.00     0.000 HD 
HETATM   18  O   UNL     1     -11.683  15.645  70.165  1.00  0.00    -0.307 OA 
BRANCH  16  19
HETATM   19  C   UNL     1     -10.826  13.897  68.705  1.00  0.00    -0.262 C  
BRANCH  19  20
HETATM   20  O   UNL     1     -11.456  12.949  69.578  1.00  0.00    -0.267 OA 
HETATM   21  S   UNL     1     -11.232  11.376  69.227  1.00  0.00    -0.289 S  
HETATM   22  C   UNL     1     -12.174  10.702  70.574  1.00  0.00    -0.358 C  
HETATM   23  O   UNL     1      -9.833  11.056  69.426  1.00  0.00    -0.105 OA 
HETATM   24  O   UNL     1     -11.921  11.085  67.987  1.00  0.00    -0.623 OA 
ENDBRANCH  19  20
ENDBRANCH  16  19
ENDBRANCH  13  16
ENDBRANCH  10  13
ENDBRANCH   7  10
ENDBRANCH   6   7
ENDBRANCH   3   6
TORSDOF 7
ENDMDL
MODEL       60
REMARK 921   NORMALIZED FREE ENERGY PREDICTED BY IDOCK:   -4.90 KCAL/MOL
REMARK 922        TOTAL FREE ENERGY PREDICTED BY IDOCK:   -8.15 KCAL/MOL
REMARK 923 INTER-LIGAND FREE ENERGY PREDICTED BY IDOCK:   -7.68 KCAL/MOL
REMARK 924 INTRA-LIGAND FREE ENERGY PREDICTED BY IDOCK:   -0.47 KCAL/MOL
REMARK 927      BINDING AFFINITY PREDICTED BY RF-SCORE:    0.00 PKD
ROOT
HETATM    1  C   UNL     1     -12.182  14.566  63.979  1.00  0.00    -0.229 C  
HETATM    2  S   UNL     1     -11.958  12.814  64.153  1.00  0.00    -0.467 S  
HETATM    3  O   UNL     1     -11.425  12.765  65.703  1.00  0.00    -0.313 OA 
HETATM    4  O   UNL     1     -13.257  12.178  64.100  1.00  0.00    -0.740 OA 
HETATM    5  O   UNL     1     -10.867  12.403  63.293  1.00  0.00    -0.432 OA 
ENDROOT
BRANCH   3   6
HETATM    6  C   UNL     1     -11.158  11.445  66.186  1.00  0.00    -0.198 C  
BRANCH   6   7
HETATM    7  C   UNL     1     -11.385  11.326  67.696  1.00  0.00    -0.282 C  
HETATM    8  O   UNL     1     -11.269   9.946  68.093  1.00  0.00    -0.491 OA 
HETATM    9  H   UNL     1     -11.410   9.873  69.030  1.00  0.00     0.000 HD 
BRANCH   7  10
HETATM   10  C   UNL     1     -10.330  12.112  68.504  1.00  0.00    -0.221 C  
HETATM   11  H   UNL     1      -8.368  12.317  68.460  1.00  0.00     0.000 HD 
HETATM   12  O   UNL     1      -9.017  11.833  67.962  1.00  0.00    -0.162 OA 
BRANCH  10  13
HETATM   13  C   UNL     1     -10.484  13.645  68.518  1.00  0.00    -0.244 C  
HETATM   14  O   UNL     1      -9.488  14.155  69.429  1.00  0.00    -0.380 OA 
HETATM   15  H   UNL     1      -9.583  15.099  69.437  1.00  0.00     0.000 HD 
BRANCH  13  16
HETATM   16  C   UNL     1     -11.871  14.171  68.925  1.00  0.00    -0.347 C  
HETATM   17  H   UNL     1     -12.650  15.927  69.315  1.00  0.00     0.000 HD 
HETATM   18  O   UNL     1     -11.794  15.602  69.064  1.00  0.00    -0.376 OA 
BRANCH  16  19
HETATM   19  C   UNL     1     -12.396  13.549  70.224  1.00  0.00    -0.300 C  
BRANCH  19  20
HETATM   20  O   UNL     1     -12.133  14.467  71.294  1.00  0.00    -0.331 OA 
HETATM   21  S   UNL     1     -13.407  14.905  72.206  1.00  0.00    -0.436 S  
HETATM   22  C   UNL     1     -12.535  15.979  73.321  1.00  0.00    -0.535 C  
HETATM   23  O   UNL     1     -13.870  13.743  72.938  1.00  0.00    -0.668 OA 
HETATM   24  O   UNL     1     -14.296  15.706  71.390  1.00  0.00    -0.524 OA 
ENDBRANCH  19  20
ENDBRANCH  16  19
ENDBRANCH  13  16
ENDBRANCH  10  13
ENDBRANCH   7  10
ENDBRANCH   6   7
ENDBRANCH   3   6
TORSDOF 7
ENDMDL
MODEL       61
REMARK 921   NORMALIZED FREE ENERGY PREDICTED BY IDOCK:   -4.86 KCAL/MOL
REMARK 922        TOTAL FREE ENERGY PREDICTED BY IDOCK:   -8.10 KCAL/MOL
REMARK 923 INTER-LIGAND FREE ENERGY PREDICTED BY IDOCK:   -7.49 KCAL/MOL
REMARK 924 INTRA-LIGAND FREE ENERGY PREDICTED BY IDOCK:   -0.61 KCAL/MOL
REMARK 927      BINDING AFFINITY PREDICTED BY RF-SCORE:    0.00 PKD
ROOT
HETATM    1  C   UNL     1      -8.803  19.981  66.840  1.00  0.00    -0.347 C  
HETATM    2  S   UNL     1      -9.383  18.374  67.318  1.00  0.00    -0.274 S  
HETATM    3  O   UNL     1      -9.230  17.595  65.884  1.00  0.00    -0.517 OA 
HETATM    4  O   UNL     1      -8.433  17.801  68.249  1.00  0.00    -0.260 OA 
HETATM    5  O   UNL     1     -10.796  18.468  67.626  1.00  0.00    -0.412 OA 
ENDROOT
BRANCH   3   6
HETATM    6  C   UNL     1      -9.609  16.216  65.926  1.00  0.00    -0.324 C  
BRANCH   6   7
HETATM    7  C   UNL     1     -11.032  15.994  65.403  1.00  0.00    -0.253 C  
HETATM    8  O   UNL     1     -11.146  16.540  64.074  1.00  0.00    -1.299 OA 
HETATM    9  H   UNL     1     -12.029  16.401  63.750  1.00  0.00     0.000 HD 
BRANCH   7  10
HETATM   10  C   UNL     1     -11.384  14.494  65.299  1.00  0.00    -0.353 C  
HETATM   11  H   UNL     1     -12.942  13.367  65.739  1.00  0.00     0.000 HD 
HETATM   12  O   UNL     1     -12.725  14.290  65.803  1.00  0.00    -0.464 OA 
BRANCH  10  13
HETATM   13  C   UNL     1     -11.348  13.882  63.886  1.00  0.00     0.061 C  
HETATM   14  O   UNL     1     -12.587  14.246  63.243  1.00  0.00    -1.069 OA 
HETATM   15  H   UNL     1     -12.565  13.869  62.372  1.00  0.00     0.000 HD 
BRANCH  13  16
HETATM   16  C   UNL     1     -11.167  12.355  63.826  1.00  0.00    -0.453 C  
HETATM   17  H   UNL     1     -12.327  10.815  63.472  1.00  0.00     0.000 HD 
HETATM   18  O   UNL     1     -12.438  11.757  63.510  1.00  0.00    -0.520 OA 
BRANCH  16  19
HETATM   19  C   UNL     1     -10.621  11.759  65.128  1.00  0.00    -0.283 C  
BRANCH  19  20
HETATM   20  O   UNL     1      -9.551  10.865  64.794  1.00  0.00    -0.219 OA 
HETATM   21  S   UNL     1      -9.201   9.710  65.884  1.00  0.00    -0.213 S  
HETATM   22  C   UNL     1      -7.881   8.933  64.983  1.00  0.00    -0.112 C  
HETATM   23  O   UNL     1     -10.321   8.794  65.959  1.00  0.00    -0.052 OA 
HETATM   24  O   UNL     1      -8.647  10.348  67.060  1.00  0.00    -0.129 OA 
ENDBRANCH  19  20
ENDBRANCH  16  19
ENDBRANCH  13  16
ENDBRANCH  10  13
ENDBRANCH   7  10
ENDBRANCH   6   7
ENDBRANCH   3   6
TORSDOF 7
ENDMDL
MODEL       62
REMARK 921   NORMALIZED FREE ENERGY PREDICTED BY IDOCK:   -4.86 KCAL/MOL
REMARK 922        TOTAL FREE ENERGY PREDICTED BY IDOCK:   -8.09 KCAL/MOL
REMARK 923 INTER-LIGAND FREE ENERGY PREDICTED BY IDOCK:   -7.21 KCAL/MOL
REMARK 924 INTRA-LIGAND FREE ENERGY PREDICTED BY IDOCK:   -0.88 KCAL/MOL
REMARK 927      BINDING AFFINITY PREDICTED BY RF-SCORE:    0.00 PKD
ROOT
HETATM    1  C   UNL     1     -12.442  12.199  63.506  1.00  0.00    -0.555 C  
HETATM    2  S   UNL     1     -11.071  12.019  64.618  1.00  0.00    -0.331 S  
HETATM    3  O   UNL     1     -11.890  11.878  66.032  1.00  0.00    -0.497 OA 
HETATM    4  O   UNL     1     -10.420  10.757  64.343  1.00  0.00    -0.365 OA 
HETATM    5  O   UNL     1     -10.339  13.269  64.650  1.00  0.00    -0.381 OA 
ENDROOT
BRANCH   3   6
HETATM    6  C   UNL     1     -11.050  11.692  67.175  1.00  0.00    -0.299 C  
BRANCH   6   7
HETATM    7  C   UNL     1     -11.730  12.149  68.470  1.00  0.00    -0.330 C  
HETATM    8  O   UNL     1     -10.944  11.725  69.601  1.00  0.00    -0.451 OA 
HETATM    9  H   UNL     1     -11.366  12.009  70.404  1.00  0.00     0.000 HD 
BRANCH   7  10
HETATM   10  C   UNL     1     -11.840  13.686  68.556  1.00  0.00    -0.371 C  
HETATM   11  H   UNL     1     -12.245  15.005  69.966  1.00  0.00     0.000 HD 
HETATM   12  O   UNL     1     -12.177  14.059  69.913  1.00  0.00    -0.317 OA 
BRANCH  10  13
HETATM   13  C   UNL     1     -10.575  14.482  68.182  1.00  0.00    -0.238 C  
HETATM   14  O   UNL     1      -9.692  14.418  69.321  1.00  0.00    -0.408 OA 
HETATM   15  H   UNL     1      -8.913  14.909  69.091  1.00  0.00     0.000 HD 
BRANCH  13  16
HETATM   16  C   UNL     1     -10.804  15.953  67.792  1.00  0.00    -0.324 C  
HETATM   17  H   UNL     1     -10.932  16.960  66.115  1.00  0.00     0.000 HD 
HETATM   18  O   UNL     1     -10.790  16.052  66.356  1.00  0.00    -0.269 OA 
BRANCH  16  19
HETATM   19  C   UNL     1      -9.764  16.906  68.391  1.00  0.00    -0.263 C  
BRANCH  19  20
HETATM   20  O   UNL     1     -10.092  18.239  67.978  1.00  0.00    -0.327 OA 
HETATM   21  S   UNL     1      -8.901  19.098  67.278  1.00  0.00    -0.295 S  
HETATM   22  C   UNL     1      -9.832  20.582  66.978  1.00  0.00    -0.393 C  
HETATM   23  O   UNL     1      -8.577  18.482  66.007  1.00  0.00    -0.497 OA 
HETATM   24  O   UNL     1      -7.893  19.377  68.279  1.00  0.00    -0.304 OA 
ENDBRANCH  19  20
ENDBRANCH  16  19
ENDBRANCH  13  16
ENDBRANCH  10  13
ENDBRANCH   7  10
ENDBRANCH   6   7
ENDBRANCH   3   6
TORSDOF 7
ENDMDL
MODEL       63
REMARK 921   NORMALIZED FREE ENERGY PREDICTED BY IDOCK:   -4.86 KCAL/MOL
REMARK 922        TOTAL FREE ENERGY PREDICTED BY IDOCK:   -8.09 KCAL/MOL
REMARK 923 INTER-LIGAND FREE ENERGY PREDICTED BY IDOCK:   -6.91 KCAL/MOL
REMARK 924 INTRA-LIGAND FREE ENERGY PREDICTED BY IDOCK:   -1.18 KCAL/MOL
REMARK 927      BINDING AFFINITY PREDICTED BY RF-SCORE:    0.00 PKD
ROOT
HETATM    1  C   UNL     1      -9.265  16.021  66.059  1.00  0.00    -0.340 C  
HETATM    2  S   UNL     1     -10.423  14.679  66.129  1.00  0.00    -0.316 S  
HETATM    3  O   UNL     1     -10.948  14.858  67.672  1.00  0.00    -0.281 OA 
HETATM    4  O   UNL     1     -11.524  14.975  65.238  1.00  0.00    -0.348 OA 
HETATM    5  O   UNL     1      -9.688  13.433  66.050  1.00  0.00    -0.273 OA 
ENDROOT
BRANCH   3   6
HETATM    6  C   UNL     1     -11.945  13.909  68.063  1.00  0.00    -0.355 C  
BRANCH   6   7
HETATM    7  C   UNL     1     -11.419  12.916  69.103  1.00  0.00    -0.306 C  
HETATM    8  O   UNL     1     -11.663  13.431  70.427  1.00  0.00    -0.513 OA 
HETATM    9  H   UNL     1     -11.336  12.815  71.072  1.00  0.00     0.000 HD 
BRANCH   7  10
HETATM   10  C   UNL     1     -12.136  11.551  69.019  1.00  0.00    -0.238 C  
HETATM   11  H   UNL     1     -12.272  10.097  67.692  1.00  0.00     0.000 HD 
HETATM   12  O   UNL     1     -11.831  10.937  67.744  1.00  0.00    -0.579 OA 
BRANCH  10  13
HETATM   13  C   UNL     1     -11.769  10.520  70.103  1.00  0.00    -0.326 C  
HETATM   14  O   UNL     1     -11.325   9.333  69.414  1.00  0.00    -0.440 OA 
HETATM   15  H   UNL     1     -11.099   8.697  70.082  1.00  0.00     0.000 HD 
BRANCH  13  16
HETATM   16  C   UNL     1     -12.898  10.154  71.083  1.00  0.00    -0.399 C  
HETATM   17  H   UNL     1     -13.948  11.104  72.437  1.00  0.00     0.000 HD 
HETATM   18  O   UNL     1     -13.252  11.331  71.833  1.00  0.00    -0.482 OA 
BRANCH  16  19
HETATM   19  C   UNL     1     -12.520   9.019  72.041  1.00  0.00    -0.390 C  
BRANCH  19  20
HETATM   20  O   UNL     1     -11.096   9.031  72.206  1.00  0.00    -0.298 OA 
HETATM   21  S   UNL     1     -10.371   7.584  72.370  1.00  0.00    -0.248 S  
HETATM   22  C   UNL     1      -8.702   8.177  72.516  1.00  0.00    -0.203 C  
HETATM   23  O   UNL     1     -10.504   6.859  71.123  1.00  0.00    -0.211 OA 
HETATM   24  O   UNL     1     -10.774   7.015  73.640  1.00  0.00    -0.362 OA 
ENDBRANCH  19  20
ENDBRANCH  16  19
ENDBRANCH  13  16
ENDBRANCH  10  13
ENDBRANCH   7  10
ENDBRANCH   6   7
ENDBRANCH   3   6
TORSDOF 7
ENDMDL
MODEL       64
REMARK 921   NORMALIZED FREE ENERGY PREDICTED BY IDOCK:   -4.83 KCAL/MOL
REMARK 922        TOTAL FREE ENERGY PREDICTED BY IDOCK:   -8.06 KCAL/MOL
REMARK 923 INTER-LIGAND FREE ENERGY PREDICTED BY IDOCK:   -7.02 KCAL/MOL
REMARK 924 INTRA-LIGAND FREE ENERGY PREDICTED BY IDOCK:   -1.04 KCAL/MOL
REMARK 927      BINDING AFFINITY PREDICTED BY RF-SCORE:    0.00 PKD
ROOT
HETATM    1  C   UNL     1      -9.062  10.226  68.098  1.00  0.00    -0.136 C  
HETATM    2  S   UNL     1     -10.485  11.203  67.689  1.00  0.00    -0.208 S  
HETATM    3  O   UNL     1     -10.360  11.186  66.054  1.00  0.00    -0.241 OA 
HETATM    4  O   UNL     1     -11.672  10.463  68.061  1.00  0.00    -0.383 OA 
HETATM    5  O   UNL     1     -10.256  12.561  68.140  1.00  0.00    -0.217 OA 
ENDROOT
BRANCH   3   6
HETATM    6  C   UNL     1     -11.407  11.895  65.383  1.00  0.00    -0.277 C  
BRANCH   6   7
HETATM    7  C   UNL     1     -10.865  13.023  64.500  1.00  0.00    -0.372 C  
HETATM    8  O   UNL     1     -11.099  12.705  63.114  1.00  0.00    -0.702 OA 
HETATM    9  H   UNL     1     -10.763  13.406  62.567  1.00  0.00     0.000 HD 
BRANCH   7  10
HETATM   10  C   UNL     1     -11.575  14.367  64.774  1.00  0.00    -0.408 C  
HETATM   11  H   UNL     1     -13.352  14.928  65.420  1.00  0.00     0.000 HD 
HETATM   12  O   UNL     1     -12.915  14.102  65.251  1.00  0.00    -0.725 OA 
BRANCH  10  13
HETATM   13  C   UNL     1     -10.912  15.288  65.816  1.00  0.00    -0.338 C  
HETATM   14  O   UNL     1     -11.410  14.882  67.107  1.00  0.00    -0.337 OA 
HETATM   15  H   UNL     1     -11.002  15.450  67.749  1.00  0.00     0.000 HD 
BRANCH  13  16
HETATM   16  C   UNL     1     -11.154  16.795  65.622  1.00  0.00     0.147 C  
HETATM   17  H   UNL     1     -11.513  17.978  64.101  1.00  0.00     0.000 HD 
HETATM   18  O   UNL     1     -11.363  17.048  64.220  1.00  0.00    -1.191 OA 
BRANCH  16  19
HETATM   19  C   UNL     1     -10.003  17.664  66.142  1.00  0.00    -0.272 C  
BRANCH  19  20
HETATM   20  O   UNL     1      -8.913  16.798  66.487  1.00  0.00    -0.236 OA 
HETATM   21  S   UNL     1      -7.460  17.501  66.684  1.00  0.00    -0.272 S  
HETATM   22  C   UNL     1      -6.546  16.033  67.093  1.00  0.00    -0.142 C  
HETATM   23  O   UNL     1      -7.518  18.358  67.850  1.00  0.00    -0.229 OA 
HETATM   24  O   UNL     1      -7.010  17.983  65.395  1.00  0.00    -0.481 OA 
ENDBRANCH  19  20
ENDBRANCH  16  19
ENDBRANCH  13  16
ENDBRANCH  10  13
ENDBRANCH   7  10
ENDBRANCH   6   7
ENDBRANCH   3   6
TORSDOF 7
ENDMDL
MODEL       65
REMARK 921   NORMALIZED FREE ENERGY PREDICTED BY IDOCK:   -4.80 KCAL/MOL
REMARK 922        TOTAL FREE ENERGY PREDICTED BY IDOCK:   -8.01 KCAL/MOL
REMARK 923 INTER-LIGAND FREE ENERGY PREDICTED BY IDOCK:   -6.86 KCAL/MOL
REMARK 924 INTRA-LIGAND FREE ENERGY PREDICTED BY IDOCK:   -1.14 KCAL/MOL
REMARK 927      BINDING AFFINITY PREDICTED BY RF-SCORE:    0.00 PKD
ROOT
HETATM    1  C   UNL     1     -11.398   6.165  72.680  1.00  0.00    -0.259 C  
HETATM    2  S   UNL     1     -11.968   7.278  71.422  1.00  0.00    -0.339 S  
HETATM    3  O   UNL     1     -10.939   8.527  71.683  1.00  0.00    -0.252 OA 
HETATM    4  O   UNL     1     -11.665   6.703  70.129  1.00  0.00    -0.394 OA 
HETATM    5  O   UNL     1     -13.303   7.721  71.771  1.00  0.00    -0.332 OA 
ENDROOT
BRANCH   3   6
HETATM    6  C   UNL     1     -11.121   9.629  70.788  1.00  0.00    -0.334 C  
BRANCH   6   7
HETATM    7  C   UNL     1      -9.911   9.833  69.871  1.00  0.00    -0.243 C  
HETATM    8  O   UNL     1      -9.689   8.639  69.095  1.00  0.00    -0.168 OA 
HETATM    9  H   UNL     1      -8.938   8.766  68.526  1.00  0.00     0.000 HD 
BRANCH   7  10
HETATM   10  C   UNL     1     -10.132  10.983  68.865  1.00  0.00    -0.199 C  
HETATM   11  H   UNL     1     -10.154  11.169  66.901  1.00  0.00     0.000 HD 
HETATM   12  O   UNL     1     -10.017  10.461  67.520  1.00  0.00    -0.171 OA 
BRANCH  10  13
HETATM   13  C   UNL     1     -11.492  11.704  68.943  1.00  0.00    -0.287 C  
HETATM   14  O   UNL     1     -12.285  11.213  67.842  1.00  0.00    -0.604 OA 
HETATM   15  H   UNL     1     -13.123  11.657  67.889  1.00  0.00     0.000 HD 
BRANCH  13  16
HETATM   16  C   UNL     1     -11.435  13.241  68.891  1.00  0.00    -0.298 C  
HETATM   17  H   UNL     1     -12.099  14.711  70.004  1.00  0.00     0.000 HD 
HETATM   18  O   UNL     1     -12.135  13.762  70.036  1.00  0.00    -0.313 OA 
BRANCH  16  19
HETATM   19  C   UNL     1     -12.032  13.824  67.605  1.00  0.00    -0.356 C  
BRANCH  19  20
HETATM   20  O   UNL     1     -11.262  13.340  66.497  1.00  0.00    -0.293 OA 
HETATM   21  S   UNL     1     -11.957  13.435  65.030  1.00  0.00    -0.399 S  
HETATM   22  C   UNL     1     -10.614  12.746  64.092  1.00  0.00    -0.415 C  
HETATM   23  O   UNL     1     -12.104  14.834  64.681  1.00  0.00    -0.443 OA 
HETATM   24  O   UNL     1     -13.071  12.510  64.994  1.00  0.00    -0.765 OA 
ENDBRANCH  19  20
ENDBRANCH  16  19
ENDBRANCH  13  16
ENDBRANCH  10  13
ENDBRANCH   7  10
ENDBRANCH   6   7
ENDBRANCH   3   6
TORSDOF 7
ENDMDL
MODEL       66
REMARK 921   NORMALIZED FREE ENERGY PREDICTED BY IDOCK:   -4.79 KCAL/MOL
REMARK 922        TOTAL FREE ENERGY PREDICTED BY IDOCK:   -8.00 KCAL/MOL
REMARK 923 INTER-LIGAND FREE ENERGY PREDICTED BY IDOCK:   -7.00 KCAL/MOL
REMARK 924 INTRA-LIGAND FREE ENERGY PREDICTED BY IDOCK:   -1.00 KCAL/MOL
REMARK 927      BINDING AFFINITY PREDICTED BY RF-SCORE:    0.00 PKD
ROOT
HETATM    1  C   UNL     1     -12.437   6.944  71.208  1.00  0.00    -0.361 C  
HETATM    2  S   UNL     1     -12.149   8.567  71.865  1.00  0.00    -0.376 S  
HETATM    3  O   UNL     1     -11.930   9.389  70.464  1.00  0.00    -0.216 OA 
HETATM    4  O   UNL     1     -13.372   9.037  72.480  1.00  0.00    -0.453 OA 
HETATM    5  O   UNL     1     -10.887   8.557  72.578  1.00  0.00    -0.337 OA 
ENDROOT
BRANCH   3   6
HETATM    6  C   UNL     1     -11.686  10.788  70.640  1.00  0.00    -0.342 C  
BRANCH   6   7
HETATM    7  C   UNL     1     -11.509  11.515  69.304  1.00  0.00    -0.305 C  
HETATM    8  O   UNL     1     -12.243  10.819  68.277  1.00  0.00    -0.815 OA 
HETATM    9  H   UNL     1     -12.133  11.271  67.448  1.00  0.00     0.000 HD 
BRANCH   7  10
HETATM   10  C   UNL     1     -12.065  12.955  69.348  1.00  0.00    -0.198 C  
HETATM   11  H   UNL     1     -12.546  14.250  70.757  1.00  0.00     0.000 HD 
HETATM   12  O   UNL     1     -12.204  13.364  70.730  1.00  0.00    -0.358 OA 
BRANCH  10  13
HETATM   13  C   UNL     1     -11.214  14.036  68.654  1.00  0.00    -0.268 C  
HETATM   14  O   UNL     1     -11.121  15.145  69.572  1.00  0.00    -0.248 OA 
HETATM   15  H   UNL     1     -10.597  15.811  69.144  1.00  0.00     0.000 HD 
BRANCH  13  16
HETATM   16  C   UNL     1     -11.746  14.533  67.299  1.00  0.00    -0.406 C  
HETATM   17  H   UNL     1     -12.428  13.697  65.663  1.00  0.00     0.000 HD 
HETATM   18  O   UNL     1     -12.099  13.390  66.499  1.00  0.00    -0.395 OA 
BRANCH  16  19
HETATM   19  C   UNL     1     -10.742  15.409  66.541  1.00  0.00    -0.308 C  
BRANCH  19  20
HETATM   20  O   UNL     1     -10.885  16.757  67.008  1.00  0.00    -0.211 OA 
HETATM   21  S   UNL     1      -9.511  17.601  67.225  1.00  0.00    -0.263 S  
HETATM   22  C   UNL     1     -10.257  19.120  67.767  1.00  0.00    -0.403 C  
HETATM   23  O   UNL     1      -8.895  17.816  65.932  1.00  0.00    -0.512 OA 
HETATM   24  O   UNL     1      -8.789  17.017  68.336  1.00  0.00    -0.230 OA 
ENDBRANCH  19  20
ENDBRANCH  16  19
ENDBRANCH  13  16
ENDBRANCH  10  13
ENDBRANCH   7  10
ENDBRANCH   6   7
ENDBRANCH   3   6
TORSDOF 7
ENDMDL
MODEL       67
REMARK 921   NORMALIZED FREE ENERGY PREDICTED BY IDOCK:   -4.78 KCAL/MOL
REMARK 922        TOTAL FREE ENERGY PREDICTED BY IDOCK:   -7.99 KCAL/MOL
REMARK 923 INTER-LIGAND FREE ENERGY PREDICTED BY IDOCK:   -6.79 KCAL/MOL
REMARK 924 INTRA-LIGAND FREE ENERGY PREDICTED BY IDOCK:   -1.20 KCAL/MOL
REMARK 927      BINDING AFFINITY PREDICTED BY RF-SCORE:    0.00 PKD
ROOT
HETATM    1  C   UNL     1     -11.935  14.739  64.465  1.00  0.00    -0.440 C  
HETATM    2  S   UNL     1     -11.895  12.965  64.473  1.00  0.00    -0.403 S  
HETATM    3  O   UNL     1     -10.751  12.728  65.623  1.00  0.00    -0.266 OA 
HETATM    4  O   UNL     1     -13.159  12.480  64.984  1.00  0.00    -0.765 OA 
HETATM    5  O   UNL     1     -11.355  12.512  63.207  1.00  0.00    -0.456 OA 
ENDROOT
BRANCH   3   6
HETATM    6  C   UNL     1     -10.480  11.351  65.901  1.00  0.00    -0.258 C  
BRANCH   6   7
HETATM    7  C   UNL     1     -10.726  11.000  67.372  1.00  0.00    -0.257 C  
HETATM    8  O   UNL     1     -12.084  11.330  67.724  1.00  0.00    -0.631 OA 
HETATM    9  H   UNL     1     -12.236  11.113  68.637  1.00  0.00     0.000 HD 
BRANCH   7  10
HETATM   10  C   UNL     1     -10.550   9.491  67.646  1.00  0.00    -0.269 C  
HETATM   11  H   UNL     1     -10.060   7.902  66.585  1.00  0.00     0.000 HD 
HETATM   12  O   UNL     1     -10.169   8.831  66.416  1.00  0.00    -0.289 OA 
BRANCH  10  13
HETATM   13  C   UNL     1      -9.491   9.109  68.697  1.00  0.00    -0.143 C  
HETATM   14  O   UNL     1      -9.495   7.668  68.787  1.00  0.00    -0.151 OA 
HETATM   15  H   UNL     1      -8.843   7.433  69.435  1.00  0.00     0.000 HD 
BRANCH  13  16
HETATM   16  C   UNL     1      -9.695   9.711  70.098  1.00  0.00    -0.254 C  
HETATM   17  H   UNL     1      -8.772   9.603  71.824  1.00  0.00     0.000 HD 
HETATM   18  O   UNL     1      -8.646   9.231  70.959  1.00  0.00    -0.237 OA 
BRANCH  16  19
HETATM   19  C   UNL     1     -11.062   9.377  70.706  1.00  0.00    -0.300 C  
BRANCH  19  20
HETATM   20  O   UNL     1     -10.918   8.192  71.501  1.00  0.00    -0.231 OA 
HETATM   21  S   UNL     1     -11.967   6.985  71.205  1.00  0.00    -0.364 S  
HETATM   22  C   UNL     1     -11.340   5.835  72.406  1.00  0.00    -0.294 C  
HETATM   23  O   UNL     1     -11.707   6.466  69.878  1.00  0.00    -0.426 OA 
HETATM   24  O   UNL     1     -13.285   7.417  71.620  1.00  0.00    -0.356 OA 
ENDBRANCH  19  20
ENDBRANCH  16  19
ENDBRANCH  13  16
ENDBRANCH  10  13
ENDBRANCH   7  10
ENDBRANCH   6   7
ENDBRANCH   3   6
TORSDOF 7
ENDMDL
MODEL       68
REMARK 921   NORMALIZED FREE ENERGY PREDICTED BY IDOCK:   -4.78 KCAL/MOL
REMARK 922        TOTAL FREE ENERGY PREDICTED BY IDOCK:   -7.98 KCAL/MOL
REMARK 923 INTER-LIGAND FREE ENERGY PREDICTED BY IDOCK:   -6.80 KCAL/MOL
REMARK 924 INTRA-LIGAND FREE ENERGY PREDICTED BY IDOCK:   -1.18 KCAL/MOL
REMARK 927      BINDING AFFINITY PREDICTED BY RF-SCORE:    0.00 PKD
ROOT
HETATM    1  C   UNL     1     -11.706  12.092  64.391  1.00  0.00    -0.355 C  
HETATM    2  S   UNL     1     -12.203  13.795  64.443  1.00  0.00    -0.371 S  
HETATM    3  O   UNL     1     -10.770  14.480  64.848  1.00  0.00    -0.396 OA 
HETATM    4  O   UNL     1     -12.544  14.215  63.101  1.00  0.00    -0.686 OA 
HETATM    5  O   UNL     1     -13.113  13.974  65.557  1.00  0.00    -0.713 OA 
ENDROOT
BRANCH   3   6
HETATM    6  C   UNL     1     -10.816  15.906  64.957  1.00  0.00    -0.426 C  
BRANCH   6   7
HETATM    7  C   UNL     1     -10.138  16.409  66.235  1.00  0.00    -0.331 C  
HETATM    8  O   UNL     1     -10.986  16.136  67.369  1.00  0.00    -0.302 OA 
HETATM    9  H   UNL     1     -10.564  16.448  68.162  1.00  0.00     0.000 HD 
BRANCH   7  10
HETATM   10  C   UNL     1      -8.796  15.691  66.501  1.00  0.00    -0.310 C  
HETATM   11  H   UNL     1      -6.886  16.181  66.442  1.00  0.00     0.000 HD 
HETATM   12  O   UNL     1      -7.712  16.623  66.278  1.00  0.00    -0.303 OA 
BRANCH  10  13
HETATM   13  C   UNL     1      -8.600  15.118  67.918  1.00  0.00    -0.153 C  
HETATM   14  O   UNL     1      -7.607  15.942  68.565  1.00  0.00    -0.134 OA 
HETATM   15  H   UNL     1      -7.486  15.588  69.438  1.00  0.00     0.000 HD 
BRANCH  13  16
HETATM   16  C   UNL     1      -8.167  13.643  67.986  1.00  0.00    -0.162 C  
HETATM   17  H   UNL     1      -6.699  12.573  67.251  1.00  0.00     0.000 HD 
HETATM   18  O   UNL     1      -6.966  13.483  67.208  1.00  0.00    -0.128 OA 
BRANCH  16  19
HETATM   19  C   UNL     1      -9.244  12.674  67.486  1.00  0.00    -0.190 C  
BRANCH  19  20
HETATM   20  O   UNL     1      -9.938  12.153  68.627  1.00  0.00    -0.202 OA 
HETATM   21  S   UNL     1     -11.562  12.235  68.590  1.00  0.00    -0.343 S  
HETATM   22  C   UNL     1     -11.868  11.473  70.167  1.00  0.00    -0.356 C  
HETATM   23  O   UNL     1     -12.043  11.357  67.543  1.00  0.00    -0.592 OA 
HETATM   24  O   UNL     1     -11.949  13.629  68.666  1.00  0.00    -0.350 OA 
ENDBRANCH  19  20
ENDBRANCH  16  19
ENDBRANCH  13  16
ENDBRANCH  10  13
ENDBRANCH   7  10
ENDBRANCH   6   7
ENDBRANCH   3   6
TORSDOF 7
ENDMDL
MODEL       69
REMARK 921   NORMALIZED FREE ENERGY PREDICTED BY IDOCK:   -4.77 KCAL/MOL
REMARK 922        TOTAL FREE ENERGY PREDICTED BY IDOCK:   -7.97 KCAL/MOL
REMARK 923 INTER-LIGAND FREE ENERGY PREDICTED BY IDOCK:   -7.10 KCAL/MOL
REMARK 924 INTRA-LIGAND FREE ENERGY PREDICTED BY IDOCK:   -0.87 KCAL/MOL
REMARK 927      BINDING AFFINITY PREDICTED BY RF-SCORE:    0.00 PKD
ROOT
HETATM    1  C   UNL     1     -12.410  12.125  63.350  1.00  0.00    -0.538 C  
HETATM    2  S   UNL     1     -10.754  12.012  63.976  1.00  0.00    -0.421 S  
HETATM    3  O   UNL     1     -11.047  11.183  65.360  1.00  0.00    -0.145 OA 
HETATM    4  O   UNL     1      -9.986  11.162  63.092  1.00  0.00    -0.331 OA 
HETATM    5  O   UNL     1     -10.308  13.342  64.339  1.00  0.00    -0.425 OA 
ENDROOT
BRANCH   3   6
HETATM    6  C   UNL     1      -9.873  10.896  66.127  1.00  0.00    -0.222 C  
BRANCH   6   7
HETATM    7  C   UNL     1     -10.093  11.128  67.624  1.00  0.00    -0.179 C  
HETATM    8  O   UNL     1      -8.909  11.717  68.198  1.00  0.00    -0.151 OA 
HETATM    9  H   UNL     1      -9.045  11.861  69.128  1.00  0.00     0.000 HD 
BRANCH   7  10
HETATM   10  C   UNL     1     -11.253  12.110  67.896  1.00  0.00    -0.272 C  
HETATM   11  H   UNL     1     -12.911  12.090  68.965  1.00  0.00     0.000 HD 
HETATM   12  O   UNL     1     -12.197  11.485  68.798  1.00  0.00    -0.457 OA 
BRANCH  10  13
HETATM   13  C   UNL     1     -10.868  13.461  68.528  1.00  0.00    -0.265 C  
HETATM   14  O   UNL     1     -11.467  13.491  69.841  1.00  0.00    -0.436 OA 
HETATM   15  H   UNL     1     -11.230  14.324  70.230  1.00  0.00     0.000 HD 
BRANCH  13  16
HETATM   16  C   UNL     1     -11.296  14.712  67.740  1.00  0.00    -0.322 C  
HETATM   17  H   UNL     1     -12.435  15.073  66.186  1.00  0.00     0.000 HD 
HETATM   18  O   UNL     1     -12.170  14.301  66.672  1.00  0.00    -0.449 OA 
BRANCH  16  19
HETATM   19  C   UNL     1     -10.113  15.501  67.170  1.00  0.00    -0.254 C  
BRANCH  19  20
HETATM   20  O   UNL     1     -10.439  16.896  67.229  1.00  0.00    -0.313 OA 
HETATM   21  S   UNL     1     -10.111  17.777  65.901  1.00  0.00    -0.088 S  
HETATM   22  C   UNL     1     -10.703  19.339  66.508  1.00  0.00    -0.393 C  
HETATM   23  O   UNL     1     -10.977  17.330  64.829  1.00  0.00    -0.950 OA 
HETATM   24  O   UNL     1      -8.673  17.853  65.750  1.00  0.00    -0.493 OA 
ENDBRANCH  19  20
ENDBRANCH  16  19
ENDBRANCH  13  16
ENDBRANCH  10  13
ENDBRANCH   7  10
ENDBRANCH   6   7
ENDBRANCH   3   6
TORSDOF 7
ENDMDL
MODEL       70
REMARK 921   NORMALIZED FREE ENERGY PREDICTED BY IDOCK:   -4.77 KCAL/MOL
REMARK 922        TOTAL FREE ENERGY PREDICTED BY IDOCK:   -7.96 KCAL/MOL
REMARK 923 INTER-LIGAND FREE ENERGY PREDICTED BY IDOCK:   -7.14 KCAL/MOL
REMARK 924 INTRA-LIGAND FREE ENERGY PREDICTED BY IDOCK:   -0.82 KCAL/MOL
REMARK 927      BINDING AFFINITY PREDICTED BY RF-SCORE:    0.00 PKD
ROOT
HETATM    1  C   UNL     1     -14.234  14.505  71.679  1.00  0.00    -0.471 C  
HETATM    2  S   UNL     1     -12.624  14.038  71.097  1.00  0.00    -0.386 S  
HETATM    3  O   UNL     1     -12.751  14.525  69.537  1.00  0.00    -0.114 OA 
HETATM    4  O   UNL     1     -11.639  14.871  71.753  1.00  0.00    -0.368 OA 
HETATM    5  O   UNL     1     -12.533  12.592  71.107  1.00  0.00    -0.345 OA 
ENDROOT
BRANCH   3   6
HETATM    6  C   UNL     1     -11.570  14.303  68.759  1.00  0.00    -0.322 C  
BRANCH   6   7
HETATM    7  C   UNL     1     -11.853  13.469  67.506  1.00  0.00    -0.368 C  
HETATM    8  O   UNL     1     -12.839  14.138  66.695  1.00  0.00    -0.454 OA 
HETATM    9  H   UNL     1     -13.014  13.620  65.918  1.00  0.00     0.000 HD 
BRANCH   7  10
HETATM   10  C   UNL     1     -10.596  13.298  66.626  1.00  0.00    -0.281 C  
HETATM   11  H   UNL     1      -9.817  11.858  65.526  1.00  0.00     0.000 HD 
HETATM   12  O   UNL     1     -10.590  11.963  66.068  1.00  0.00    -0.248 OA 
BRANCH  10  13
HETATM   13  C   UNL     1     -10.457  14.272  65.440  1.00  0.00    -0.365 C  
HETATM   14  O   UNL     1      -9.956  13.502  64.327  1.00  0.00    -0.732 OA 
HETATM   15  H   UNL     1      -9.870  14.102  63.597  1.00  0.00     0.000 HD 
BRANCH  13  16
HETATM   16  C   UNL     1      -9.541  15.485  65.679  1.00  0.00    -0.293 C  
HETATM   17  H   UNL     1      -8.069  15.918  66.897  1.00  0.00     0.000 HD 
HETATM   18  O   UNL     1      -8.634  15.169  66.751  1.00  0.00    -0.243 OA 
BRANCH  16  19
HETATM   19  C   UNL     1     -10.312  16.768  66.010  1.00  0.00    -0.335 C  
BRANCH  19  20
HETATM   20  O   UNL     1      -9.615  17.447  67.063  1.00  0.00    -0.258 OA 
HETATM   21  S   UNL     1      -8.836  18.815  66.655  1.00  0.00    -0.320 S  
HETATM   22  C   UNL     1      -8.201  19.210  68.267  1.00  0.00    -0.334 C  
HETATM   23  O   UNL     1      -9.820  19.810  66.281  1.00  0.00    -0.396 OA 
HETATM   24  O   UNL     1      -7.726  18.466  65.792  1.00  0.00    -0.509 OA 
ENDBRANCH  19  20
ENDBRANCH  16  19
ENDBRANCH  13  16
ENDBRANCH  10  13
ENDBRANCH   7  10
ENDBRANCH   6   7
ENDBRANCH   3   6
TORSDOF 7
ENDMDL
MODEL       71
REMARK 921   NORMALIZED FREE ENERGY PREDICTED BY IDOCK:   -4.75 KCAL/MOL
REMARK 922        TOTAL FREE ENERGY PREDICTED BY IDOCK:   -7.94 KCAL/MOL
REMARK 923 INTER-LIGAND FREE ENERGY PREDICTED BY IDOCK:   -7.22 KCAL/MOL
REMARK 924 INTRA-LIGAND FREE ENERGY PREDICTED BY IDOCK:   -0.73 KCAL/MOL
REMARK 927      BINDING AFFINITY PREDICTED BY RF-SCORE:    0.00 PKD
ROOT
HETATM    1  C   UNL     1     -10.608  19.214  67.285  1.00  0.00    -0.478 C  
HETATM    2  S   UNL     1     -10.001  17.617  66.806  1.00  0.00    -0.334 S  
HETATM    3  O   UNL     1     -10.796  16.690  67.899  1.00  0.00    -0.347 OA 
HETATM    4  O   UNL     1     -10.514  17.307  65.489  1.00  0.00    -0.609 OA 
HETATM    5  O   UNL     1      -8.586  17.553  67.112  1.00  0.00    -0.216 OA 
ENDROOT
BRANCH   3   6
HETATM    6  C   UNL     1     -10.536  15.288  67.773  1.00  0.00    -0.253 C  
BRANCH   6   7
HETATM    7  C   UNL     1     -11.704  14.437  68.279  1.00  0.00    -0.341 C  
HETATM    8  O   UNL     1     -12.616  14.178  67.193  1.00  0.00    -0.533 OA 
HETATM    9  H   UNL     1     -13.341  13.650  67.507  1.00  0.00     0.000 HD 
BRANCH   7  10
HETATM   10  C   UNL     1     -11.237  13.063  68.804  1.00  0.00    -0.282 C  
HETATM   11  H   UNL     1     -11.643  11.924  70.364  1.00  0.00     0.000 HD 
HETATM   12  O   UNL     1     -11.931  12.771  70.041  1.00  0.00    -0.332 OA 
BRANCH  10  13
HETATM   13  C   UNL     1     -11.476  11.860  67.872  1.00  0.00    -0.316 C  
HETATM   14  O   UNL     1     -12.508  11.058  68.483  1.00  0.00    -0.713 OA 
HETATM   15  H   UNL     1     -12.655  10.317  67.908  1.00  0.00     0.000 HD 
BRANCH  13  16
HETATM   16  C   UNL     1     -10.244  10.982  67.588  1.00  0.00    -0.182 C  
HETATM   17  H   UNL     1      -8.409  10.873  68.265  1.00  0.00     0.000 HD 
HETATM   18  O   UNL     1      -9.168  11.415  68.441  1.00  0.00    -0.173 OA 
BRANCH  16  19
HETATM   19  C   UNL     1      -9.797  11.025  66.122  1.00  0.00    -0.225 C  
BRANCH  19  20
HETATM   20  O   UNL     1     -10.942  11.336  65.317  1.00  0.00    -0.234 OA 
HETATM   21  S   UNL     1     -10.652  12.066  63.892  1.00  0.00    -0.446 S  
HETATM   22  C   UNL     1     -12.339  12.189  63.348  1.00  0.00    -0.538 C  
HETATM   23  O   UNL     1      -9.949  11.135  63.034  1.00  0.00    -0.326 OA 
HETATM   24  O   UNL     1     -10.152  13.399  64.158  1.00  0.00    -0.338 OA 
ENDBRANCH  19  20
ENDBRANCH  16  19
ENDBRANCH  13  16
ENDBRANCH  10  13
ENDBRANCH   7  10
ENDBRANCH   6   7
ENDBRANCH   3   6
TORSDOF 7
ENDMDL
MODEL       72
REMARK 921   NORMALIZED FREE ENERGY PREDICTED BY IDOCK:   -4.75 KCAL/MOL
REMARK 922        TOTAL FREE ENERGY PREDICTED BY IDOCK:   -7.94 KCAL/MOL
REMARK 923 INTER-LIGAND FREE ENERGY PREDICTED BY IDOCK:   -6.47 KCAL/MOL
REMARK 924 INTRA-LIGAND FREE ENERGY PREDICTED BY IDOCK:   -1.48 KCAL/MOL
REMARK 927      BINDING AFFINITY PREDICTED BY RF-SCORE:    0.00 PKD
ROOT
HETATM    1  C   UNL     1      -9.564   8.669  72.104  1.00  0.00    -0.307 C  
HETATM    2  S   UNL     1     -10.989   9.011  71.103  1.00  0.00    -0.332 S  
HETATM    3  O   UNL     1     -10.240   9.485  69.724  1.00  0.00    -0.199 OA 
HETATM    4  O   UNL     1     -11.676   7.765  70.841  1.00  0.00    -0.289 OA 
HETATM    5  O   UNL     1     -11.674  10.162  71.656  1.00  0.00    -0.307 OA 
ENDROOT
BRANCH   3   6
HETATM    6  C   UNL     1     -11.136   9.826  68.662  1.00  0.00    -0.093 C  
BRANCH   6   7
HETATM    7  C   UNL     1     -10.878  11.236  68.120  1.00  0.00    -0.217 C  
HETATM    8  O   UNL     1     -10.031  11.956  69.038  1.00  0.00    -0.407 OA 
HETATM    9  H   UNL     1      -9.871  12.830  68.701  1.00  0.00     0.000 HD 
BRANCH   7  10
HETATM   10  C   UNL     1     -10.142  11.210  66.763  1.00  0.00    -0.218 C  
HETATM   11  H   UNL     1      -9.711   9.845  65.406  1.00  0.00     0.000 HD 
HETATM   12  O   UNL     1     -10.164   9.860  66.241  1.00  0.00    -0.243 OA 
BRANCH  10  13
HETATM   13  C   UNL     1     -10.716  12.118  65.659  1.00  0.00    -0.275 C  
HETATM   14  O   UNL     1      -9.744  13.160  65.431  1.00  0.00    -0.478 OA 
HETATM   15  H   UNL     1     -10.098  13.720  64.751  1.00  0.00     0.000 HD 
BRANCH  13  16
HETATM   16  C   UNL     1     -12.086  12.751  65.963  1.00  0.00    -0.395 C  
HETATM   17  H   UNL     1     -13.815  12.867  65.048  1.00  0.00     0.000 HD 
HETATM   18  O   UNL     1     -12.970  12.476  64.861  1.00  0.00    -0.821 OA 
BRANCH  16  19
HETATM   19  C   UNL     1     -12.012  14.263  66.207  1.00  0.00    -0.412 C  
BRANCH  19  20
HETATM   20  O   UNL     1     -12.010  14.485  67.624  1.00  0.00    -0.374 OA 
HETATM   21  S   UNL     1     -10.780  15.365  68.221  1.00  0.00    -0.270 S  
HETATM   22  C   UNL     1     -11.278  15.331  69.927  1.00  0.00    -0.288 C  
HETATM   23  O   UNL     1     -10.901  16.720  67.724  1.00  0.00    -0.341 OA 
HETATM   24  O   UNL     1      -9.560  14.597  68.078  1.00  0.00    -0.204 OA 
ENDBRANCH  19  20
ENDBRANCH  16  19
ENDBRANCH  13  16
ENDBRANCH  10  13
ENDBRANCH   7  10
ENDBRANCH   6   7
ENDBRANCH   3   6
TORSDOF 7
ENDMDL
MODEL       73
REMARK 921   NORMALIZED FREE ENERGY PREDICTED BY IDOCK:   -4.75 KCAL/MOL
REMARK 922        TOTAL FREE ENERGY PREDICTED BY IDOCK:   -7.93 KCAL/MOL
REMARK 923 INTER-LIGAND FREE ENERGY PREDICTED BY IDOCK:   -6.83 KCAL/MOL
REMARK 924 INTRA-LIGAND FREE ENERGY PREDICTED BY IDOCK:   -1.10 KCAL/MOL
REMARK 927      BINDING AFFINITY PREDICTED BY RF-SCORE:    0.00 PKD
ROOT
HETATM    1  C   UNL     1      -5.348  20.182  66.959  1.00  0.00    -0.163 C  
HETATM    2  S   UNL     1      -6.795  19.176  66.747  1.00  0.00    -0.197 S  
HETATM    3  O   UNL     1      -7.935  20.234  67.262  1.00  0.00    -0.315 OA 
HETATM    4  O   UNL     1      -6.992  18.948  65.332  1.00  0.00    -0.464 OA 
HETATM    5  O   UNL     1      -6.738  18.084  67.699  1.00  0.00    -0.182 OA 
ENDROOT
BRANCH   3   6
HETATM    6  C   UNL     1      -9.272  19.727  67.200  1.00  0.00    -0.342 C  
BRANCH   6   7
HETATM    7  C   UNL     1      -9.670  18.995  68.485  1.00  0.00    -0.400 C  
HETATM    8  O   UNL     1     -10.488  19.860  69.298  1.00  0.00    -0.617 OA 
HETATM    9  H   UNL     1     -10.735  19.405  70.095  1.00  0.00     0.000 HD 
BRANCH   7  10
HETATM   10  C   UNL     1     -10.510  17.732  68.196  1.00  0.00    -0.377 C  
HETATM   11  H   UNL     1     -10.603  16.384  66.758  1.00  0.00     0.000 HD 
HETATM   12  O   UNL     1     -10.086  17.162  66.936  1.00  0.00    -0.279 OA 
BRANCH  10  13
HETATM   13  C   UNL     1     -10.424  16.602  69.241  1.00  0.00    -0.333 C  
HETATM   14  O   UNL     1      -9.446  15.660  68.754  1.00  0.00    -0.193 OA 
HETATM   15  H   UNL     1      -9.393  14.964  69.397  1.00  0.00     0.000 HD 
BRANCH  13  16
HETATM   16  C   UNL     1     -11.743  15.867  69.538  1.00  0.00    -0.326 C  
HETATM   17  H   UNL     1     -12.724  15.337  71.149  1.00  0.00     0.000 HD 
HETATM   18  O   UNL     1     -11.910  15.790  70.966  1.00  0.00    -0.350 OA 
BRANCH  16  19
HETATM   19  C   UNL     1     -11.801  14.462  68.930  1.00  0.00    -0.320 C  
BRANCH  19  20
HETATM   20  O   UNL     1     -12.106  14.593  67.535  1.00  0.00    -0.340 OA 
HETATM   21  S   UNL     1     -11.403  13.523  66.533  1.00  0.00    -0.331 S  
HETATM   22  C   UNL     1     -12.113  14.122  65.018  1.00  0.00    -0.421 C  
HETATM   23  O   UNL     1     -11.940  12.207  66.815  1.00  0.00    -0.606 OA 
HETATM   24  O   UNL     1      -9.978  13.786  66.513  1.00  0.00    -0.272 OA 
ENDBRANCH  19  20
ENDBRANCH  16  19
ENDBRANCH  13  16
ENDBRANCH  10  13
ENDBRANCH   7  10
ENDBRANCH   6   7
ENDBRANCH   3   6
TORSDOF 7
ENDMDL
MODEL       74
REMARK 921   NORMALIZED FREE ENERGY PREDICTED BY IDOCK:   -4.74 KCAL/MOL
REMARK 922        TOTAL FREE ENERGY PREDICTED BY IDOCK:   -7.92 KCAL/MOL
REMARK 923 INTER-LIGAND FREE ENERGY PREDICTED BY IDOCK:   -7.00 KCAL/MOL
REMARK 924 INTRA-LIGAND FREE ENERGY PREDICTED BY IDOCK:   -0.92 KCAL/MOL
REMARK 927      BINDING AFFINITY PREDICTED BY RF-SCORE:    0.00 PKD
ROOT
HETATM    1  C   UNL     1     -12.256   7.348  71.659  1.00  0.00    -0.330 C  
HETATM    2  S   UNL     1     -11.410   8.877  71.350  1.00  0.00    -0.339 S  
HETATM    3  O   UNL     1     -11.054   8.671  69.763  1.00  0.00    -0.190 OA 
HETATM    4  O   UNL     1     -12.363   9.960  71.464  1.00  0.00    -0.359 OA 
HETATM    5  O   UNL     1     -10.164   8.871  72.091  1.00  0.00    -0.321 OA 
ENDROOT
BRANCH   3   6
HETATM    6  C   UNL     1     -10.361   9.775  69.173  1.00  0.00    -0.211 C  
BRANCH   6   7
HETATM    7  C   UNL     1     -11.173  10.432  68.053  1.00  0.00    -0.272 C  
HETATM    8  O   UNL     1     -12.428  10.904  68.583  1.00  0.00    -0.772 OA 
HETATM    9  H   UNL     1     -12.932  11.312  67.888  1.00  0.00     0.000 HD 
BRANCH   7  10
HETATM   10  C   UNL     1     -10.452  11.661  67.458  1.00  0.00    -0.200 C  
HETATM   11  H   UNL     1      -8.579  12.197  67.147  1.00  0.00     0.000 HD 
HETATM   12  O   UNL     1      -9.023  11.441  67.513  1.00  0.00    -0.146 OA 
BRANCH  10  13
HETATM   13  C   UNL     1     -10.788  12.005  65.994  1.00  0.00    -0.289 C  
HETATM   14  O   UNL     1      -9.575  12.509  65.397  1.00  0.00    -0.439 OA 
HETATM   15  H   UNL     1      -9.782  12.721  64.495  1.00  0.00     0.000 HD 
BRANCH  13  16
HETATM   16  C   UNL     1     -11.922  13.026  65.793  1.00  0.00    -0.429 C  
HETATM   17  H   UNL     1     -12.616  14.079  64.293  1.00  0.00     0.000 HD 
HETATM   18  O   UNL     1     -11.916  13.450  64.417  1.00  0.00    -0.376 OA 
BRANCH  16  19
HETATM   19  C   UNL     1     -11.807  14.245  66.714  1.00  0.00    -0.426 C  
BRANCH  19  20
HETATM   20  O   UNL     1     -10.474  14.763  66.604  1.00  0.00    -0.277 OA 
HETATM   21  S   UNL     1     -10.335  16.346  66.257  1.00  0.00    -0.319 S  
HETATM   22  C   UNL     1      -8.560  16.428  66.257  1.00  0.00    -0.340 C  
HETATM   23  O   UNL     1     -10.841  17.109  67.379  1.00  0.00    -0.284 OA 
HETATM   24  O   UNL     1     -10.809  16.558  64.904  1.00  0.00    -0.684 OA 
ENDBRANCH  19  20
ENDBRANCH  16  19
ENDBRANCH  13  16
ENDBRANCH  10  13
ENDBRANCH   7  10
ENDBRANCH   6   7
ENDBRANCH   3   6
TORSDOF 7
ENDMDL
MODEL       75
REMARK 921   NORMALIZED FREE ENERGY PREDICTED BY IDOCK:   -4.73 KCAL/MOL
REMARK 922        TOTAL FREE ENERGY PREDICTED BY IDOCK:   -7.92 KCAL/MOL
REMARK 923 INTER-LIGAND FREE ENERGY PREDICTED BY IDOCK:   -6.99 KCAL/MOL
REMARK 924 INTRA-LIGAND FREE ENERGY PREDICTED BY IDOCK:   -0.92 KCAL/MOL
REMARK 927      BINDING AFFINITY PREDICTED BY RF-SCORE:    0.00 PKD
ROOT
HETATM    1  C   UNL     1     -10.464  16.927  67.032  1.00  0.00    -0.281 C  
HETATM    2  S   UNL     1     -10.636  16.176  65.433  1.00  0.00    -0.324 S  
HETATM    3  O   UNL     1     -11.810  15.085  65.775  1.00  0.00    -0.198 OA 
HETATM    4  O   UNL     1     -11.181  17.159  64.521  1.00  0.00    -1.104 OA 
HETATM    5  O   UNL     1      -9.421  15.445  65.136  1.00  0.00    -0.093 OA 
ENDROOT
BRANCH   3   6
HETATM    6  C   UNL     1     -12.216  14.294  64.653  1.00  0.00    -0.454 C  
BRANCH   6   7
HETATM    7  C   UNL     1     -12.390  12.818  65.021  1.00  0.00    -0.499 C  
HETATM    8  O   UNL     1     -13.291  12.192  64.086  1.00  0.00    -0.750 OA 
HETATM    9  H   UNL     1     -13.398  11.276  64.315  1.00  0.00     0.000 HD 
BRANCH   7  10
HETATM   10  C   UNL     1     -11.059  12.039  64.945  1.00  0.00    -0.316 C  
HETATM   11  H   UNL     1      -9.453  12.080  63.801  1.00  0.00     0.000 HD 
HETATM   12  O   UNL     1     -10.272  12.559  63.847  1.00  0.00    -0.408 OA 
BRANCH  10  13
HETATM   13  C   UNL     1     -10.162  12.100  66.197  1.00  0.00    -0.227 C  
HETATM   14  O   UNL     1      -8.851  12.502  65.749  1.00  0.00    -0.363 OA 
HETATM   15  H   UNL     1      -8.298  12.539  66.520  1.00  0.00     0.000 HD 
BRANCH  13  16
HETATM   16  C   UNL     1     -10.052  10.793  67.001  1.00  0.00    -0.208 C  
HETATM   17  H   UNL     1     -10.335   8.888  66.636  1.00  0.00     0.000 HD 
HETATM   18  O   UNL     1     -10.404   9.695  66.139  1.00  0.00    -0.230 OA 
BRANCH  16  19
HETATM   19  C   UNL     1     -10.938  10.778  68.252  1.00  0.00    -0.255 C  
BRANCH  19  20
HETATM   20  O   UNL     1     -10.873   9.466  68.827  1.00  0.00    -0.199 OA 
HETATM   21  S   UNL     1     -10.370   9.372  70.371  1.00  0.00    -0.284 S  
HETATM   22  C   UNL     1     -10.496   7.609  70.549  1.00  0.00    -0.220 C  
HETATM   23  O   UNL     1     -11.364  10.002  71.217  1.00  0.00    -0.357 OA 
HETATM   24  O   UNL     1      -8.971   9.745  70.417  1.00  0.00    -0.223 OA 
ENDBRANCH  19  20
ENDBRANCH  16  19
ENDBRANCH  13  16
ENDBRANCH  10  13
ENDBRANCH   7  10
ENDBRANCH   6   7
ENDBRANCH   3   6
TORSDOF 7
ENDMDL
MODEL       76
REMARK 921   NORMALIZED FREE ENERGY PREDICTED BY IDOCK:   -4.72 KCAL/MOL
REMARK 922        TOTAL FREE ENERGY PREDICTED BY IDOCK:   -7.90 KCAL/MOL
REMARK 923 INTER-LIGAND FREE ENERGY PREDICTED BY IDOCK:   -6.71 KCAL/MOL
REMARK 924 INTRA-LIGAND FREE ENERGY PREDICTED BY IDOCK:   -1.19 KCAL/MOL
REMARK 927      BINDING AFFINITY PREDICTED BY RF-SCORE:    0.00 PKD
ROOT
HETATM    1  C   UNL     1     -10.385  18.173  66.655  1.00  0.00    -0.376 C  
HETATM    2  S   UNL     1      -9.977  16.569  66.015  1.00  0.00    -0.324 S  
HETATM    3  O   UNL     1     -10.407  15.649  67.301  1.00  0.00    -0.265 OA 
HETATM    4  O   UNL     1     -10.877  16.269  64.921  1.00  0.00    -0.625 OA 
HETATM    5  O   UNL     1      -8.538  16.485  65.868  1.00  0.00    -0.441 OA 
ENDROOT
BRANCH   3   6
HETATM    6  C   UNL     1     -10.218  14.245  67.103  1.00  0.00    -0.254 C  
BRANCH   6   7
HETATM    7  C   UNL     1     -11.531  13.464  67.220  1.00  0.00    -0.340 C  
HETATM    8  O   UNL     1     -12.599  14.227  66.623  1.00  0.00    -0.555 OA 
HETATM    9  H   UNL     1     -13.413  13.742  66.696  1.00  0.00     0.000 HD 
BRANCH   7  10
HETATM   10  C   UNL     1     -11.474  12.117  66.469  1.00  0.00    -0.369 C  
HETATM   11  H   UNL     1     -10.303  11.295  65.110  1.00  0.00     0.000 HD 
HETATM   12  O   UNL     1     -10.338  12.125  65.572  1.00  0.00    -0.248 OA 
BRANCH  10  13
HETATM   13  C   UNL     1     -11.336  10.855  67.342  1.00  0.00    -0.195 C  
HETATM   14  O   UNL     1     -12.314  10.971  68.396  1.00  0.00    -0.762 OA 
HETATM   15  H   UNL     1     -12.229  10.193  68.935  1.00  0.00     0.000 HD 
BRANCH  13  16
HETATM   16  C   UNL     1      -9.945  10.618  67.955  1.00  0.00    -0.160 C  
HETATM   17  H   UNL     1      -8.456   9.385  67.632  1.00  0.00     0.000 HD 
HETATM   18  O   UNL     1      -9.315   9.531  67.253  1.00  0.00    -0.132 OA 
BRANCH  16  19
HETATM   19  C   UNL     1      -9.991  10.312  69.457  1.00  0.00    -0.228 C  
BRANCH  19  20
HETATM   20  O   UNL     1     -10.472   8.972  69.623  1.00  0.00    -0.212 OA 
HETATM   21  S   UNL     1     -11.325   8.668  70.974  1.00  0.00    -0.282 S  
HETATM   22  C   UNL     1     -11.658   6.951  70.656  1.00  0.00    -0.353 C  
HETATM   23  O   UNL     1     -12.568   9.408  70.910  1.00  0.00    -0.249 OA 
HETATM   24  O   UNL     1     -10.429   8.763  72.108  1.00  0.00    -0.337 OA 
ENDBRANCH  19  20
ENDBRANCH  16  19
ENDBRANCH  13  16
ENDBRANCH  10  13
ENDBRANCH   7  10
ENDBRANCH   6   7
ENDBRANCH   3   6
TORSDOF 7
ENDMDL
MODEL       77
REMARK 921   NORMALIZED FREE ENERGY PREDICTED BY IDOCK:   -4.72 KCAL/MOL
REMARK 922        TOTAL FREE ENERGY PREDICTED BY IDOCK:   -7.90 KCAL/MOL
REMARK 923 INTER-LIGAND FREE ENERGY PREDICTED BY IDOCK:   -6.68 KCAL/MOL
REMARK 924 INTRA-LIGAND FREE ENERGY PREDICTED BY IDOCK:   -1.22 KCAL/MOL
REMARK 927      BINDING AFFINITY PREDICTED BY RF-SCORE:    0.00 PKD
ROOT
HETATM    1  C   UNL     1     -11.342  12.072  65.803  1.00  0.00    -0.331 C  
HETATM    2  S   UNL     1     -11.283  12.560  67.508  1.00  0.00    -0.311 S  
HETATM    3  O   UNL     1     -12.206  11.372  68.159  1.00  0.00    -0.602 OA 
HETATM    4  O   UNL     1      -9.927  12.395  67.986  1.00  0.00    -0.195 OA 
HETATM    5  O   UNL     1     -12.000  13.811  67.653  1.00  0.00    -0.358 OA 
ENDROOT
BRANCH   3   6
HETATM    6  C   UNL     1     -12.351  11.459  69.580  1.00  0.00    -0.170 C  
BRANCH   6   7
HETATM    7  C   UNL     1     -11.788  10.226  70.294  1.00  0.00    -0.288 C  
HETATM    8  O   UNL     1     -10.357  10.347  70.408  1.00  0.00    -0.420 OA 
HETATM    9  H   UNL     1     -10.008   9.582  70.850  1.00  0.00     0.000 HD 
BRANCH   7  10
HETATM   10  C   UNL     1     -12.338  10.084  71.730  1.00  0.00    -0.345 C  
HETATM   11  H   UNL     1     -13.738  10.962  72.808  1.00  0.00     0.000 HD 
HETATM   12  O   UNL     1     -13.400  11.049  71.924  1.00  0.00    -0.422 OA 
BRANCH  10  13
HETATM   13  C   UNL     1     -12.920   8.708  72.104  1.00  0.00    -0.387 C  
HETATM   14  O   UNL     1     -13.882   8.936  73.155  1.00  0.00    -1.084 OA 
HETATM   15  H   UNL     1     -14.241   8.088  73.386  1.00  0.00     0.000 HD 
BRANCH  13  16
HETATM   16  C   UNL     1     -11.897   7.654  72.563  1.00  0.00    -0.263 C  
HETATM   17  H   UNL     1      -9.996   7.655  73.041  1.00  0.00     0.000 HD 
HETATM   18  O   UNL     1     -10.627   8.305  72.757  1.00  0.00    -0.340 OA 
BRANCH  16  19
HETATM   19  C   UNL     1     -11.742   6.493  71.576  1.00  0.00    -0.324 C  
BRANCH  19  20
HETATM   20  O   UNL     1     -10.356   6.127  71.533  1.00  0.00    -0.200 OA 
HETATM   21  S   UNL     1      -9.644   6.140  70.071  1.00  0.00    -0.162 S  
HETATM   22  C   UNL     1      -8.021   5.646  70.599  1.00  0.00    -0.104 C  
HETATM   23  O   UNL     1      -9.589   7.509  69.600  1.00  0.00    -0.160 OA 
HETATM   24  O   UNL     1     -10.218   5.074  69.276  1.00  0.00    -0.216 OA 
ENDBRANCH  19  20
ENDBRANCH  16  19
ENDBRANCH  13  16
ENDBRANCH  10  13
ENDBRANCH   7  10
ENDBRANCH   6   7
ENDBRANCH   3   6
TORSDOF 7
ENDMDL
MODEL       78
REMARK 921   NORMALIZED FREE ENERGY PREDICTED BY IDOCK:   -4.70 KCAL/MOL
REMARK 922        TOTAL FREE ENERGY PREDICTED BY IDOCK:   -7.86 KCAL/MOL
REMARK 923 INTER-LIGAND FREE ENERGY PREDICTED BY IDOCK:   -6.64 KCAL/MOL
REMARK 924 INTRA-LIGAND FREE ENERGY PREDICTED BY IDOCK:   -1.23 KCAL/MOL
REMARK 927      BINDING AFFINITY PREDICTED BY RF-SCORE:    0.00 PKD
ROOT
HETATM    1  C   UNL     1     -12.242  14.755  64.128  1.00  0.00    -0.295 C  
HETATM    2  S   UNL     1     -12.038  13.116  64.776  1.00  0.00    -0.435 S  
HETATM    3  O   UNL     1     -11.990  13.464  66.377  1.00  0.00    -0.373 OA 
HETATM    4  O   UNL     1     -13.246  12.364  64.511  1.00  0.00    -0.834 OA 
HETATM    5  O   UNL     1     -10.731  12.627  64.387  1.00  0.00    -0.314 OA 
ENDROOT
BRANCH   3   6
HETATM    6  C   UNL     1     -11.848  12.316  67.220  1.00  0.00    -0.260 C  
BRANCH   6   7
HETATM    7  C   UNL     1     -11.516  12.700  68.665  1.00  0.00    -0.308 C  
HETATM    8  O   UNL     1     -10.194  12.230  68.996  1.00  0.00    -0.415 OA 
HETATM    9  H   UNL     1      -9.989  12.469  69.893  1.00  0.00     0.000 HD 
BRANCH   7  10
HETATM   10  C   UNL     1     -11.508  14.230  68.872  1.00  0.00    -0.286 C  
HETATM   11  H   UNL     1     -12.304  15.493  70.162  1.00  0.00     0.000 HD 
HETATM   12  O   UNL     1     -12.308  14.551  70.035  1.00  0.00    -0.321 OA 
BRANCH  10  13
HETATM   13  C   UNL     1     -10.130  14.881  69.093  1.00  0.00    -0.226 C  
HETATM   14  O   UNL     1     -10.338  16.007  69.971  1.00  0.00    -0.281 OA 
HETATM   15  H   UNL     1      -9.488  16.408  70.107  1.00  0.00     0.000 HD 
BRANCH  13  16
HETATM   16  C   UNL     1      -9.402  15.349  67.821  1.00  0.00    -0.195 C  
HETATM   17  H   UNL     1      -8.341  14.493  66.412  1.00  0.00     0.000 HD 
HETATM   18  O   UNL     1      -8.789  14.204  67.198  1.00  0.00    -0.208 OA 
BRANCH  16  19
HETATM   19  C   UNL     1      -8.343  16.424  68.091  1.00  0.00    -0.186 C  
BRANCH  19  20
HETATM   20  O   UNL     1      -8.707  17.601  67.357  1.00  0.00    -0.229 OA 
HETATM   21  S   UNL     1      -8.957  18.952  68.226  1.00  0.00    -0.339 S  
HETATM   22  C   UNL     1      -9.342  20.033  66.869  1.00  0.00    -0.393 C  
HETATM   23  O   UNL     1      -7.697  19.363  68.811  1.00  0.00    -0.347 OA 
HETATM   24  O   UNL     1     -10.152  18.765  69.023  1.00  0.00    -0.393 OA 
ENDBRANCH  19  20
ENDBRANCH  16  19
ENDBRANCH  13  16
ENDBRANCH  10  13
ENDBRANCH   7  10
ENDBRANCH   6   7
ENDBRANCH   3   6
TORSDOF 7
ENDMDL
MODEL       79
REMARK 921   NORMALIZED FREE ENERGY PREDICTED BY IDOCK:   -4.69 KCAL/MOL
REMARK 922        TOTAL FREE ENERGY PREDICTED BY IDOCK:   -7.85 KCAL/MOL
REMARK 923 INTER-LIGAND FREE ENERGY PREDICTED BY IDOCK:   -7.03 KCAL/MOL
REMARK 924 INTRA-LIGAND FREE ENERGY PREDICTED BY IDOCK:   -0.83 KCAL/MOL
REMARK 927      BINDING AFFINITY PREDICTED BY RF-SCORE:    0.00 PKD
ROOT
HETATM    1  C   UNL     1     -12.640   6.984  71.274  1.00  0.00    -0.373 C  
HETATM    2  S   UNL     1     -12.017   8.574  71.756  1.00  0.00    -0.359 S  
HETATM    3  O   UNL     1     -11.519   9.122  70.294  1.00  0.00    -0.240 OA 
HETATM    4  O   UNL     1     -13.131   9.391  72.191  1.00  0.00    -0.396 OA 
HETATM    5  O   UNL     1     -10.843   8.377  72.582  1.00  0.00    -0.342 OA 
ENDROOT
BRANCH   3   6
HETATM    6  C   UNL     1     -10.961  10.439  70.324  1.00  0.00    -0.284 C  
BRANCH   6   7
HETATM    7  C   UNL     1     -11.325  11.247  69.075  1.00  0.00    -0.278 C  
HETATM    8  O   UNL     1     -12.136  10.440  68.199  1.00  0.00    -0.688 OA 
HETATM    9  H   UNL     1     -12.362  10.942  67.424  1.00  0.00     0.000 HD 
BRANCH   7  10
HETATM   10  C   UNL     1     -12.156  12.503  69.417  1.00  0.00    -0.180 C  
HETATM   11  H   UNL     1     -12.973  13.266  71.043  1.00  0.00     0.000 HD 
HETATM   12  O   UNL     1     -12.461  12.494  70.832  1.00  0.00    -0.365 OA 
BRANCH  10  13
HETATM   13  C   UNL     1     -11.493  13.861  69.119  1.00  0.00    -0.299 C  
HETATM   14  O   UNL     1     -12.561  14.816  68.945  1.00  0.00    -0.546 OA 
HETATM   15  H   UNL     1     -12.152  15.653  68.761  1.00  0.00     0.000 HD 
BRANCH  13  16
HETATM   16  C   UNL     1     -10.568  13.895  67.890  1.00  0.00    -0.245 C  
HETATM   17  H   UNL     1      -8.650  14.151  67.580  1.00  0.00     0.000 HD 
HETATM   18  O   UNL     1      -9.221  14.131  68.339  1.00  0.00    -0.197 OA 
BRANCH  16  19
HETATM   19  C   UNL     1     -10.968  14.960  66.862  1.00  0.00    -0.327 C  
BRANCH  19  20
HETATM   20  O   UNL     1     -10.468  16.225  67.314  1.00  0.00    -0.294 OA 
HETATM   21  S   UNL     1      -9.721  17.150  66.205  1.00  0.00    -0.257 S  
HETATM   22  C   UNL     1      -9.345  18.526  67.266  1.00  0.00    -0.280 C  
HETATM   23  O   UNL     1     -10.698  17.569  65.222  1.00  0.00    -0.656 OA 
HETATM   24  O   UNL     1      -8.481  16.501  65.832  1.00  0.00    -0.420 OA 
ENDBRANCH  19  20
ENDBRANCH  16  19
ENDBRANCH  13  16
ENDBRANCH  10  13
ENDBRANCH   7  10
ENDBRANCH   6   7
ENDBRANCH   3   6
TORSDOF 7
ENDMDL
MODEL       80
REMARK 921   NORMALIZED FREE ENERGY PREDICTED BY IDOCK:   -4.69 KCAL/MOL
REMARK 922        TOTAL FREE ENERGY PREDICTED BY IDOCK:   -7.85 KCAL/MOL
REMARK 923 INTER-LIGAND FREE ENERGY PREDICTED BY IDOCK:   -7.01 KCAL/MOL
REMARK 924 INTRA-LIGAND FREE ENERGY PREDICTED BY IDOCK:   -0.84 KCAL/MOL
REMARK 927      BINDING AFFINITY PREDICTED BY RF-SCORE:    0.00 PKD
ROOT
HETATM    1  C   UNL     1     -10.365   9.741  69.830  1.00  0.00    -0.246 C  
HETATM    2  S   UNL     1      -9.893   9.852  68.123  1.00  0.00    -0.151 S  
HETATM    3  O   UNL     1     -10.192  11.443  67.865  1.00  0.00    -0.176 OA 
HETATM    4  O   UNL     1      -8.465   9.638  68.027  1.00  0.00    -0.117 OA 
HETATM    5  O   UNL     1     -10.838   9.088  67.334  1.00  0.00    -0.230 OA 
ENDROOT
BRANCH   3   6
HETATM    6  C   UNL     1      -9.887  11.887  66.539  1.00  0.00    -0.206 C  
BRANCH   6   7
HETATM    7  C   UNL     1     -11.136  11.961  65.655  1.00  0.00    -0.310 C  
HETATM    8  O   UNL     1     -12.264  12.380  66.449  1.00  0.00    -0.604 OA 
HETATM    9  H   UNL     1     -13.038  12.426  65.900  1.00  0.00     0.000 HD 
BRANCH   7  10
HETATM   10  C   UNL     1     -10.983  12.995  64.519  1.00  0.00    -0.358 C  
HETATM   11  H   UNL     1     -10.688  12.932  62.570  1.00  0.00     0.000 HD 
HETATM   12  O   UNL     1     -10.782  12.295  63.269  1.00  0.00    -0.427 OA 
BRANCH  10  13
HETATM   13  C   UNL     1     -12.172  13.950  64.303  1.00  0.00    -0.408 C  
HETATM   14  O   UNL     1     -12.439  13.967  62.885  1.00  0.00    -1.034 OA 
HETATM   15  H   UNL     1     -13.171  14.556  62.751  1.00  0.00     0.000 HD 
BRANCH  13  16
HETATM   16  C   UNL     1     -11.970  15.391  64.804  1.00  0.00    -0.106 C  
HETATM   17  H   UNL     1     -11.702  17.145  63.973  1.00  0.00     0.000 HD 
HETATM   18  O   UNL     1     -11.826  16.256  63.663  1.00  0.00    -0.831 OA 
BRANCH  16  19
HETATM   19  C   UNL     1     -10.757  15.544  65.729  1.00  0.00    -0.353 C  
BRANCH  19  20
HETATM   20  O   UNL     1     -11.169  15.212  67.062  1.00  0.00    -0.335 OA 
HETATM   21  S   UNL     1     -10.411  15.991  68.272  1.00  0.00    -0.281 S  
HETATM   22  C   UNL     1     -11.290  15.235  69.620  1.00  0.00    -0.290 C  
HETATM   23  O   UNL     1     -10.766  17.394  68.209  1.00  0.00    -0.371 OA 
HETATM   24  O   UNL     1      -9.034  15.544  68.309  1.00  0.00    -0.179 OA 
ENDBRANCH  19  20
ENDBRANCH  16  19
ENDBRANCH  13  16
ENDBRANCH  10  13
ENDBRANCH   7  10
ENDBRANCH   6   7
ENDBRANCH   3   6
TORSDOF 7
ENDMDL
MODEL       81
REMARK 921   NORMALIZED FREE ENERGY PREDICTED BY IDOCK:   -4.66 KCAL/MOL
REMARK 922        TOTAL FREE ENERGY PREDICTED BY IDOCK:   -7.82 KCAL/MOL
REMARK 923 INTER-LIGAND FREE ENERGY PREDICTED BY IDOCK:   -6.97 KCAL/MOL
REMARK 924 INTRA-LIGAND FREE ENERGY PREDICTED BY IDOCK:   -0.85 KCAL/MOL
REMARK 927      BINDING AFFINITY PREDICTED BY RF-SCORE:    0.00 PKD
ROOT
HETATM    1  C   UNL     1     -10.572  10.185  70.309  1.00  0.00    -0.264 C  
HETATM    2  S   UNL     1     -11.878  11.135  69.575  1.00  0.00    -0.376 S  
HETATM    3  O   UNL     1     -11.204  12.627  69.657  1.00  0.00    -0.145 OA 
HETATM    4  O   UNL     1     -11.988  10.763  68.180  1.00  0.00    -0.527 OA 
HETATM    5  O   UNL     1     -13.020  11.112  70.466  1.00  0.00    -0.179 OA 
ENDROOT
BRANCH   3   6
HETATM    6  C   UNL     1     -12.021  13.667  69.109  1.00  0.00    -0.351 C  
BRANCH   6   7
HETATM    7  C   UNL     1     -11.463  15.060  69.415  1.00  0.00    -0.300 C  
HETATM    8  O   UNL     1     -10.275  14.935  70.222  1.00  0.00    -0.480 OA 
HETATM    9  H   UNL     1      -9.929  15.800  70.412  1.00  0.00     0.000 HD 
BRANCH   7  10
HETATM   10  C   UNL     1     -11.052  15.816  68.133  1.00  0.00    -0.341 C  
HETATM   11  H   UNL     1     -10.738  17.698  67.632  1.00  0.00     0.000 HD 
HETATM   12  O   UNL     1     -10.991  17.233  68.421  1.00  0.00    -0.312 OA 
BRANCH  10  13
HETATM   13  C   UNL     1      -9.690  15.432  67.523  1.00  0.00    -0.208 C  
HETATM   14  O   UNL     1      -8.710  16.315  68.107  1.00  0.00    -0.176 OA 
HETATM   15  H   UNL     1      -7.871  16.079  67.731  1.00  0.00     0.000 HD 
BRANCH  13  16
HETATM   16  C   UNL     1      -9.602  15.510  65.989  1.00  0.00    -0.345 C  
HETATM   17  H   UNL     1      -8.673  16.645  64.689  1.00  0.00     0.000 HD 
HETATM   18  O   UNL     1      -8.728  16.598  65.636  1.00  0.00    -0.428 OA 
BRANCH  16  19
HETATM   19  C   UNL     1     -10.966  15.698  65.314  1.00  0.00    -0.364 C  
BRANCH  19  20
HETATM   20  O   UNL     1     -11.149  14.630  64.375  1.00  0.00    -0.285 OA 
HETATM   21  S   UNL     1     -12.018  13.354  64.885  1.00  0.00    -0.403 S  
HETATM   22  C   UNL     1     -11.935  12.403  63.386  1.00  0.00    -0.504 C  
HETATM   23  O   UNL     1     -13.386  13.783  65.093  1.00  0.00    -0.688 OA 
HETATM   24  O   UNL     1     -11.260  12.668  65.912  1.00  0.00    -0.292 OA 
ENDBRANCH  19  20
ENDBRANCH  16  19
ENDBRANCH  13  16
ENDBRANCH  10  13
ENDBRANCH   7  10
ENDBRANCH   6   7
ENDBRANCH   3   6
TORSDOF 7
ENDMDL
MODEL       82
REMARK 921   NORMALIZED FREE ENERGY PREDICTED BY IDOCK:   -4.66 KCAL/MOL
REMARK 922        TOTAL FREE ENERGY PREDICTED BY IDOCK:   -7.82 KCAL/MOL
REMARK 923 INTER-LIGAND FREE ENERGY PREDICTED BY IDOCK:   -7.06 KCAL/MOL
REMARK 924 INTRA-LIGAND FREE ENERGY PREDICTED BY IDOCK:   -0.76 KCAL/MOL
REMARK 927      BINDING AFFINITY PREDICTED BY RF-SCORE:    0.00 PKD
ROOT
HETATM    1  C   UNL     1     -11.023  12.232  63.346  1.00  0.00    -0.405 C  
HETATM    2  S   UNL     1     -12.253  13.128  64.259  1.00  0.00    -0.388 S  
HETATM    3  O   UNL     1     -11.475  13.263  65.695  1.00  0.00    -0.308 OA 
HETATM    4  O   UNL     1     -12.377  14.451  63.685  1.00  0.00    -0.722 OA 
HETATM    5  O   UNL     1     -13.401  12.265  64.452  1.00  0.00    -0.786 OA 
ENDROOT
BRANCH   3   6
HETATM    6  C   UNL     1     -12.211  13.979  66.692  1.00  0.00    -0.428 C  
BRANCH   6   7
HETATM    7  C   UNL     1     -11.883  13.497  68.108  1.00  0.00    -0.365 C  
HETATM    8  O   UNL     1     -10.874  12.470  68.045  1.00  0.00    -0.211 OA 
HETATM    9  H   UNL     1     -10.671  12.171  68.924  1.00  0.00     0.000 HD 
BRANCH   7  10
HETATM   10  C   UNL     1     -11.312  14.628  68.990  1.00  0.00    -0.277 C  
HETATM   11  H   UNL     1     -11.091  16.582  68.827  1.00  0.00     0.000 HD 
HETATM   12  O   UNL     1     -11.442  15.886  68.285  1.00  0.00    -0.363 OA 
BRANCH  10  13
HETATM   13  C   UNL     1     -11.979  14.824  70.365  1.00  0.00    -0.309 C  
HETATM   14  O   UNL     1     -10.915  14.878  71.338  1.00  0.00    -0.567 OA 
HETATM   15  H   UNL     1     -11.327  14.999  72.186  1.00  0.00     0.000 HD 
BRANCH  13  16
HETATM   16  C   UNL     1     -12.994  13.742  70.772  1.00  0.00    -0.168 C  
HETATM   17  H   UNL     1     -14.787  13.722  71.564  1.00  0.00     0.000 HD 
HETATM   18  O   UNL     1     -14.160  14.390  71.313  1.00  0.00    -0.339 OA 
BRANCH  16  19
HETATM   19  C   UNL     1     -12.435  12.742  71.791  1.00  0.00     0.143 C  
BRANCH  19  20
HETATM   20  O   UNL     1     -13.244  11.559  71.744  1.00  0.00    -0.457 OA 
HETATM   21  S   UNL     1     -12.630  10.289  70.936  1.00  0.00    -0.383 S  
HETATM   22  C   UNL     1     -13.982   9.167  71.207  1.00  0.00    -0.101 C  
HETATM   23  O   UNL     1     -11.468   9.806  71.653  1.00  0.00    -0.364 OA 
HETATM   24  O   UNL     1     -12.582  10.626  69.528  1.00  0.00    -0.259 OA 
ENDBRANCH  19  20
ENDBRANCH  16  19
ENDBRANCH  13  16
ENDBRANCH  10  13
ENDBRANCH   7  10
ENDBRANCH   6   7
ENDBRANCH   3   6
TORSDOF 7
ENDMDL
MODEL       83
REMARK 921   NORMALIZED FREE ENERGY PREDICTED BY IDOCK:   -4.64 KCAL/MOL
REMARK 922        TOTAL FREE ENERGY PREDICTED BY IDOCK:   -7.79 KCAL/MOL
REMARK 923 INTER-LIGAND FREE ENERGY PREDICTED BY IDOCK:   -7.02 KCAL/MOL
REMARK 924 INTRA-LIGAND FREE ENERGY PREDICTED BY IDOCK:   -0.77 KCAL/MOL
REMARK 927      BINDING AFFINITY PREDICTED BY RF-SCORE:    0.00 PKD
ROOT
HETATM    1  C   UNL     1      -9.410   5.497  70.839  1.00  0.00    -0.156 C  
HETATM    2  S   UNL     1     -10.526   6.333  71.937  1.00  0.00    -0.214 S  
HETATM    3  O   UNL     1     -11.222   7.369  70.874  1.00  0.00    -0.258 OA 
HETATM    4  O   UNL     1     -11.532   5.389  72.374  1.00  0.00    -0.235 OA 
HETATM    5  O   UNL     1      -9.748   7.114  72.876  1.00  0.00    -0.150 OA 
ENDROOT
BRANCH   3   6
HETATM    6  C   UNL     1     -12.225   8.210  71.452  1.00  0.00    -0.297 C  
BRANCH   6   7
HETATM    7  C   UNL     1     -11.725   9.642  71.663  1.00  0.00    -0.369 C  
HETATM    8  O   UNL     1     -10.375   9.758  71.170  1.00  0.00    -0.285 OA 
HETATM    9  H   UNL     1     -10.065  10.646  71.301  1.00  0.00     0.000 HD 
BRANCH   7  10
HETATM   10  C   UNL     1     -12.571  10.674  70.886  1.00  0.00    -0.407 C  
HETATM   11  H   UNL     1     -13.756  12.180  71.354  1.00  0.00     0.000 HD 
HETATM   12  O   UNL     1     -13.235  11.545  71.832  1.00  0.00    -0.485 OA 
BRANCH  10  13
HETATM   13  C   UNL     1     -11.806  11.586  69.909  1.00  0.00    -0.355 C  
HETATM   14  O   UNL     1     -12.268  12.932  70.149  1.00  0.00    -0.322 OA 
HETATM   15  H   UNL     1     -11.797  13.494  69.546  1.00  0.00     0.000 HD 
BRANCH  13  16
HETATM   16  C   UNL     1     -11.964  11.246  68.417  1.00  0.00    -0.185 C  
HETATM   17  H   UNL     1     -11.144   9.977  67.169  1.00  0.00     0.000 HD 
HETATM   18  O   UNL     1     -11.046  10.187  68.090  1.00  0.00    -0.266 OA 
BRANCH  16  19
HETATM   19  C   UNL     1     -11.724  12.447  67.495  1.00  0.00    -0.357 C  
BRANCH  19  20
HETATM   20  O   UNL     1     -12.033  12.047  66.153  1.00  0.00    -0.581 OA 
HETATM   21  S   UNL     1     -12.106  13.230  65.040  1.00  0.00    -0.437 S  
HETATM   22  C   UNL     1     -12.488  12.206  63.639  1.00  0.00    -0.549 C  
HETATM   23  O   UNL     1     -10.778  13.783  64.869  1.00  0.00    -0.351 OA 
HETATM   24  O   UNL     1     -13.255  14.061  65.334  1.00  0.00    -0.761 OA 
ENDBRANCH  19  20
ENDBRANCH  16  19
ENDBRANCH  13  16
ENDBRANCH  10  13
ENDBRANCH   7  10
ENDBRANCH   6   7
ENDBRANCH   3   6
TORSDOF 7
ENDMDL
MODEL       84
REMARK 921   NORMALIZED FREE ENERGY PREDICTED BY IDOCK:   -4.64 KCAL/MOL
REMARK 922        TOTAL FREE ENERGY PREDICTED BY IDOCK:   -7.79 KCAL/MOL
REMARK 923 INTER-LIGAND FREE ENERGY PREDICTED BY IDOCK:   -6.90 KCAL/MOL
REMARK 924 INTRA-LIGAND FREE ENERGY PREDICTED BY IDOCK:   -0.89 KCAL/MOL
REMARK 927      BINDING AFFINITY PREDICTED BY RF-SCORE:    0.00 PKD
ROOT
HETATM    1  C   UNL     1     -12.788  15.956  73.229  1.00  0.00    -0.556 C  
HETATM    2  S   UNL     1     -13.425  14.739  72.105  1.00  0.00    -0.438 S  
HETATM    3  O   UNL     1     -12.049  14.383  71.288  1.00  0.00    -0.331 OA 
HETATM    4  O   UNL     1     -13.816  13.572  72.866  1.00  0.00    -0.645 OA 
HETATM    5  O   UNL     1     -14.332  15.395  71.185  1.00  0.00    -0.490 OA 
ENDROOT
BRANCH   3   6
HETATM    6  C   UNL     1     -12.213  13.380  70.280  1.00  0.00    -0.335 C  
BRANCH   6   7
HETATM    7  C   UNL     1     -12.160  13.970  68.867  1.00  0.00    -0.316 C  
HETATM    8  O   UNL     1     -12.277  15.404  68.940  1.00  0.00    -0.580 OA 
HETATM    9  H   UNL     1     -12.244  15.770  68.063  1.00  0.00     0.000 HD 
BRANCH   7  10
HETATM   10  C   UNL     1     -10.819  13.669  68.163  1.00  0.00    -0.246 C  
HETATM   11  H   UNL     1      -8.907  13.819  68.623  1.00  0.00     0.000 HD 
HETATM   12  O   UNL     1      -9.732  14.004  69.057  1.00  0.00    -0.098 OA 
BRANCH  10  13
HETATM   13  C   UNL     1     -10.593  12.209  67.724  1.00  0.00    -0.204 C  
HETATM   14  O   UNL     1     -11.897  11.644  67.473  1.00  0.00    -0.591 OA 
HETATM   15  H   UNL     1     -11.757  10.744  67.203  1.00  0.00     0.000 HD 
BRANCH  13  16
HETATM   16  C   UNL     1      -9.833  11.322  68.726  1.00  0.00    -0.184 C  
HETATM   17  H   UNL     1      -8.013  10.611  68.875  1.00  0.00     0.000 HD 
HETATM   18  O   UNL     1      -8.482  11.158  68.256  1.00  0.00    -0.131 OA 
BRANCH  16  19
HETATM   19  C   UNL     1     -10.483   9.950  68.932  1.00  0.00    -0.211 C  
BRANCH  19  20
HETATM   20  O   UNL     1     -11.523  10.093  69.909  1.00  0.00    -0.253 OA 
HETATM   21  S   UNL     1     -11.516   9.030  71.141  1.00  0.00    -0.332 S  
HETATM   22  C   UNL     1     -12.939   9.660  71.999  1.00  0.00    -0.428 C  
HETATM   23  O   UNL     1     -10.337   9.270  71.948  1.00  0.00    -0.286 OA 
HETATM   24  O   UNL     1     -11.835   7.720  70.612  1.00  0.00    -0.239 OA 
ENDBRANCH  19  20
ENDBRANCH  16  19
ENDBRANCH  13  16
ENDBRANCH  10  13
ENDBRANCH   7  10
ENDBRANCH   6   7
ENDBRANCH   3   6
TORSDOF 7
ENDMDL
MODEL       85
REMARK 921   NORMALIZED FREE ENERGY PREDICTED BY IDOCK:   -4.63 KCAL/MOL
REMARK 922        TOTAL FREE ENERGY PREDICTED BY IDOCK:   -7.77 KCAL/MOL
REMARK 923 INTER-LIGAND FREE ENERGY PREDICTED BY IDOCK:   -6.76 KCAL/MOL
REMARK 924 INTRA-LIGAND FREE ENERGY PREDICTED BY IDOCK:   -1.01 KCAL/MOL
REMARK 927      BINDING AFFINITY PREDICTED BY RF-SCORE:    0.00 PKD
ROOT
HETATM    1  C   UNL     1      -9.454  12.288  66.463  1.00  0.00    -0.236 C  
HETATM    2  S   UNL     1     -10.958  11.621  67.130  1.00  0.00    -0.295 S  
HETATM    3  O   UNL     1     -10.805  12.120  68.684  1.00  0.00    -0.219 OA 
HETATM    4  O   UNL     1     -12.074  12.324  66.535  1.00  0.00    -0.616 OA 
HETATM    5  O   UNL     1     -10.866  10.175  67.114  1.00  0.00    -0.251 OA 
ENDROOT
BRANCH   3   6
HETATM    6  C   UNL     1     -11.903  11.751  69.525  1.00  0.00    -0.337 C  
BRANCH   6   7
HETATM    7  C   UNL     1     -11.682  10.394  70.199  1.00  0.00    -0.312 C  
HETATM    8  O   UNL     1     -10.280  10.220  70.482  1.00  0.00    -0.396 OA 
HETATM    9  H   UNL     1     -10.143   9.377  70.901  1.00  0.00     0.000 HD 
BRANCH   7  10
HETATM   10  C   UNL     1     -12.424  10.289  71.549  1.00  0.00    -0.422 C  
HETATM   11  H   UNL     1     -13.523  11.490  72.664  1.00  0.00     0.000 HD 
HETATM   12  O   UNL     1     -13.067  11.554  71.833  1.00  0.00    -0.481 OA 
BRANCH  10  13
HETATM   13  C   UNL     1     -13.519   9.209  71.643  1.00  0.00    -0.391 C  
HETATM   14  O   UNL     1     -14.101   9.320  72.958  1.00  0.00    -1.016 OA 
HETATM   15  H   UNL     1     -14.775   8.655  73.016  1.00  0.00     0.000 HD 
BRANCH  13  16
HETATM   16  C   UNL     1     -13.050   7.763  71.408  1.00  0.00    -0.272 C  
HETATM   17  H   UNL     1     -13.856   5.982  71.554  1.00  0.00     0.000 HD 
HETATM   18  O   UNL     1     -14.146   6.875  71.699  1.00  0.00    -0.297 OA 
BRANCH  16  19
HETATM   19  C   UNL     1     -11.830   7.379  72.253  1.00  0.00    -0.268 C  
BRANCH  19  20
HETATM   20  O   UNL     1     -10.707   7.235  71.373  1.00  0.00    -0.226 OA 
HETATM   21  S   UNL     1      -9.233   7.305  72.056  1.00  0.00    -0.132 S  
HETATM   22  C   UNL     1      -8.280   7.064  70.576  1.00  0.00    -0.123 C  
HETATM   23  O   UNL     1      -9.069   6.149  72.914  1.00  0.00    -0.132 OA 
HETATM   24  O   UNL     1      -9.017   8.655  72.532  1.00  0.00    -0.337 OA 
ENDBRANCH  19  20
ENDBRANCH  16  19
ENDBRANCH  13  16
ENDBRANCH  10  13
ENDBRANCH   7  10
ENDBRANCH   6   7
ENDBRANCH   3   6
TORSDOF 7
ENDMDL
MODEL       86
REMARK 921   NORMALIZED FREE ENERGY PREDICTED BY IDOCK:   -4.61 KCAL/MOL
REMARK 922        TOTAL FREE ENERGY PREDICTED BY IDOCK:   -7.74 KCAL/MOL
REMARK 923 INTER-LIGAND FREE ENERGY PREDICTED BY IDOCK:   -6.68 KCAL/MOL
REMARK 924 INTRA-LIGAND FREE ENERGY PREDICTED BY IDOCK:   -1.07 KCAL/MOL
REMARK 927      BINDING AFFINITY PREDICTED BY RF-SCORE:    0.00 PKD
ROOT
HETATM    1  C   UNL     1      -9.606   7.780  72.975  1.00  0.00    -0.259 C  
HETATM    2  S   UNL     1     -10.595   7.953  71.512  1.00  0.00    -0.227 S  
HETATM    3  O   UNL     1     -10.382   9.555  71.233  1.00  0.00    -0.312 OA 
HETATM    4  O   UNL     1      -9.959   7.218  70.439  1.00  0.00    -0.190 OA 
HETATM    5  O   UNL     1     -11.983   7.743  71.867  1.00  0.00    -0.280 OA 
ENDROOT
BRANCH   3   6
HETATM    6  C   UNL     1     -11.056  10.038  70.066  1.00  0.00    -0.295 C  
BRANCH   6   7
HETATM    7  C   UNL     1     -10.076  10.543  69.003  1.00  0.00    -0.217 C  
HETATM    8  O   UNL     1      -9.364   9.426  68.435  1.00  0.00    -0.134 OA 
HETATM    9  H   UNL     1      -8.756   9.739  67.775  1.00  0.00     0.000 HD 
BRANCH   7  10
HETATM   10  C   UNL     1     -10.799  11.249  67.836  1.00  0.00    -0.228 C  
HETATM   11  H   UNL     1     -12.673  11.532  67.288  1.00  0.00     0.000 HD 
HETATM   12  O   UNL     1     -12.228  11.097  68.007  1.00  0.00    -0.584 OA 
BRANCH  10  13
HETATM   13  C   UNL     1     -10.532  12.758  67.682  1.00  0.00    -0.220 C  
HETATM   14  O   UNL     1      -9.658  13.138  68.765  1.00  0.00    -0.399 OA 
HETATM   15  H   UNL     1      -9.493  14.068  68.670  1.00  0.00     0.000 HD 
BRANCH  13  16
HETATM   16  C   UNL     1     -11.779  13.659  67.688  1.00  0.00    -0.363 C  
HETATM   17  H   UNL     1     -12.557  14.992  66.480  1.00  0.00     0.000 HD 
HETATM   18  O   UNL     1     -11.787  14.437  66.476  1.00  0.00    -0.384 OA 
BRANCH  16  19
HETATM   19  C   UNL     1     -11.846  14.590  68.904  1.00  0.00    -0.324 C  
BRANCH  19  20
HETATM   20  O   UNL     1     -12.480  13.878  69.975  1.00  0.00    -0.329 OA 
HETATM   21  S   UNL     1     -12.824  14.733  71.315  1.00  0.00    -0.367 S  
HETATM   22  C   UNL     1     -13.571  13.416  72.245  1.00  0.00    -0.605 C  
HETATM   23  O   UNL     1     -13.840  15.712  70.987  1.00  0.00    -0.567 OA 
HETATM   24  O   UNL     1     -11.576  15.101  71.952  1.00  0.00    -0.392 OA 
ENDBRANCH  19  20
ENDBRANCH  16  19
ENDBRANCH  13  16
ENDBRANCH  10  13
ENDBRANCH   7  10
ENDBRANCH   6   7
ENDBRANCH   3   6
TORSDOF 7
ENDMDL
MODEL       87
REMARK 921   NORMALIZED FREE ENERGY PREDICTED BY IDOCK:   -4.60 KCAL/MOL
REMARK 922        TOTAL FREE ENERGY PREDICTED BY IDOCK:   -7.73 KCAL/MOL
REMARK 923 INTER-LIGAND FREE ENERGY PREDICTED BY IDOCK:   -6.54 KCAL/MOL
REMARK 924 INTRA-LIGAND FREE ENERGY PREDICTED BY IDOCK:   -1.19 KCAL/MOL
REMARK 927      BINDING AFFINITY PREDICTED BY RF-SCORE:    0.00 PKD
ROOT
HETATM    1  C   UNL     1     -11.579   5.575  72.620  1.00  0.00    -0.232 C  
HETATM    2  S   UNL     1     -12.263   6.791  71.524  1.00  0.00    -0.351 S  
HETATM    3  O   UNL     1     -11.552   8.135  72.137  1.00  0.00    -0.307 OA 
HETATM    4  O   UNL     1     -11.733   6.562  70.197  1.00  0.00    -0.418 OA 
HETATM    5  O   UNL     1     -13.687   6.886  71.774  1.00  0.00    -0.303 OA 
ENDROOT
BRANCH   3   6
HETATM    6  C   UNL     1     -11.888   9.340  71.442  1.00  0.00    -0.358 C  
BRANCH   6   7
HETATM    7  C   UNL     1     -10.685   9.932  70.701  1.00  0.00    -0.303 C  
HETATM    8  O   UNL     1      -9.898   8.867  70.133  1.00  0.00    -0.167 OA 
HETATM    9  H   UNL     1      -9.152   9.235  69.673  1.00  0.00     0.000 HD 
BRANCH   7  10
HETATM   10  C   UNL     1     -11.116  10.840  69.529  1.00  0.00    -0.278 C  
HETATM   11  H   UNL     1     -12.092  12.543  69.335  1.00  0.00     0.000 HD 
HETATM   12  O   UNL     1     -11.828  11.985  70.057  1.00  0.00    -0.323 OA 
BRANCH  10  13
HETATM   13  C   UNL     1      -9.982  11.397  68.646  1.00  0.00    -0.202 C  
HETATM   14  O   UNL     1      -9.998  12.831  68.804  1.00  0.00    -0.397 OA 
HETATM   15  H   UNL     1      -9.299  13.174  68.260  1.00  0.00     0.000 HD 
BRANCH  13  16
HETATM   16  C   UNL     1     -10.067  11.043  67.151  1.00  0.00    -0.193 C  
HETATM   17  H   UNL     1      -8.938  11.322  65.574  1.00  0.00     0.000 HD 
HETATM   18  O   UNL     1      -8.885  11.540  66.496  1.00  0.00    -0.181 OA 
BRANCH  16  19
HETATM   19  C   UNL     1     -11.318  11.608  66.468  1.00  0.00    -0.263 C  
BRANCH  19  20
HETATM   20  O   UNL     1     -10.964  12.854  65.852  1.00  0.00    -0.272 OA 
HETATM   21  S   UNL     1     -12.026  14.074  66.018  1.00  0.00    -0.436 S  
HETATM   22  C   UNL     1     -11.109  15.302  65.117  1.00  0.00    -0.404 C  
HETATM   23  O   UNL     1     -12.074  14.455  67.415  1.00  0.00    -0.397 OA 
HETATM   24  O   UNL     1     -13.220  13.744  65.267  1.00  0.00    -0.755 OA 
ENDBRANCH  19  20
ENDBRANCH  16  19
ENDBRANCH  13  16
ENDBRANCH  10  13
ENDBRANCH   7  10
ENDBRANCH   6   7
ENDBRANCH   3   6
TORSDOF 7
ENDMDL
MODEL       88
REMARK 921   NORMALIZED FREE ENERGY PREDICTED BY IDOCK:   -4.58 KCAL/MOL
REMARK 922        TOTAL FREE ENERGY PREDICTED BY IDOCK:   -7.70 KCAL/MOL
REMARK 923 INTER-LIGAND FREE ENERGY PREDICTED BY IDOCK:   -6.90 KCAL/MOL
REMARK 924 INTRA-LIGAND FREE ENERGY PREDICTED BY IDOCK:   -0.80 KCAL/MOL
REMARK 927      BINDING AFFINITY PREDICTED BY RF-SCORE:    0.00 PKD
ROOT
HETATM    1  C   UNL     1     -11.017  15.452  64.906  1.00  0.00    -0.437 C  
HETATM    2  S   UNL     1     -11.875  13.947  64.521  1.00  0.00    -0.440 S  
HETATM    3  O   UNL     1     -10.593  13.001  64.133  1.00  0.00    -0.402 OA 
HETATM    4  O   UNL     1     -12.468  13.432  65.736  1.00  0.00    -0.451 OA 
HETATM    5  O   UNL     1     -12.654  14.157  63.317  1.00  0.00    -0.766 OA 
ENDROOT
BRANCH   3   6
HETATM    6  C   UNL     1     -10.945  11.660  63.778  1.00  0.00    -0.422 C  
BRANCH   6   7
HETATM    7  C   UNL     1      -9.856  10.656  64.167  1.00  0.00    -0.335 C  
HETATM    8  O   UNL     1      -8.609  11.352  64.365  1.00  0.00    -0.329 OA 
HETATM    9  H   UNL     1      -7.933  10.729  64.606  1.00  0.00     0.000 HD 
BRANCH   7  10
HETATM   10  C   UNL     1     -10.177   9.935  65.494  1.00  0.00    -0.124 C  
HETATM   11  H   UNL     1      -9.371   8.476  66.550  1.00  0.00     0.000 HD 
HETATM   12  O   UNL     1      -9.173   8.920  65.734  1.00  0.00    -0.209 OA 
BRANCH  10  13
HETATM   13  C   UNL     1     -10.221  10.817  66.756  1.00  0.00    -0.230 C  
HETATM   14  O   UNL     1      -8.852  11.027  67.163  1.00  0.00    -0.138 OA 
HETATM   15  H   UNL     1      -8.879  11.570  67.941  1.00  0.00     0.000 HD 
BRANCH  13  16
HETATM   16  C   UNL     1     -11.028  10.251  67.937  1.00  0.00    -0.292 C  
HETATM   17  H   UNL     1     -12.639  10.778  68.921  1.00  0.00     0.000 HD 
HETATM   18  O   UNL     1     -12.141  11.128  68.192  1.00  0.00    -0.633 OA 
BRANCH  16  19
HETATM   19  C   UNL     1     -10.194  10.084  69.213  1.00  0.00    -0.214 C  
BRANCH  19  20
HETATM   20  O   UNL     1     -10.527   8.818  69.798  1.00  0.00    -0.211 OA 
HETATM   21  S   UNL     1     -10.732   8.793  71.412  1.00  0.00    -0.315 S  
HETATM   22  C   UNL     1     -11.121   7.067  71.570  1.00  0.00    -0.243 C  
HETATM   23  O   UNL     1     -11.909   9.572  71.737  1.00  0.00    -0.377 OA 
HETATM   24  O   UNL     1      -9.448   9.039  72.036  1.00  0.00    -0.339 OA 
ENDBRANCH  19  20
ENDBRANCH  16  19
ENDBRANCH  13  16
ENDBRANCH  10  13
ENDBRANCH   7  10
ENDBRANCH   6   7
ENDBRANCH   3   6
TORSDOF 7
ENDMDL
MODEL       89
REMARK 921   NORMALIZED FREE ENERGY PREDICTED BY IDOCK:   -4.56 KCAL/MOL
REMARK 922        TOTAL FREE ENERGY PREDICTED BY IDOCK:   -7.67 KCAL/MOL
REMARK 923 INTER-LIGAND FREE ENERGY PREDICTED BY IDOCK:   -6.57 KCAL/MOL
REMARK 924 INTRA-LIGAND FREE ENERGY PREDICTED BY IDOCK:   -1.10 KCAL/MOL
REMARK 927      BINDING AFFINITY PREDICTED BY RF-SCORE:    0.00 PKD
ROOT
HETATM    1  C   UNL     1      -6.617  17.150  67.461  1.00  0.00    -0.139 C  
HETATM    2  S   UNL     1      -8.336  17.582  67.376  1.00  0.00    -0.214 S  
HETATM    3  O   UNL     1      -8.989  16.195  67.956  1.00  0.00    -0.183 OA 
HETATM    4  O   UNL     1      -8.592  18.638  68.331  1.00  0.00    -0.319 OA 
HETATM    5  O   UNL     1      -8.712  17.702  65.981  1.00  0.00    -0.499 OA 
ENDROOT
BRANCH   3   6
HETATM    6  C   UNL     1     -10.418  16.214  68.042  1.00  0.00    -0.281 C  
BRANCH   6   7
HETATM    7  C   UNL     1     -11.015  14.804  68.022  1.00  0.00    -0.271 C  
HETATM    8  O   UNL     1     -12.453  14.892  67.978  1.00  0.00    -0.507 OA 
HETATM    9  H   UNL     1     -12.824  14.016  67.966  1.00  0.00     0.000 HD 
BRANCH   7  10
HETATM   10  C   UNL     1     -10.580  14.006  66.774  1.00  0.00    -0.277 C  
HETATM   11  H   UNL     1      -9.560  12.353  66.428  1.00  0.00     0.000 HD 
HETATM   12  O   UNL     1      -9.828  12.844  67.197  1.00  0.00    -0.217 OA 
BRANCH  10  13
HETATM   13  C   UNL     1     -11.713  13.491  65.866  1.00  0.00    -0.352 C  
HETATM   14  O   UNL     1     -11.962  12.122  66.249  1.00  0.00    -0.605 OA 
HETATM   15  H   UNL     1     -12.660  11.804  65.689  1.00  0.00     0.000 HD 
BRANCH  13  16
HETATM   16  C   UNL     1     -11.437  13.559  64.353  1.00  0.00    -0.394 C  
HETATM   17  H   UNL     1     -12.451  14.090  62.762  1.00  0.00     0.000 HD 
HETATM   18  O   UNL     1     -12.621  14.048  63.695  1.00  0.00    -0.818 OA 
BRANCH  16  19
HETATM   19  C   UNL     1     -11.026  12.210  63.753  1.00  0.00    -0.431 C  
BRANCH  19  20
HETATM   20  O   UNL     1      -9.732  11.870  64.267  1.00  0.00    -0.210 OA 
HETATM   21  S   UNL     1      -9.372  10.286  64.343  1.00  0.00    -0.300 S  
HETATM   22  C   UNL     1      -7.732  10.452  65.006  1.00  0.00    -0.095 C  
HETATM   23  O   UNL     1      -9.283   9.770  62.992  1.00  0.00    -0.266 OA 
HETATM   24  O   UNL     1     -10.219   9.675  65.347  1.00  0.00    -0.192 OA 
ENDBRANCH  19  20
ENDBRANCH  16  19
ENDBRANCH  13  16
ENDBRANCH  10  13
ENDBRANCH   7  10
ENDBRANCH   6   7
ENDBRANCH   3   6
TORSDOF 7
ENDMDL
MODEL       90
REMARK 921   NORMALIZED FREE ENERGY PREDICTED BY IDOCK:   -4.56 KCAL/MOL
REMARK 922        TOTAL FREE ENERGY PREDICTED BY IDOCK:   -7.67 KCAL/MOL
REMARK 923 INTER-LIGAND FREE ENERGY PREDICTED BY IDOCK:   -6.76 KCAL/MOL
REMARK 924 INTRA-LIGAND FREE ENERGY PREDICTED BY IDOCK:   -0.91 KCAL/MOL
REMARK 927      BINDING AFFINITY PREDICTED BY RF-SCORE:    0.00 PKD
ROOT
HETATM    1  C   UNL     1     -11.000  11.816  63.253  1.00  0.00    -0.308 C  
HETATM    2  S   UNL     1     -12.289  12.792  63.984  1.00  0.00    -0.403 S  
HETATM    3  O   UNL     1     -11.540  13.226  65.376  1.00  0.00    -0.308 OA 
HETATM    4  O   UNL     1     -12.476  13.981  63.180  1.00  0.00    -0.733 OA 
HETATM    5  O   UNL     1     -13.392  11.917  64.325  1.00  0.00    -0.610 OA 
ENDROOT
BRANCH   3   6
HETATM    6  C   UNL     1     -12.328  14.069  66.223  1.00  0.00    -0.448 C  
BRANCH   6   7
HETATM    7  C   UNL     1     -11.532  14.580  67.428  1.00  0.00    -0.368 C  
HETATM    8  O   UNL     1     -11.746  13.705  68.553  1.00  0.00    -0.313 OA 
HETATM    9  H   UNL     1     -11.252  14.022  69.300  1.00  0.00     0.000 HD 
BRANCH   7  10
HETATM   10  C   UNL     1     -10.011  14.590  67.157  1.00  0.00    -0.252 C  
HETATM   11  H   UNL     1      -8.811  15.410  65.822  1.00  0.00     0.000 HD 
HETATM   12  O   UNL     1      -9.747  15.403  65.989  1.00  0.00    -0.287 OA 
BRANCH  10  13
HETATM   13  C   UNL     1      -9.122  15.141  68.287  1.00  0.00    -0.183 C  
HETATM   14  O   UNL     1      -9.994  15.843  69.198  1.00  0.00    -0.215 OA 
HETATM   15  H   UNL     1      -9.446  16.183  69.894  1.00  0.00     0.000 HD 
BRANCH  13  16
HETATM   16  C   UNL     1      -7.983  16.076  67.843  1.00  0.00    -0.137 C  
HETATM   17  H   UNL     1      -6.024  16.013  67.858  1.00  0.00     0.000 HD 
HETATM   18  O   UNL     1      -6.727  15.436  68.133  1.00  0.00    -0.112 OA 
BRANCH  16  19
HETATM   19  C   UNL     1      -8.034  17.452  68.517  1.00  0.00    -0.266 C  
BRANCH  19  20
HETATM   20  O   UNL     1      -8.481  18.407  67.546  1.00  0.00    -0.250 OA 
HETATM   21  S   UNL     1      -9.970  19.024  67.763  1.00  0.00    -0.380 S  
HETATM   22  C   UNL     1      -9.984  20.100  66.350  1.00  0.00    -0.448 C  
HETATM   23  O   UNL     1      -9.963  19.829  68.967  1.00  0.00    -0.434 OA 
HETATM   24  O   UNL     1     -10.936  17.965  67.550  1.00  0.00    -0.304 OA 
ENDBRANCH  19  20
ENDBRANCH  16  19
ENDBRANCH  13  16
ENDBRANCH  10  13
ENDBRANCH   7  10
ENDBRANCH   6   7
ENDBRANCH   3   6
TORSDOF 7
ENDMDL
MODEL       91
REMARK 921   NORMALIZED FREE ENERGY PREDICTED BY IDOCK:   -4.54 KCAL/MOL
REMARK 922        TOTAL FREE ENERGY PREDICTED BY IDOCK:   -7.65 KCAL/MOL
REMARK 923 INTER-LIGAND FREE ENERGY PREDICTED BY IDOCK:   -6.79 KCAL/MOL
REMARK 924 INTRA-LIGAND FREE ENERGY PREDICTED BY IDOCK:   -0.86 KCAL/MOL
REMARK 927      BINDING AFFINITY PREDICTED BY RF-SCORE:    0.00 PKD
ROOT
HETATM    1  C   UNL     1      -6.934  20.789  67.091  1.00  0.00    -0.348 C  
HETATM    2  S   UNL     1      -7.348  19.349  68.043  1.00  0.00    -0.282 S  
HETATM    3  O   UNL     1      -8.907  19.157  67.575  1.00  0.00    -0.289 OA 
HETATM    4  O   UNL     1      -6.581  18.230  67.539  1.00  0.00    -0.190 OA 
HETATM    5  O   UNL     1      -7.345  19.710  69.446  1.00  0.00    -0.337 OA 
ENDROOT
BRANCH   3   6
HETATM    6  C   UNL     1      -9.558  18.027  68.165  1.00  0.00    -0.301 C  
BRANCH   6   7
HETATM    7  C   UNL     1     -10.145  17.085  67.110  1.00  0.00    -0.292 C  
HETATM    8  O   UNL     1      -9.555  17.372  65.827  1.00  0.00    -0.526 OA 
HETATM    9  H   UNL     1      -9.919  16.786  65.172  1.00  0.00     0.000 HD 
BRANCH   7  10
HETATM   10  C   UNL     1      -9.839  15.604  67.419  1.00  0.00    -0.225 C  
HETATM   11  H   UNL     1      -8.215  14.500  67.615  1.00  0.00     0.000 HD 
HETATM   12  O   UNL     1      -8.404  15.411  67.424  1.00  0.00    -0.158 OA 
BRANCH  10  13
HETATM   13  C   UNL     1     -10.359  15.068  68.767  1.00  0.00    -0.240 C  
HETATM   14  O   UNL     1      -9.210  14.921  69.627  1.00  0.00    -0.434 OA 
HETATM   15  H   UNL     1      -9.531  14.590  70.457  1.00  0.00     0.000 HD 
BRANCH  13  16
HETATM   16  C   UNL     1     -11.126  13.735  68.702  1.00  0.00    -0.267 C  
HETATM   17  H   UNL     1     -12.201  12.795  67.359  1.00  0.00     0.000 HD 
HETATM   18  O   UNL     1     -11.728  13.618  67.399  1.00  0.00    -0.337 OA 
BRANCH  16  19
HETATM   19  C   UNL     1     -12.201  13.604  69.786  1.00  0.00    -0.291 C  
BRANCH  19  20
HETATM   20  O   UNL     1     -11.889  14.529  70.836  1.00  0.00    -0.307 OA 
HETATM   21  S   UNL     1     -13.085  14.869  71.886  1.00  0.00    -0.370 S  
HETATM   22  C   UNL     1     -12.174  15.993  72.918  1.00  0.00    -0.517 C  
HETATM   23  O   UNL     1     -13.384  13.672  72.645  1.00  0.00    -0.536 OA 
HETATM   24  O   UNL     1     -14.110  15.611  71.182  1.00  0.00    -0.539 OA 
ENDBRANCH  19  20
ENDBRANCH  16  19
ENDBRANCH  13  16
ENDBRANCH  10  13
ENDBRANCH   7  10
ENDBRANCH   6   7
ENDBRANCH   3   6
TORSDOF 7
ENDMDL
MODEL       92
REMARK 921   NORMALIZED FREE ENERGY PREDICTED BY IDOCK:   -4.54 KCAL/MOL
REMARK 922        TOTAL FREE ENERGY PREDICTED BY IDOCK:   -7.65 KCAL/MOL
REMARK 923 INTER-LIGAND FREE ENERGY PREDICTED BY IDOCK:   -6.33 KCAL/MOL
REMARK 924 INTRA-LIGAND FREE ENERGY PREDICTED BY IDOCK:   -1.32 KCAL/MOL
REMARK 927      BINDING AFFINITY PREDICTED BY RF-SCORE:    0.00 PKD
ROOT
HETATM    1  C   UNL     1      -6.061   9.649  67.692  1.00  0.00    -0.052 C  
HETATM    2  S   UNL     1      -6.705  10.822  66.526  1.00  0.00    -0.134 S  
HETATM    3  O   UNL     1      -8.088  11.239  67.302  1.00  0.00    -0.129 OA 
HETATM    4  O   UNL     1      -5.831  11.975  66.505  1.00  0.00    -0.237 OA 
HETATM    5  O   UNL     1      -7.070  10.114  65.316  1.00  0.00    -0.127 OA 
ENDROOT
BRANCH   3   6
HETATM    6  C   UNL     1      -8.867  12.224  66.615  1.00  0.00    -0.167 C  
BRANCH   6   7
HETATM    7  C   UNL     1      -9.786  12.997  67.566  1.00  0.00    -0.209 C  
HETATM    8  O   UNL     1      -9.766  12.376  68.866  1.00  0.00    -0.414 OA 
HETATM    9  H   UNL     1     -10.336  12.856  69.456  1.00  0.00     0.000 HD 
BRANCH   7  10
HETATM   10  C   UNL     1      -9.322  14.456  67.763  1.00  0.00    -0.200 C  
HETATM   11  H   UNL     1      -7.760  15.535  67.225  1.00  0.00     0.000 HD 
HETATM   12  O   UNL     1      -8.046  14.637  67.104  1.00  0.00    -0.203 OA 
BRANCH  10  13
HETATM   13  C   UNL     1     -10.259  15.549  67.215  1.00  0.00    -0.260 C  
HETATM   14  O   UNL     1     -11.606  15.054  67.363  1.00  0.00    -0.348 OA 
HETATM   15  H   UNL     1     -12.184  15.727  67.025  1.00  0.00     0.000 HD 
BRANCH  13  16
HETATM   16  C   UNL     1     -10.021  15.959  65.751  1.00  0.00    -0.360 C  
HETATM   17  H   UNL     1      -9.792  17.647  64.782  1.00  0.00     0.000 HD 
HETATM   18  O   UNL     1      -9.939  17.395  65.686  1.00  0.00    -0.559 OA 
BRANCH  16  19
HETATM   19  C   UNL     1     -11.110  15.454  64.798  1.00  0.00    -0.403 C  
BRANCH  19  20
HETATM   20  O   UNL     1     -10.771  14.119  64.401  1.00  0.00    -0.352 OA 
HETATM   21  S   UNL     1     -12.012  13.105  64.125  1.00  0.00    -0.459 S  
HETATM   22  C   UNL     1     -11.050  11.679  63.676  1.00  0.00    -0.425 C  
HETATM   23  O   UNL     1     -12.735  13.570  62.959  1.00  0.00    -0.668 OA 
HETATM   24  O   UNL     1     -12.672  12.840  65.386  1.00  0.00    -0.621 OA 
ENDBRANCH  19  20
ENDBRANCH  16  19
ENDBRANCH  13  16
ENDBRANCH  10  13
ENDBRANCH   7  10
ENDBRANCH   6   7
ENDBRANCH   3   6
TORSDOF 7
ENDMDL
MODEL       93
REMARK 921   NORMALIZED FREE ENERGY PREDICTED BY IDOCK:   -4.54 KCAL/MOL
REMARK 922        TOTAL FREE ENERGY PREDICTED BY IDOCK:   -7.65 KCAL/MOL
REMARK 923 INTER-LIGAND FREE ENERGY PREDICTED BY IDOCK:   -6.42 KCAL/MOL
REMARK 924 INTRA-LIGAND FREE ENERGY PREDICTED BY IDOCK:   -1.22 KCAL/MOL
REMARK 927      BINDING AFFINITY PREDICTED BY RF-SCORE:    0.00 PKD
ROOT
HETATM    1  C   UNL     1     -12.567  14.137  66.082  1.00  0.00    -0.321 C  
HETATM    2  S   UNL     1     -11.700  13.761  64.579  1.00  0.00    -0.420 S  
HETATM    3  O   UNL     1     -11.591  12.133  64.734  1.00  0.00    -0.331 OA 
HETATM    4  O   UNL     1     -12.572  14.053  63.461  1.00  0.00    -0.842 OA 
HETATM    5  O   UNL     1     -10.362  14.309  64.672  1.00  0.00    -0.417 OA 
ENDROOT
BRANCH   3   6
HETATM    6  C   UNL     1     -10.937  11.486  63.638  1.00  0.00    -0.404 C  
BRANCH   6   7
HETATM    7  C   UNL     1      -9.825  10.542  64.106  1.00  0.00    -0.337 C  
HETATM    8  O   UNL     1      -8.549  11.045  63.664  1.00  0.00    -0.364 OA 
HETATM    9  H   UNL     1      -7.859  10.460  63.954  1.00  0.00     0.000 HD 
BRANCH   7  10
HETATM   10  C   UNL     1      -9.755  10.445  65.645  1.00  0.00    -0.236 C  
HETATM   11  H   UNL     1     -10.038   9.034  66.994  1.00  0.00     0.000 HD 
HETATM   12  O   UNL     1     -10.081   9.093  66.047  1.00  0.00    -0.284 OA 
BRANCH  10  13
HETATM   13  C   UNL     1      -8.396  10.779  66.288  1.00  0.00    -0.160 C  
HETATM   14  O   UNL     1      -8.087   9.699  67.193  1.00  0.00    -0.109 OA 
HETATM   15  H   UNL     1      -7.249   9.905  67.589  1.00  0.00     0.000 HD 
BRANCH  13  16
HETATM   16  C   UNL     1      -8.327  12.118  67.043  1.00  0.00    -0.173 C  
HETATM   17  H   UNL     1      -7.262  12.848  68.518  1.00  0.00     0.000 HD 
HETATM   18  O   UNL     1      -7.304  12.021  68.052  1.00  0.00    -0.088 OA 
BRANCH  16  19
HETATM   19  C   UNL     1      -9.659  12.516  67.689  1.00  0.00    -0.190 C  
BRANCH  19  20
HETATM   20  O   UNL     1      -9.921  11.607  68.766  1.00  0.00    -0.200 OA 
HETATM   21  S   UNL     1     -11.456  11.531  69.298  1.00  0.00    -0.334 S  
HETATM   22  C   UNL     1     -11.206  10.302  70.556  1.00  0.00    -0.330 C  
HETATM   23  O   UNL     1     -12.279  10.968  68.247  1.00  0.00    -0.582 OA 
HETATM   24  O   UNL     1     -11.778  12.790  69.937  1.00  0.00    -0.302 OA 
ENDBRANCH  19  20
ENDBRANCH  16  19
ENDBRANCH  13  16
ENDBRANCH  10  13
ENDBRANCH   7  10
ENDBRANCH   6   7
ENDBRANCH   3   6
TORSDOF 7
ENDMDL
MODEL       94
REMARK 921   NORMALIZED FREE ENERGY PREDICTED BY IDOCK:   -4.53 KCAL/MOL
REMARK 922        TOTAL FREE ENERGY PREDICTED BY IDOCK:   -7.63 KCAL/MOL
REMARK 923 INTER-LIGAND FREE ENERGY PREDICTED BY IDOCK:   -6.41 KCAL/MOL
REMARK 924 INTRA-LIGAND FREE ENERGY PREDICTED BY IDOCK:   -1.22 KCAL/MOL
REMARK 927      BINDING AFFINITY PREDICTED BY RF-SCORE:    0.00 PKD
ROOT
HETATM    1  C   UNL     1     -10.256   7.116  70.739  1.00  0.00    -0.197 C  
HETATM    2  S   UNL     1     -10.309   8.889  70.787  1.00  0.00    -0.247 S  
HETATM    3  O   UNL     1     -10.037   9.209  69.203  1.00  0.00    -0.182 OA 
HETATM    4  O   UNL     1     -11.660   9.298  71.107  1.00  0.00    -0.279 OA 
HETATM    5  O   UNL     1      -9.166   9.363  71.541  1.00  0.00    -0.276 OA 
ENDROOT
BRANCH   3   6
HETATM    6  C   UNL     1     -10.036  10.603  68.881  1.00  0.00    -0.202 C  
BRANCH   6   7
HETATM    7  C   UNL     1     -11.199  10.982  67.959  1.00  0.00    -0.309 C  
HETATM    8  O   UNL     1     -12.433  10.953  68.705  1.00  0.00    -0.772 OA 
HETATM    9  H   UNL     1     -13.154  11.188  68.133  1.00  0.00     0.000 HD 
BRANCH   7  10
HETATM   10  C   UNL     1     -11.053  12.413  67.399  1.00  0.00    -0.272 C  
HETATM   11  H   UNL     1     -11.270  13.279  65.639  1.00  0.00     0.000 HD 
HETATM   12  O   UNL     1     -11.360  12.398  65.984  1.00  0.00    -0.317 OA 
BRANCH  10  13
HETATM   13  C   UNL     1     -11.955  13.489  68.033  1.00  0.00    -0.337 C  
HETATM   14  O   UNL     1     -12.459  14.300  66.951  1.00  0.00    -0.581 OA 
HETATM   15  H   UNL     1     -13.015  14.963  67.342  1.00  0.00     0.000 HD 
BRANCH  13  16
HETATM   16  C   UNL     1     -11.279  14.392  69.080  1.00  0.00    -0.272 C  
HETATM   17  H   UNL     1     -11.510  14.741  70.995  1.00  0.00     0.000 HD 
HETATM   18  O   UNL     1     -11.927  14.184  70.349  1.00  0.00    -0.298 OA 
BRANCH  16  19
HETATM   19  C   UNL     1     -11.320  15.879  68.711  1.00  0.00    -0.378 C  
BRANCH  19  20
HETATM   20  O   UNL     1     -10.063  16.224  68.114  1.00  0.00    -0.234 OA 
HETATM   21  S   UNL     1     -10.120  16.883  66.628  1.00  0.00    -0.313 S  
HETATM   22  C   UNL     1      -8.371  17.107  66.407  1.00  0.00    -0.280 C  
HETATM   23  O   UNL     1     -10.752  18.183  66.725  1.00  0.00    -0.321 OA 
HETATM   24  O   UNL     1     -10.578  15.870  65.700  1.00  0.00    -0.346 OA 
ENDBRANCH  19  20
ENDBRANCH  16  19
ENDBRANCH  13  16
ENDBRANCH  10  13
ENDBRANCH   7  10
ENDBRANCH   6   7
ENDBRANCH   3   6
TORSDOF 7
ENDMDL
MODEL       95
REMARK 921   NORMALIZED FREE ENERGY PREDICTED BY IDOCK:   -4.53 KCAL/MOL
REMARK 922        TOTAL FREE ENERGY PREDICTED BY IDOCK:   -7.62 KCAL/MOL
REMARK 923 INTER-LIGAND FREE ENERGY PREDICTED BY IDOCK:   -6.68 KCAL/MOL
REMARK 924 INTRA-LIGAND FREE ENERGY PREDICTED BY IDOCK:   -0.94 KCAL/MOL
REMARK 927      BINDING AFFINITY PREDICTED BY RF-SCORE:    0.00 PKD
ROOT
HETATM    1  C   UNL     1     -12.277  14.813  64.215  1.00  0.00    -0.379 C  
HETATM    2  S   UNL     1     -11.882  13.090  64.368  1.00  0.00    -0.414 S  
HETATM    3  O   UNL     1     -11.576  13.026  65.977  1.00  0.00    -0.331 OA 
HETATM    4  O   UNL     1     -13.078  12.319  64.103  1.00  0.00    -0.749 OA 
HETATM    5  O   UNL     1     -10.639  12.840  63.667  1.00  0.00    -0.393 OA 
ENDROOT
BRANCH   3   6
HETATM    6  C   UNL     1     -11.232  11.721  66.454  1.00  0.00    -0.323 C  
BRANCH   6   7
HETATM    7  C   UNL     1      -9.773  11.641  66.911  1.00  0.00    -0.195 C  
HETATM    8  O   UNL     1      -8.943  12.398  66.007  1.00  0.00    -0.421 OA 
HETATM    9  H   UNL     1      -8.038  12.348  66.291  1.00  0.00     0.000 HD 
BRANCH   7  10
HETATM   10  C   UNL     1      -9.570  12.249  68.315  1.00  0.00    -0.212 C  
HETATM   11  H   UNL     1      -8.521  11.793  69.923  1.00  0.00     0.000 HD 
HETATM   12  O   UNL     1      -8.646  11.419  69.059  1.00  0.00    -0.066 OA 
BRANCH  10  13
HETATM   13  C   UNL     1      -9.008  13.683  68.362  1.00  0.00    -0.160 C  
HETATM   14  O   UNL     1      -7.947  13.681  69.340  1.00  0.00    -0.278 OA 
HETATM   15  H   UNL     1      -7.601  14.565  69.369  1.00  0.00     0.000 HD 
BRANCH  13  16
HETATM   16  C   UNL     1     -10.024  14.785  68.708  1.00  0.00    -0.234 C  
HETATM   17  H   UNL     1      -9.965  16.510  69.637  1.00  0.00     0.000 HD 
HETATM   18  O   UNL     1      -9.338  15.829  69.424  1.00  0.00    -0.254 OA 
BRANCH  16  19
HETATM   19  C   UNL     1     -11.209  14.276  69.536  1.00  0.00    -0.243 C  
BRANCH  19  20
HETATM   20  O   UNL     1     -11.236  15.007  70.770  1.00  0.00    -0.277 OA 
HETATM   21  S   UNL     1     -12.624  14.956  71.616  1.00  0.00    -0.355 S  
HETATM   22  C   UNL     1     -12.102  15.968  72.980  1.00  0.00    -0.522 C  
HETATM   23  O   UNL     1     -12.826  13.601  72.086  1.00  0.00    -0.308 OA 
HETATM   24  O   UNL     1     -13.638  15.671  70.868  1.00  0.00    -0.568 OA 
ENDBRANCH  19  20
ENDBRANCH  16  19
ENDBRANCH  13  16
ENDBRANCH  10  13
ENDBRANCH   7  10
ENDBRANCH   6   7
ENDBRANCH   3   6
TORSDOF 7
ENDMDL
MODEL       96
REMARK 921   NORMALIZED FREE ENERGY PREDICTED BY IDOCK:   -4.53 KCAL/MOL
REMARK 922        TOTAL FREE ENERGY PREDICTED BY IDOCK:   -7.62 KCAL/MOL
REMARK 923 INTER-LIGAND FREE ENERGY PREDICTED BY IDOCK:   -6.85 KCAL/MOL
REMARK 924 INTRA-LIGAND FREE ENERGY PREDICTED BY IDOCK:   -0.77 KCAL/MOL
REMARK 927      BINDING AFFINITY PREDICTED BY RF-SCORE:    0.00 PKD
ROOT
HETATM    1  C   UNL     1     -12.529  11.986  63.531  1.00  0.00    -0.540 C  
HETATM    2  S   UNL     1     -11.888  13.111  64.744  1.00  0.00    -0.394 S  
HETATM    3  O   UNL     1     -11.447  12.037  65.900  1.00  0.00    -0.350 OA 
HETATM    4  O   UNL     1     -10.689  13.724  64.213  1.00  0.00    -0.372 OA 
HETATM    5  O   UNL     1     -12.986  13.900  65.264  1.00  0.00    -0.747 OA 
ENDROOT
BRANCH   3   6
HETATM    6  C   UNL     1     -10.851  12.635  67.056  1.00  0.00    -0.253 C  
BRANCH   6   7
HETATM    7  C   UNL     1     -11.790  12.614  68.265  1.00  0.00    -0.306 C  
HETATM    8  O   UNL     1     -11.290  11.683  69.246  1.00  0.00    -0.249 OA 
HETATM    9  H   UNL     1     -11.873  11.670  69.997  1.00  0.00     0.000 HD 
BRANCH   7  10
HETATM   10  C   UNL     1     -11.874  13.990  68.960  1.00  0.00    -0.354 C  
HETATM   11  H   UNL     1     -12.098  14.636  70.810  1.00  0.00     0.000 HD 
HETATM   12  O   UNL     1     -12.047  13.789  70.383  1.00  0.00    -0.322 OA 
BRANCH  10  13
HETATM   13  C   UNL     1     -10.652  14.913  68.792  1.00  0.00    -0.247 C  
HETATM   14  O   UNL     1     -10.135  15.164  70.115  1.00  0.00    -0.489 OA 
HETATM   15  H   UNL     1      -9.382  15.733  70.012  1.00  0.00     0.000 HD 
BRANCH  13  16
HETATM   16  C   UNL     1     -10.921  16.252  68.083  1.00  0.00    -0.343 C  
HETATM   17  H   UNL     1     -10.888  16.895  66.232  1.00  0.00     0.000 HD 
HETATM   18  O   UNL     1     -10.721  16.069  66.669  1.00  0.00    -0.311 OA 
BRANCH  16  19
HETATM   19  C   UNL     1     -10.033  17.393  68.591  1.00  0.00    -0.340 C  
BRANCH  19  20
HETATM   20  O   UNL     1      -9.164  17.791  67.521  1.00  0.00    -0.242 OA 
HETATM   21  S   UNL     1      -7.639  18.181  67.930  1.00  0.00    -0.238 S  
HETATM   22  C   UNL     1      -7.051  18.557  66.295  1.00  0.00    -0.250 C  
HETATM   23  O   UNL     1      -6.971  16.986  68.406  1.00  0.00    -0.167 OA 
HETATM   24  O   UNL     1      -7.674  19.405  68.703  1.00  0.00    -0.337 OA 
ENDBRANCH  19  20
ENDBRANCH  16  19
ENDBRANCH  13  16
ENDBRANCH  10  13
ENDBRANCH   7  10
ENDBRANCH   6   7
ENDBRANCH   3   6
TORSDOF 7
ENDMDL
MODEL       97
REMARK 921   NORMALIZED FREE ENERGY PREDICTED BY IDOCK:   -4.53 KCAL/MOL
REMARK 922        TOTAL FREE ENERGY PREDICTED BY IDOCK:   -7.62 KCAL/MOL
REMARK 923 INTER-LIGAND FREE ENERGY PREDICTED BY IDOCK:   -6.58 KCAL/MOL
REMARK 924 INTRA-LIGAND FREE ENERGY PREDICTED BY IDOCK:   -1.04 KCAL/MOL
REMARK 927      BINDING AFFINITY PREDICTED BY RF-SCORE:    0.00 PKD
ROOT
HETATM    1  C   UNL     1     -12.377  14.901  64.103  1.00  0.00    -0.185 C  
HETATM    2  S   UNL     1     -12.015  13.188  64.392  1.00  0.00    -0.422 S  
HETATM    3  O   UNL     1     -10.802  13.350  65.482  1.00  0.00    -0.283 OA 
HETATM    4  O   UNL     1     -13.148  12.586  65.061  1.00  0.00    -0.765 OA 
HETATM    5  O   UNL     1     -11.453  12.626  63.180  1.00  0.00    -0.424 OA 
ENDROOT
BRANCH   3   6
HETATM    6  C   UNL     1     -10.274  12.107  65.957  1.00  0.00    -0.237 C  
BRANCH   6   7
HETATM    7  C   UNL     1     -10.088  12.104  67.477  1.00  0.00    -0.196 C  
HETATM    8  O   UNL     1      -8.983  12.959  67.829  1.00  0.00    -0.172 OA 
HETATM    9  H   UNL     1      -8.868  12.957  68.772  1.00  0.00     0.000 HD 
BRANCH   7  10
HETATM   10  C   UNL     1     -11.328  12.654  68.215  1.00  0.00    -0.295 C  
HETATM   11  H   UNL     1     -12.988  11.896  68.964  1.00  0.00     0.000 HD 
HETATM   12  O   UNL     1     -12.225  11.557  68.510  1.00  0.00    -0.524 OA 
BRANCH  10  13
HETATM   13  C   UNL     1     -11.061  13.375  69.550  1.00  0.00    -0.040 C  
HETATM   14  O   UNL     1     -11.847  12.697  70.553  1.00  0.00    -0.525 OA 
HETATM   15  H   UNL     1     -11.683  13.142  71.376  1.00  0.00     0.000 HD 
BRANCH  13  16
HETATM   16  C   UNL     1     -11.389  14.879  69.572  1.00  0.00    -0.281 C  
HETATM   17  H   UNL     1     -12.892  15.983  70.174  1.00  0.00     0.000 HD 
HETATM   18  O   UNL     1     -12.691  15.055  70.160  1.00  0.00    -0.303 OA 
BRANCH  16  19
HETATM   19  C   UNL     1     -11.354  15.524  68.182  1.00  0.00    -0.345 C  
BRANCH  19  20
HETATM   20  O   UNL     1      -9.997  15.891  67.895  1.00  0.00    -0.219 OA 
HETATM   21  S   UNL     1      -9.780  17.219  66.982  1.00  0.00    -0.278 S  
HETATM   22  C   UNL     1      -8.003  17.200  66.965  1.00  0.00    -0.201 C  
HETATM   23  O   UNL     1     -10.230  18.373  67.734  1.00  0.00    -0.347 OA 
HETATM   24  O   UNL     1     -10.259  16.935  65.645  1.00  0.00    -0.542 OA 
ENDBRANCH  19  20
ENDBRANCH  16  19
ENDBRANCH  13  16
ENDBRANCH  10  13
ENDBRANCH   7  10
ENDBRANCH   6   7
ENDBRANCH   3   6
TORSDOF 7
ENDMDL
MODEL       98
REMARK 921   NORMALIZED FREE ENERGY PREDICTED BY IDOCK:   -4.52 KCAL/MOL
REMARK 922        TOTAL FREE ENERGY PREDICTED BY IDOCK:   -7.61 KCAL/MOL
REMARK 923 INTER-LIGAND FREE ENERGY PREDICTED BY IDOCK:   -7.04 KCAL/MOL
REMARK 924 INTRA-LIGAND FREE ENERGY PREDICTED BY IDOCK:   -0.57 KCAL/MOL
REMARK 927      BINDING AFFINITY PREDICTED BY RF-SCORE:    0.00 PKD
ROOT
HETATM    1  C   UNL     1      -9.509   6.219  66.733  1.00  0.00    -0.144 C  
HETATM    2  S   UNL     1      -8.693   7.708  66.217  1.00  0.00    -0.157 S  
HETATM    3  O   UNL     1      -9.972   8.734  66.238  1.00  0.00    -0.283 OA 
HETATM    4  O   UNL     1      -7.771   8.110  67.256  1.00  0.00    -0.095 OA 
HETATM    5  O   UNL     1      -8.273   7.547  64.839  1.00  0.00    -0.132 OA 
ENDROOT
BRANCH   3   6
HETATM    6  C   UNL     1      -9.645  10.080  65.877  1.00  0.00    -0.224 C  
BRANCH   6   7
HETATM    7  C   UNL     1     -10.811  11.041  66.122  1.00  0.00    -0.146 C  
HETATM    8  O   UNL     1     -10.505  11.894  67.243  1.00  0.00    -0.215 OA 
HETATM    9  H   UNL     1     -11.229  12.491  67.394  1.00  0.00     0.000 HD 
BRANCH   7  10
HETATM   10  C   UNL     1     -11.062  11.970  64.913  1.00  0.00    -0.316 C  
HETATM   11  H   UNL     1     -11.301  11.738  62.969  1.00  0.00     0.000 HD 
HETATM   12  O   UNL     1     -11.147  11.166  63.712  1.00  0.00    -0.329 OA 
BRANCH  10  13
HETATM   13  C   UNL     1     -12.344  12.823  64.964  1.00  0.00    -0.499 C  
HETATM   14  O   UNL     1     -13.137  12.448  63.818  1.00  0.00    -0.756 OA 
HETATM   15  H   UNL     1     -13.927  12.974  63.849  1.00  0.00     0.000 HD 
BRANCH  13  16
HETATM   16  C   UNL     1     -12.130  14.347  64.965  1.00  0.00    -0.415 C  
HETATM   17  H   UNL     1     -12.357  15.800  63.670  1.00  0.00     0.000 HD 
HETATM   18  O   UNL     1     -12.488  14.859  63.668  1.00  0.00    -0.699 OA 
BRANCH  16  19
HETATM   19  C   UNL     1     -10.693  14.755  65.308  1.00  0.00    -0.390 C  
BRANCH  19  20
HETATM   20  O   UNL     1     -10.749  15.790  66.298  1.00  0.00    -0.312 OA 
HETATM   21  S   UNL     1     -10.134  17.235  65.875  1.00  0.00    -0.149 S  
HETATM   22  C   UNL     1     -10.469  18.085  67.400  1.00  0.00    -0.387 C  
HETATM   23  O   UNL     1     -10.964  17.800  64.831  1.00  0.00    -0.866 OA 
HETATM   24  O   UNL     1      -8.700  17.094  65.729  1.00  0.00    -0.527 OA 
ENDBRANCH  19  20
ENDBRANCH  16  19
ENDBRANCH  13  16
ENDBRANCH  10  13
ENDBRANCH   7  10
ENDBRANCH   6   7
ENDBRANCH   3   6
TORSDOF 7
ENDMDL
MODEL       99
REMARK 921   NORMALIZED FREE ENERGY PREDICTED BY IDOCK:   -4.51 KCAL/MOL
REMARK 922        TOTAL FREE ENERGY PREDICTED BY IDOCK:   -7.59 KCAL/MOL
REMARK 923 INTER-LIGAND FREE ENERGY PREDICTED BY IDOCK:   -6.55 KCAL/MOL
REMARK 924 INTRA-LIGAND FREE ENERGY PREDICTED BY IDOCK:   -1.05 KCAL/MOL
REMARK 927      BINDING AFFINITY PREDICTED BY RF-SCORE:    0.00 PKD
ROOT
HETATM    1  C   UNL     1     -11.740  12.494  64.040  1.00  0.00    -0.423 C  
HETATM    2  S   UNL     1     -10.818  12.569  65.554  1.00  0.00    -0.287 S  
HETATM    3  O   UNL     1     -12.051  12.435  66.626  1.00  0.00    -0.592 OA 
HETATM    4  O   UNL     1      -9.999  11.380  65.653  1.00  0.00    -0.219 OA 
HETATM    5  O   UNL     1     -10.256  13.899  65.685  1.00  0.00    -0.306 OA 
ENDROOT
BRANCH   3   6
HETATM    6  C   UNL     1     -11.636  12.440  67.995  1.00  0.00    -0.347 C  
BRANCH   6   7
HETATM    7  C   UNL     1     -12.018  11.145  68.718  1.00  0.00    -0.268 C  
HETATM    8  O   UNL     1     -11.061  10.115  68.397  1.00  0.00    -0.328 OA 
HETATM    9  H   UNL     1     -11.298   9.312  68.846  1.00  0.00     0.000 HD 
BRANCH   7  10
HETATM   10  C   UNL     1     -11.996  11.309  70.253  1.00  0.00    -0.379 C  
HETATM   11  H   UNL     1     -12.043  12.819  71.522  1.00  0.00     0.000 HD 
HETATM   12  O   UNL     1     -12.056  12.718  70.577  1.00  0.00    -0.367 OA 
BRANCH  10  13
HETATM   13  C   UNL     1     -13.143  10.630  71.027  1.00  0.00    -0.286 C  
HETATM   14  O   UNL     1     -13.400  11.447  72.189  1.00  0.00    -0.589 OA 
HETATM   15  H   UNL     1     -14.107  11.029  72.666  1.00  0.00     0.000 HD 
BRANCH  13  16
HETATM   16  C   UNL     1     -12.883   9.179  71.467  1.00  0.00    -0.347 C  
HETATM   17  H   UNL     1     -13.465   8.032  72.946  1.00  0.00     0.000 HD 
HETATM   18  O   UNL     1     -13.625   8.928  72.675  1.00  0.00    -0.439 OA 
BRANCH  16  19
HETATM   19  C   UNL     1     -11.398   8.874  71.695  1.00  0.00    -0.337 C  
BRANCH  19  20
HETATM   20  O   UNL     1     -11.204   7.462  71.534  1.00  0.00    -0.239 OA 
HETATM   21  S   UNL     1     -10.195   6.997  70.346  1.00  0.00    -0.198 S  
HETATM   22  C   UNL     1     -10.321   5.244  70.609  1.00  0.00    -0.254 C  
HETATM   23  O   UNL     1      -8.855   7.428  70.687  1.00  0.00    -0.148 OA 
HETATM   24  O   UNL     1     -10.810   7.321  69.075  1.00  0.00    -0.195 OA 
ENDBRANCH  19  20
ENDBRANCH  16  19
ENDBRANCH  13  16
ENDBRANCH  10  13
ENDBRANCH   7  10
ENDBRANCH   6   7
ENDBRANCH   3   6
TORSDOF 7
ENDMDL
MODEL      100
REMARK 921   NORMALIZED FREE ENERGY PREDICTED BY IDOCK:   -4.50 KCAL/MOL
REMARK 922        TOTAL FREE ENERGY PREDICTED BY IDOCK:   -7.59 KCAL/MOL
REMARK 923 INTER-LIGAND FREE ENERGY PREDICTED BY IDOCK:   -6.87 KCAL/MOL
REMARK 924 INTRA-LIGAND FREE ENERGY PREDICTED BY IDOCK:   -0.72 KCAL/MOL
REMARK 927      BINDING AFFINITY PREDICTED BY RF-SCORE:    0.00 PKD
ROOT
HETATM    1  C   UNL     1      -8.994   7.001  66.476  1.00  0.00    -0.147 C  
HETATM    2  S   UNL     1      -9.419   8.497  67.331  1.00  0.00    -0.157 S  
HETATM    3  O   UNL     1      -9.979   9.378  66.067  1.00  0.00    -0.293 OA 
HETATM    4  O   UNL     1     -10.528   8.220  68.218  1.00  0.00    -0.205 OA 
HETATM    5  O   UNL     1      -8.198   9.120  67.801  1.00  0.00    -0.108 OA 
ENDROOT
BRANCH   3   6
HETATM    6  C   UNL     1     -10.441  10.684  66.426  1.00  0.00    -0.213 C  
BRANCH   6   7
HETATM    7  C   UNL     1      -9.745  11.784  65.618  1.00  0.00    -0.233 C  
HETATM    8  O   UNL     1      -8.584  11.237  64.963  1.00  0.00    -0.382 OA 
HETATM    9  H   UNL     1      -8.152  11.919  64.461  1.00  0.00     0.000 HD 
BRANCH   7  10
HETATM   10  C   UNL     1     -10.655  12.352  64.508  1.00  0.00    -0.322 C  
HETATM   11  H   UNL     1     -11.125  11.849  62.659  1.00  0.00     0.000 HD 
HETATM   12  O   UNL     1     -10.565  11.499  63.342  1.00  0.00    -0.381 OA 
BRANCH  10  13
HETATM   13  C   UNL     1     -12.152  12.474  64.850  1.00  0.00    -0.440 C  
HETATM   14  O   UNL     1     -12.881  12.005  63.696  1.00  0.00    -0.713 OA 
HETATM   15  H   UNL     1     -13.804  12.080  63.907  1.00  0.00     0.000 HD 
BRANCH  13  16
HETATM   16  C   UNL     1     -12.638  13.885  65.225  1.00  0.00    -0.478 C  
HETATM   17  H   UNL     1     -12.947  15.567  64.268  1.00  0.00     0.000 HD 
HETATM   18  O   UNL     1     -12.647  14.696  64.036  1.00  0.00    -0.819 OA 
BRANCH  16  19
HETATM   19  C   UNL     1     -11.777  14.552  66.304  1.00  0.00    -0.358 C  
BRANCH  19  20
HETATM   20  O   UNL     1     -12.134  13.985  67.572  1.00  0.00    -0.391 OA 
HETATM   21  S   UNL     1     -11.365  14.578  68.876  1.00  0.00    -0.292 S  
HETATM   22  C   UNL     1     -12.173  13.571  70.098  1.00  0.00    -0.330 C  
HETATM   23  O   UNL     1     -11.771  15.956  69.061  1.00  0.00    -0.385 OA 
HETATM   24  O   UNL     1      -9.973  14.187  68.800  1.00  0.00    -0.228 OA 
ENDBRANCH  19  20
ENDBRANCH  16  19
ENDBRANCH  13  16
ENDBRANCH  10  13
ENDBRANCH   7  10
ENDBRANCH   6   7
ENDBRANCH   3   6
TORSDOF 7
ENDMDL
MODEL      101
REMARK 921   NORMALIZED FREE ENERGY PREDICTED BY IDOCK:   -4.50 KCAL/MOL
REMARK 922        TOTAL FREE ENERGY PREDICTED BY IDOCK:   -7.58 KCAL/MOL
REMARK 923 INTER-LIGAND FREE ENERGY PREDICTED BY IDOCK:   -6.73 KCAL/MOL
REMARK 924 INTRA-LIGAND FREE ENERGY PREDICTED BY IDOCK:   -0.85 KCAL/MOL
REMARK 927      BINDING AFFINITY PREDICTED BY RF-SCORE:    0.00 PKD
ROOT
HETATM    1  C   UNL     1     -12.398  12.493  64.469  1.00  0.00    -0.467 C  
HETATM    2  S   UNL     1     -11.227  12.244  65.780  1.00  0.00    -0.350 S  
HETATM    3  O   UNL     1     -12.248  12.281  67.062  1.00  0.00    -0.522 OA 
HETATM    4  O   UNL     1     -10.689  10.906  65.666  1.00  0.00    -0.206 OA 
HETATM    5  O   UNL     1     -10.371  13.411  65.858  1.00  0.00    -0.279 OA 
ENDROOT
BRANCH   3   6
HETATM    6  C   UNL     1     -11.605  12.083  68.325  1.00  0.00    -0.334 C  
BRANCH   6   7
HETATM    7  C   UNL     1     -12.114  10.827  69.039  1.00  0.00    -0.098 C  
HETATM    8  O   UNL     1     -11.312   9.694  68.650  1.00  0.00    -0.480 OA 
HETATM    9  H   UNL     1     -11.627   8.915  69.094  1.00  0.00     0.000 HD 
BRANCH   7  10
HETATM   10  C   UNL     1     -11.999  10.946  70.574  1.00  0.00    -0.371 C  
HETATM   11  H   UNL     1     -12.455  12.303  71.932  1.00  0.00     0.000 HD 
HETATM   12  O   UNL     1     -12.525  12.230  70.987  1.00  0.00    -0.370 OA 
BRANCH  10  13
HETATM   13  C   UNL     1     -12.746   9.880  71.398  1.00  0.00    -0.403 C  
HETATM   14  O   UNL     1     -13.524  10.587  72.386  1.00  0.00    -0.606 OA 
HETATM   15  H   UNL     1     -13.984   9.930  72.894  1.00  0.00     0.000 HD 
BRANCH  13  16
HETATM   16  C   UNL     1     -11.858   8.835  72.096  1.00  0.00    -0.366 C  
HETATM   17  H   UNL     1      -9.962   8.341  72.045  1.00  0.00     0.000 HD 
HETATM   18  O   UNL     1     -10.510   8.986  71.614  1.00  0.00    -0.310 OA 
BRANCH  16  19
HETATM   19  C   UNL     1     -12.332   7.394  71.873  1.00  0.00    -0.310 C  
BRANCH  19  20
HETATM   20  O   UNL     1     -11.173   6.562  71.726  1.00  0.00    -0.245 OA 
HETATM   21  S   UNL     1     -10.747   5.672  73.018  1.00  0.00    -0.275 S  
HETATM   22  C   UNL     1      -9.334   4.874  72.294  1.00  0.00    -0.138 C  
HETATM   23  O   UNL     1     -11.777   4.681  73.254  1.00  0.00    -0.290 OA 
HETATM   24  O   UNL     1     -10.290   6.570  74.058  1.00  0.00    -0.314 OA 
ENDBRANCH  19  20
ENDBRANCH  16  19
ENDBRANCH  13  16
ENDBRANCH  10  13
ENDBRANCH   7  10
ENDBRANCH   6   7
ENDBRANCH   3   6
TORSDOF 7
ENDMDL
MODEL      102
REMARK 921   NORMALIZED FREE ENERGY PREDICTED BY IDOCK:   -4.50 KCAL/MOL
REMARK 922        TOTAL FREE ENERGY PREDICTED BY IDOCK:   -7.58 KCAL/MOL
REMARK 923 INTER-LIGAND FREE ENERGY PREDICTED BY IDOCK:   -6.91 KCAL/MOL
REMARK 924 INTRA-LIGAND FREE ENERGY PREDICTED BY IDOCK:   -0.68 KCAL/MOL
REMARK 927      BINDING AFFINITY PREDICTED BY RF-SCORE:    0.00 PKD
ROOT
HETATM    1  C   UNL     1     -10.616   7.679  72.878  1.00  0.00    -0.354 C  
HETATM    2  S   UNL     1     -12.106   8.311  72.150  1.00  0.00    -0.386 S  
HETATM    3  O   UNL     1     -11.581   9.802  71.716  1.00  0.00    -0.349 OA 
HETATM    4  O   UNL     1     -12.382   7.558  70.945  1.00  0.00    -0.266 OA 
HETATM    5  O   UNL     1     -13.095   8.473  73.196  1.00  0.00    -0.107 OA 
ENDROOT
BRANCH   3   6
HETATM    6  C   UNL     1     -12.571  10.599  71.057  1.00  0.00    -0.416 C  
BRANCH   6   7
HETATM    7  C   UNL     1     -12.010  11.307  69.821  1.00  0.00    -0.360 C  
HETATM    8  O   UNL     1     -12.498  10.657  68.631  1.00  0.00    -0.788 OA 
HETATM    9  H   UNL     1     -12.150  11.097  67.864  1.00  0.00     0.000 HD 
BRANCH   7  10
HETATM   10  C   UNL     1     -12.464  12.781  69.740  1.00  0.00     0.112 C  
HETATM   11  H   UNL     1     -12.992  14.178  71.030  1.00  0.00     0.000 HD 
HETATM   12  O   UNL     1     -12.712  13.271  71.079  1.00  0.00    -0.340 OA 
BRANCH  10  13
HETATM   13  C   UNL     1     -11.472  13.765  69.089  1.00  0.00    -0.298 C  
HETATM   14  O   UNL     1     -12.256  14.678  68.293  1.00  0.00    -0.582 OA 
HETATM   15  H   UNL     1     -11.645  15.284  67.891  1.00  0.00     0.000 HD 
BRANCH  13  16
HETATM   16  C   UNL     1     -10.379  13.127  68.214  1.00  0.00    -0.252 C  
HETATM   17  H   UNL     1      -8.568  13.617  67.648  1.00  0.00     0.000 HD 
HETATM   18  O   UNL     1      -9.243  14.011  68.187  1.00  0.00    -0.184 OA 
BRANCH  16  19
HETATM   19  C   UNL     1     -10.845  12.834  66.784  1.00  0.00    -0.264 C  
BRANCH  19  20
HETATM   20  O   UNL     1     -10.875  14.073  66.063  1.00  0.00    -0.290 OA 
HETATM   21  S   UNL     1     -11.898  14.157  64.802  1.00  0.00    -0.440 S  
HETATM   22  C   UNL     1     -11.540  15.831  64.324  1.00  0.00    -0.191 C  
HETATM   23  O   UNL     1     -13.255  14.092  65.306  1.00  0.00    -0.760 OA 
HETATM   24  O   UNL     1     -11.417  13.266  63.766  1.00  0.00    -0.390 OA 
ENDBRANCH  19  20
ENDBRANCH  16  19
ENDBRANCH  13  16
ENDBRANCH  10  13
ENDBRANCH   7  10
ENDBRANCH   6   7
ENDBRANCH   3   6
TORSDOF 7
ENDMDL
MODEL      103
REMARK 921   NORMALIZED FREE ENERGY PREDICTED BY IDOCK:   -4.49 KCAL/MOL
REMARK 922        TOTAL FREE ENERGY PREDICTED BY IDOCK:   -7.57 KCAL/MOL
REMARK 923 INTER-LIGAND FREE ENERGY PREDICTED BY IDOCK:   -6.45 KCAL/MOL
REMARK 924 INTRA-LIGAND FREE ENERGY PREDICTED BY IDOCK:   -1.11 KCAL/MOL
REMARK 927      BINDING AFFINITY PREDICTED BY RF-SCORE:    0.00 PKD
ROOT
HETATM    1  C   UNL     1      -6.832  12.771  68.770  1.00  0.00    -0.096 C  
HETATM    2  S   UNL     1      -7.744  14.263  68.465  1.00  0.00    -0.142 S  
HETATM    3  O   UNL     1      -9.248  13.629  68.308  1.00  0.00    -0.196 OA 
HETATM    4  O   UNL     1      -7.716  15.072  69.664  1.00  0.00    -0.196 OA 
HETATM    5  O   UNL     1      -7.346  14.789  67.175  1.00  0.00    -0.166 OA 
ENDROOT
BRANCH   3   6
HETATM    6  C   UNL     1     -10.269  14.603  68.065  1.00  0.00    -0.231 C  
BRANCH   6   7
HETATM    7  C   UNL     1     -11.631  13.956  67.797  1.00  0.00    -0.347 C  
HETATM    8  O   UNL     1     -12.604  14.486  68.718  1.00  0.00    -0.555 OA 
HETATM    9  H   UNL     1     -13.450  14.084  68.551  1.00  0.00     0.000 HD 
BRANCH   7  10
HETATM   10  C   UNL     1     -12.150  14.264  66.376  1.00  0.00    -0.419 C  
HETATM   11  H   UNL     1     -11.513  15.304  64.825  1.00  0.00     0.000 HD 
HETATM   12  O   UNL     1     -11.194  15.114  65.699  1.00  0.00    -0.336 OA 
BRANCH  10  13
HETATM   13  C   UNL     1     -12.384  13.049  65.458  1.00  0.00    -0.472 C  
HETATM   14  O   UNL     1     -11.989  11.881  66.207  1.00  0.00    -0.554 OA 
HETATM   15  H   UNL     1     -12.133  11.132  65.641  1.00  0.00     0.000 HD 
BRANCH  13  16
HETATM   16  C   UNL     1     -11.637  13.075  64.114  1.00  0.00    -0.407 C  
HETATM   17  H   UNL     1     -12.088  13.533  62.262  1.00  0.00     0.000 HD 
HETATM   18  O   UNL     1     -12.550  13.516  63.092  1.00  0.00    -0.762 OA 
BRANCH  16  19
HETATM   19  C   UNL     1     -11.039  11.717  63.728  1.00  0.00    -0.436 C  
BRANCH  19  20
HETATM   20  O   UNL     1      -9.769  11.588  64.380  1.00  0.00    -0.234 OA 
HETATM   21  S   UNL     1      -9.282  10.077  64.733  1.00  0.00    -0.270 S  
HETATM   22  C   UNL     1      -7.725  10.503  65.476  1.00  0.00    -0.127 C  
HETATM   23  O   UNL     1      -9.034   9.373  63.492  1.00  0.00    -0.220 OA 
HETATM   24  O   UNL     1     -10.156   9.547  65.760  1.00  0.00    -0.288 OA 
ENDBRANCH  19  20
ENDBRANCH  16  19
ENDBRANCH  13  16
ENDBRANCH  10  13
ENDBRANCH   7  10
ENDBRANCH   6   7
ENDBRANCH   3   6
TORSDOF 7
ENDMDL
MODEL      104
REMARK 921   NORMALIZED FREE ENERGY PREDICTED BY IDOCK:   -4.46 KCAL/MOL
REMARK 922        TOTAL FREE ENERGY PREDICTED BY IDOCK:   -7.52 KCAL/MOL
REMARK 923 INTER-LIGAND FREE ENERGY PREDICTED BY IDOCK:   -7.01 KCAL/MOL
REMARK 924 INTRA-LIGAND FREE ENERGY PREDICTED BY IDOCK:   -0.52 KCAL/MOL
REMARK 927      BINDING AFFINITY PREDICTED BY RF-SCORE:    0.00 PKD
ROOT
HETATM    1  C   UNL     1     -12.642  11.874  63.357  1.00  0.00    -0.431 C  
HETATM    2  S   UNL     1     -11.972  13.223  64.296  1.00  0.00    -0.439 S  
HETATM    3  O   UNL     1     -12.352  12.713  65.806  1.00  0.00    -0.594 OA 
HETATM    4  O   UNL     1     -10.531  13.205  64.160  1.00  0.00    -0.421 OA 
HETATM    5  O   UNL     1     -12.753  14.410  64.016  1.00  0.00    -0.739 OA 
ENDROOT
BRANCH   3   6
HETATM    6  C   UNL     1     -11.919  13.596  66.846  1.00  0.00    -0.410 C  
BRANCH   6   7
HETATM    7  C   UNL     1     -10.602  13.137  67.480  1.00  0.00    -0.235 C  
HETATM    8  O   UNL     1      -9.813  14.289  67.837  1.00  0.00    -0.218 OA 
HETATM    9  H   UNL     1      -8.996  14.003  68.230  1.00  0.00     0.000 HD 
BRANCH   7  10
HETATM   10  C   UNL     1     -10.832  12.336  68.780  1.00  0.00    -0.229 C  
HETATM   11  H   UNL     1     -12.083  12.427  70.303  1.00  0.00     0.000 HD 
HETATM   12  O   UNL     1     -11.941  12.920  69.503  1.00  0.00    -0.312 OA 
BRANCH  10  13
HETATM   13  C   UNL     1     -11.158  10.840  68.610  1.00  0.00    -0.259 C  
HETATM   14  O   UNL     1     -12.523  10.660  69.040  1.00  0.00    -0.777 OA 
HETATM   15  H   UNL     1     -12.724   9.738  68.935  1.00  0.00     0.000 HD 
BRANCH  13  16
HETATM   16  C   UNL     1     -10.245   9.868  69.378  1.00  0.00    -0.216 C  
HETATM   17  H   UNL     1      -9.487   8.091  69.046  1.00  0.00     0.000 HD 
HETATM   18  O   UNL     1     -10.051   8.690  68.572  1.00  0.00    -0.180 OA 
BRANCH  16  19
HETATM   19  C   UNL     1     -10.801   9.474  70.751  1.00  0.00    -0.318 C  
BRANCH  19  20
HETATM   20  O   UNL     1     -10.073   8.329  71.214  1.00  0.00    -0.186 OA 
HETATM   21  S   UNL     1     -10.948   7.130  71.878  1.00  0.00    -0.236 S  
HETATM   22  C   UNL     1      -9.599   6.030  72.237  1.00  0.00    -0.150 C  
HETATM   23  O   UNL     1     -11.775   6.539  70.845  1.00  0.00    -0.346 OA 
HETATM   24  O   UNL     1     -11.501   7.609  73.128  1.00  0.00    -0.314 OA 
ENDBRANCH  19  20
ENDBRANCH  16  19
ENDBRANCH  13  16
ENDBRANCH  10  13
ENDBRANCH   7  10
ENDBRANCH   6   7
ENDBRANCH   3   6
TORSDOF 7
ENDMDL
MODEL      105
REMARK 921   NORMALIZED FREE ENERGY PREDICTED BY IDOCK:   -4.45 KCAL/MOL
REMARK 922        TOTAL FREE ENERGY PREDICTED BY IDOCK:   -7.52 KCAL/MOL
REMARK 923 INTER-LIGAND FREE ENERGY PREDICTED BY IDOCK:   -6.77 KCAL/MOL
REMARK 924 INTRA-LIGAND FREE ENERGY PREDICTED BY IDOCK:   -0.75 KCAL/MOL
REMARK 927      BINDING AFFINITY PREDICTED BY RF-SCORE:    0.00 PKD
ROOT
HETATM    1  C   UNL     1      -8.061  10.483  66.614  1.00  0.00    -0.127 C  
HETATM    2  S   UNL     1      -9.450  10.591  67.713  1.00  0.00    -0.150 S  
HETATM    3  O   UNL     1     -10.351  11.691  66.898  1.00  0.00    -0.210 OA 
HETATM    4  O   UNL     1     -10.151   9.325  67.693  1.00  0.00    -0.187 OA 
HETATM    5  O   UNL     1      -9.010  11.204  68.951  1.00  0.00    -0.156 OA 
ENDROOT
BRANCH   3   6
HETATM    6  C   UNL     1     -11.599  12.003  67.526  1.00  0.00    -0.330 C  
BRANCH   6   7
HETATM    7  C   UNL     1     -12.344  13.127  66.800  1.00  0.00    -0.108 C  
HETATM    8  O   UNL     1     -11.904  14.402  67.308  1.00  0.00    -0.384 OA 
HETATM    9  H   UNL     1     -12.367  15.099  66.857  1.00  0.00     0.000 HD 
BRANCH   7  10
HETATM   10  C   UNL     1     -12.056  13.130  65.283  1.00  0.00    -0.429 C  
HETATM   11  H   UNL     1     -12.793  12.220  63.695  1.00  0.00     0.000 HD 
HETATM   12  O   UNL     1     -12.970  12.218  64.629  1.00  0.00    -0.741 OA 
BRANCH  10  13
HETATM   13  C   UNL     1     -12.197  14.485  64.565  1.00  0.00    -0.465 C  
HETATM   14  O   UNL     1     -12.616  14.199  63.215  1.00  0.00    -1.080 OA 
HETATM   15  H   UNL     1     -12.703  15.034  62.772  1.00  0.00     0.000 HD 
BRANCH  13  16
HETATM   16  C   UNL     1     -10.930  15.359  64.536  1.00  0.00    -0.203 C  
HETATM   17  H   UNL     1      -9.173  15.317  65.402  1.00  0.00     0.000 HD 
HETATM   18  O   UNL     1      -9.955  14.778  65.421  1.00  0.00    -0.357 OA 
BRANCH  16  19
HETATM   19  C   UNL     1     -11.192  16.816  64.933  1.00  0.00     0.022 C  
BRANCH  19  20
HETATM   20  O   UNL     1     -10.732  16.999  66.279  1.00  0.00    -0.223 OA 
HETATM   21  S   UNL     1      -9.844  18.331  66.569  1.00  0.00    -0.371 S  
HETATM   22  C   UNL     1      -9.579  18.058  68.305  1.00  0.00    -0.318 C  
HETATM   23  O   UNL     1     -10.691  19.494  66.400  1.00  0.00    -0.448 OA 
HETATM   24  O   UNL     1      -8.578  18.192  65.879  1.00  0.00    -0.507 OA 
ENDBRANCH  19  20
ENDBRANCH  16  19
ENDBRANCH  13  16
ENDBRANCH  10  13
ENDBRANCH   7  10
ENDBRANCH   6   7
ENDBRANCH   3   6
TORSDOF 7
ENDMDL
MODEL      106
REMARK 921   NORMALIZED FREE ENERGY PREDICTED BY IDOCK:   -4.44 KCAL/MOL
REMARK 922        TOTAL FREE ENERGY PREDICTED BY IDOCK:   -7.51 KCAL/MOL
REMARK 923 INTER-LIGAND FREE ENERGY PREDICTED BY IDOCK:   -6.56 KCAL/MOL
REMARK 924 INTRA-LIGAND FREE ENERGY PREDICTED BY IDOCK:   -0.94 KCAL/MOL
REMARK 927      BINDING AFFINITY PREDICTED BY RF-SCORE:    0.00 PKD
ROOT
HETATM    1  C   UNL     1     -10.168   9.807  66.126  1.00  0.00    -0.208 C  
HETATM    2  S   UNL     1     -10.756  11.318  66.849  1.00  0.00    -0.284 S  
HETATM    3  O   UNL     1     -11.422  12.009  65.520  1.00  0.00    -0.345 OA 
HETATM    4  O   UNL     1     -11.819  10.999  67.777  1.00  0.00    -0.605 OA 
HETATM    5  O   UNL     1      -9.611  12.116  67.240  1.00  0.00    -0.181 OA 
ENDROOT
BRANCH   3   6
HETATM    6  C   UNL     1     -12.028  13.282  65.767  1.00  0.00    -0.417 C  
BRANCH   6   7
HETATM    7  C   UNL     1     -10.987  14.377  66.015  1.00  0.00    -0.316 C  
HETATM    8  O   UNL     1     -11.087  15.379  64.984  1.00  0.00    -0.388 OA 
HETATM    9  H   UNL     1     -10.441  16.058  65.138  1.00  0.00     0.000 HD 
BRANCH   7  10
HETATM   10  C   UNL     1     -11.214  15.100  67.361  1.00  0.00    -0.323 C  
HETATM   11  H   UNL     1     -12.301  14.786  68.977  1.00  0.00     0.000 HD 
HETATM   12  O   UNL     1     -12.161  14.341  68.149  1.00  0.00    -0.323 OA 
BRANCH  10  13
HETATM   13  C   UNL     1      -9.969  15.303  68.244  1.00  0.00    -0.222 C  
HETATM   14  O   UNL     1      -9.928  14.194  69.166  1.00  0.00    -0.412 OA 
HETATM   15  H   UNL     1      -9.160  14.319  69.710  1.00  0.00     0.000 HD 
BRANCH  13  16
HETATM   16  C   UNL     1      -9.917  16.626  69.029  1.00  0.00    -0.280 C  
HETATM   17  H   UNL     1     -10.510  17.238  70.794  1.00  0.00     0.000 HD 
HETATM   18  O   UNL     1     -10.543  16.422  70.309  1.00  0.00    -0.208 OA 
BRANCH  16  19
HETATM   19  C   UNL     1     -10.594  17.789  68.297  1.00  0.00    -0.319 C  
BRANCH  19  20
HETATM   20  O   UNL     1      -9.569  18.615  67.728  1.00  0.00    -0.292 OA 
HETATM   21  S   UNL     1      -9.426  18.584  66.108  1.00  0.00    -0.061 S  
HETATM   22  C   UNL     1      -8.084  19.741  65.972  1.00  0.00    -0.322 C  
HETATM   23  O   UNL     1     -10.616  19.174  65.530  1.00  0.00    -0.536 OA 
HETATM   24  O   UNL     1      -8.949  17.273  65.719  1.00  0.00    -0.521 OA 
ENDBRANCH  19  20
ENDBRANCH  16  19
ENDBRANCH  13  16
ENDBRANCH  10  13
ENDBRANCH   7  10
ENDBRANCH   6   7
ENDBRANCH   3   6
TORSDOF 7
ENDMDL
MODEL      107
REMARK 921   NORMALIZED FREE ENERGY PREDICTED BY IDOCK:   -4.44 KCAL/MOL
REMARK 922        TOTAL FREE ENERGY PREDICTED BY IDOCK:   -7.50 KCAL/MOL
REMARK 923 INTER-LIGAND FREE ENERGY PREDICTED BY IDOCK:   -6.66 KCAL/MOL
REMARK 924 INTRA-LIGAND FREE ENERGY PREDICTED BY IDOCK:   -0.84 KCAL/MOL
REMARK 927      BINDING AFFINITY PREDICTED BY RF-SCORE:    0.00 PKD
ROOT
HETATM    1  C   UNL     1     -12.226  12.577  70.308  1.00  0.00    -0.267 C  
HETATM    2  S   UNL     1     -11.522  12.536  68.679  1.00  0.00    -0.329 S  
HETATM    3  O   UNL     1     -12.136  13.936  68.086  1.00  0.00    -0.365 OA 
HETATM    4  O   UNL     1     -10.087  12.684  68.795  1.00  0.00    -0.165 OA 
HETATM    5  O   UNL     1     -12.123  11.440  67.947  1.00  0.00    -0.646 OA 
ENDROOT
BRANCH   3   6
HETATM    6  C   UNL     1     -11.732  14.228  66.745  1.00  0.00    -0.405 C  
BRANCH   6   7
HETATM    7  C   UNL     1     -12.749  13.728  65.715  1.00  0.00    -0.446 C  
HETATM    8  O   UNL     1     -13.036  14.780  64.772  1.00  0.00    -0.400 OA 
HETATM    9  H   UNL     1     -13.667  14.469  64.133  1.00  0.00     0.000 HD 
BRANCH   7  10
HETATM   10  C   UNL     1     -12.208  12.535  64.898  1.00  0.00    -0.470 C  
HETATM   11  H   UNL     1     -12.962  11.217  63.637  1.00  0.00     0.000 HD 
HETATM   12  O   UNL     1     -13.295  11.951  64.140  1.00  0.00    -0.652 OA 
BRANCH  10  13
HETATM   13  C   UNL     1     -11.089  12.852  63.888  1.00  0.00    -0.411 C  
HETATM   14  O   UNL     1     -11.712  12.932  62.589  1.00  0.00    -0.548 OA 
HETATM   15  H   UNL     1     -11.022  13.128  61.966  1.00  0.00     0.000 HD 
BRANCH  13  16
HETATM   16  C   UNL     1      -9.929  11.842  63.839  1.00  0.00    -0.329 C  
HETATM   17  H   UNL     1      -9.662  10.040  63.118  1.00  0.00     0.000 HD 
HETATM   18  O   UNL     1     -10.379  10.662  63.148  1.00  0.00    -0.185 OA 
BRANCH  16  19
HETATM   19  C   UNL     1      -9.400  11.463  65.227  1.00  0.00    -0.171 C  
BRANCH  19  20
HETATM   20  O   UNL     1      -9.964  10.195  65.587  1.00  0.00    -0.257 OA 
HETATM   21  S   UNL     1      -9.001   9.180  66.417  1.00  0.00    -0.159 S  
HETATM   22  C   UNL     1     -10.165   7.848  66.592  1.00  0.00    -0.233 C  
HETATM   23  O   UNL     1      -8.744   9.754  67.722  1.00  0.00    -0.128 OA 
HETATM   24  O   UNL     1      -7.932   8.749  65.540  1.00  0.00    -0.094 OA 
ENDBRANCH  19  20
ENDBRANCH  16  19
ENDBRANCH  13  16
ENDBRANCH  10  13
ENDBRANCH   7  10
ENDBRANCH   6   7
ENDBRANCH   3   6
TORSDOF 7
ENDMDL
MODEL      108
REMARK 921   NORMALIZED FREE ENERGY PREDICTED BY IDOCK:   -4.44 KCAL/MOL
REMARK 922        TOTAL FREE ENERGY PREDICTED BY IDOCK:   -7.50 KCAL/MOL
REMARK 923 INTER-LIGAND FREE ENERGY PREDICTED BY IDOCK:   -6.05 KCAL/MOL
REMARK 924 INTRA-LIGAND FREE ENERGY PREDICTED BY IDOCK:   -1.44 KCAL/MOL
REMARK 927      BINDING AFFINITY PREDICTED BY RF-SCORE:    0.00 PKD
ROOT
HETATM    1  C   UNL     1     -11.898  15.347  69.958  1.00  0.00    -0.343 C  
HETATM    2  S   UNL     1     -11.054  15.141  68.411  1.00  0.00    -0.297 S  
HETATM    3  O   UNL     1     -12.261  14.460  67.536  1.00  0.00    -0.342 OA 
HETATM    4  O   UNL     1     -10.777  16.451  67.862  1.00  0.00    -0.316 OA 
HETATM    5  O   UNL     1     -10.014  14.148  68.585  1.00  0.00    -0.232 OA 
ENDROOT
BRANCH   3   6
HETATM    6  C   UNL     1     -11.907  14.173  66.179  1.00  0.00    -0.407 C  
BRANCH   6   7
HETATM    7  C   UNL     1     -12.290  12.747  65.773  1.00  0.00    -0.323 C  
HETATM    8  O   UNL     1     -12.803  12.752  64.426  1.00  0.00    -0.700 OA 
HETATM    9  H   UNL     1     -13.041  11.867  64.174  1.00  0.00     0.000 HD 
BRANCH   7  10
HETATM   10  C   UNL     1     -11.075  11.794  65.783  1.00  0.00    -0.297 C  
HETATM   11  H   UNL     1      -9.112  11.994  65.769  1.00  0.00     0.000 HD 
HETATM   12  O   UNL     1      -9.860  12.581  65.764  1.00  0.00    -0.259 OA 
BRANCH  10  13
HETATM   13  C   UNL     1     -10.965  10.843  66.990  1.00  0.00    -0.247 C  
HETATM   14  O   UNL     1     -11.933  11.291  67.961  1.00  0.00    -0.621 OA 
HETATM   15  H   UNL     1     -11.865  10.705  68.705  1.00  0.00     0.000 HD 
BRANCH  13  16
HETATM   16  C   UNL     1      -9.576  10.762  67.649  1.00  0.00    -0.158 C  
HETATM   17  H   UNL     1      -7.965   9.674  67.403  1.00  0.00     0.000 HD 
HETATM   18  O   UNL     1      -8.822   9.723  66.996  1.00  0.00    -0.133 OA 
BRANCH  16  19
HETATM   19  C   UNL     1      -9.638  10.492  69.156  1.00  0.00    -0.199 C  
BRANCH  19  20
HETATM   20  O   UNL     1     -10.308   9.240  69.357  1.00  0.00    -0.201 OA 
HETATM   21  S   UNL     1     -11.263   9.128  70.668  1.00  0.00    -0.281 S  
HETATM   22  C   UNL     1     -11.812   7.457  70.413  1.00  0.00    -0.083 C  
HETATM   23  O   UNL     1     -12.389  10.024  70.495  1.00  0.00    -0.264 OA 
HETATM   24  O   UNL     1     -10.423   9.166  71.848  1.00  0.00    -0.348 OA 
ENDBRANCH  19  20
ENDBRANCH  16  19
ENDBRANCH  13  16
ENDBRANCH  10  13
ENDBRANCH   7  10
ENDBRANCH   6   7
ENDBRANCH   3   6
TORSDOF 7
ENDMDL
MODEL      109
REMARK 921   NORMALIZED FREE ENERGY PREDICTED BY IDOCK:   -4.40 KCAL/MOL
REMARK 922        TOTAL FREE ENERGY PREDICTED BY IDOCK:   -7.44 KCAL/MOL
REMARK 923 INTER-LIGAND FREE ENERGY PREDICTED BY IDOCK:   -6.61 KCAL/MOL
REMARK 924 INTRA-LIGAND FREE ENERGY PREDICTED BY IDOCK:   -0.83 KCAL/MOL
REMARK 927      BINDING AFFINITY PREDICTED BY RF-SCORE:    0.00 PKD
ROOT
HETATM    1  C   UNL     1      -8.315   8.927  67.881  1.00  0.00    -0.118 C  
HETATM    2  S   UNL     1      -9.369   9.125  66.468  1.00  0.00    -0.208 S  
HETATM    3  O   UNL     1      -9.381  10.761  66.369  1.00  0.00    -0.167 OA 
HETATM    4  O   UNL     1      -8.681   8.606  65.305  1.00  0.00    -0.183 OA 
HETATM    5  O   UNL     1     -10.704   8.690  66.826  1.00  0.00    -0.221 OA 
ENDROOT
BRANCH   3   6
HETATM    6  C   UNL     1     -10.155  11.274  65.280  1.00  0.00    -0.267 C  
BRANCH   6   7
HETATM    7  C   UNL     1     -11.535  11.760  65.732  1.00  0.00    -0.194 C  
HETATM    8  O   UNL     1     -11.715  11.464  67.131  1.00  0.00    -0.556 OA 
HETATM    9  H   UNL     1     -12.572  11.766  67.411  1.00  0.00     0.000 HD 
BRANCH   7  10
HETATM   10  C   UNL     1     -11.692  13.289  65.578  1.00  0.00    -0.346 C  
HETATM   11  H   UNL     1     -13.184  14.539  65.258  1.00  0.00     0.000 HD 
HETATM   12  O   UNL     1     -13.087  13.599  65.352  1.00  0.00    -0.704 OA 
BRANCH  10  13
HETATM   13  C   UNL     1     -11.239  14.144  66.776  1.00  0.00    -0.323 C  
HETATM   14  O   UNL     1     -12.398  14.330  67.616  1.00  0.00    -0.598 OA 
HETATM   15  H   UNL     1     -12.119  14.857  68.354  1.00  0.00     0.000 HD 
BRANCH  13  16
HETATM   16  C   UNL     1     -10.634  15.515  66.426  1.00  0.00    -0.311 C  
HETATM   17  H   UNL     1      -9.198  16.161  65.259  1.00  0.00     0.000 HD 
HETATM   18  O   UNL     1      -9.571  15.315  65.475  1.00  0.00    -0.317 OA 
BRANCH  16  19
HETATM   19  C   UNL     1     -10.104  16.272  67.648  1.00  0.00    -0.260 C  
BRANCH  19  20
HETATM   20  O   UNL     1     -10.266  17.676  67.407  1.00  0.00    -0.319 OA 
HETATM   21  S   UNL     1      -8.904  18.549  67.247  1.00  0.00    -0.274 S  
HETATM   22  C   UNL     1      -9.671  20.127  66.965  1.00  0.00    -0.437 C  
HETATM   23  O   UNL     1      -8.231  18.131  66.034  1.00  0.00    -0.482 OA 
HETATM   24  O   UNL     1      -8.231  18.582  68.529  1.00  0.00    -0.324 OA 
ENDBRANCH  19  20
ENDBRANCH  16  19
ENDBRANCH  13  16
ENDBRANCH  10  13
ENDBRANCH   7  10
ENDBRANCH   6   7
ENDBRANCH   3   6
TORSDOF 7
ENDMDL
MODEL      110
REMARK 921   NORMALIZED FREE ENERGY PREDICTED BY IDOCK:   -4.40 KCAL/MOL
REMARK 922        TOTAL FREE ENERGY PREDICTED BY IDOCK:   -7.44 KCAL/MOL
REMARK 923 INTER-LIGAND FREE ENERGY PREDICTED BY IDOCK:   -6.15 KCAL/MOL
REMARK 924 INTRA-LIGAND FREE ENERGY PREDICTED BY IDOCK:   -1.29 KCAL/MOL
REMARK 927      BINDING AFFINITY PREDICTED BY RF-SCORE:    0.00 PKD
ROOT
HETATM    1  C   UNL     1      -7.434  19.842  67.925  1.00  0.00    -0.293 C  
HETATM    2  S   UNL     1      -8.444  18.613  67.139  1.00  0.00    -0.271 S  
HETATM    3  O   UNL     1      -9.672  18.544  68.222  1.00  0.00    -0.319 OA 
HETATM    4  O   UNL     1      -8.959  19.164  65.904  1.00  0.00    -0.441 OA 
HETATM    5  O   UNL     1      -7.741  17.346  67.180  1.00  0.00    -0.191 OA 
ENDROOT
BRANCH   3   6
HETATM    6  C   UNL     1     -10.711  17.626  67.868  1.00  0.00    -0.337 C  
BRANCH   6   7
HETATM    7  C   UNL     1     -10.662  16.347  68.710  1.00  0.00    -0.321 C  
HETATM    8  O   UNL     1     -11.892  16.210  69.449  1.00  0.00    -0.279 OA 
HETATM    9  H   UNL     1     -11.861  15.417  69.971  1.00  0.00     0.000 HD 
BRANCH   7  10
HETATM   10  C   UNL     1     -10.526  15.081  67.836  1.00  0.00    -0.247 C  
HETATM   11  H   UNL     1      -9.665  13.316  68.016  1.00  0.00     0.000 HD 
HETATM   12  O   UNL     1      -9.748  14.095  68.554  1.00  0.00    -0.219 OA 
BRANCH  10  13
HETATM   13  C   UNL     1     -11.841  14.392  67.426  1.00  0.00    -0.400 C  
HETATM   14  O   UNL     1     -12.079  13.345  68.390  1.00  0.00    -0.343 OA 
HETATM   15  H   UNL     1     -12.889  12.919  68.137  1.00  0.00     0.000 HD 
BRANCH  13  16
HETATM   16  C   UNL     1     -11.869  13.799  66.006  1.00  0.00    -0.390 C  
HETATM   17  H   UNL     1     -13.134  13.792  64.509  1.00  0.00     0.000 HD 
HETATM   18  O   UNL     1     -13.117  14.158  65.386  1.00  0.00    -0.743 OA 
BRANCH  16  19
HETATM   19  C   UNL     1     -11.694  12.276  65.984  1.00  0.00    -0.388 C  
BRANCH  19  20
HETATM   20  O   UNL     1     -10.330  11.980  66.310  1.00  0.00    -0.214 OA 
HETATM   21  S   UNL     1     -10.065  10.622  67.166  1.00  0.00    -0.216 S  
HETATM   22  C   UNL     1      -8.295  10.750  67.260  1.00  0.00    -0.124 C  
HETATM   23  O   UNL     1     -10.410   9.484  66.340  1.00  0.00    -0.240 OA 
HETATM   24  O   UNL     1     -10.615  10.807  68.493  1.00  0.00    -0.173 OA 
ENDBRANCH  19  20
ENDBRANCH  16  19
ENDBRANCH  13  16
ENDBRANCH  10  13
ENDBRANCH   7  10
ENDBRANCH   6   7
ENDBRANCH   3   6
TORSDOF 7
ENDMDL
MODEL      111
REMARK 921   NORMALIZED FREE ENERGY PREDICTED BY IDOCK:   -4.39 KCAL/MOL
REMARK 922        TOTAL FREE ENERGY PREDICTED BY IDOCK:   -7.43 KCAL/MOL
REMARK 923 INTER-LIGAND FREE ENERGY PREDICTED BY IDOCK:   -6.64 KCAL/MOL
REMARK 924 INTRA-LIGAND FREE ENERGY PREDICTED BY IDOCK:   -0.80 KCAL/MOL
REMARK 927      BINDING AFFINITY PREDICTED BY RF-SCORE:    0.00 PKD
ROOT
HETATM    1  C   UNL     1     -12.205   8.883  72.227  1.00  0.00    -0.343 C  
HETATM    2  S   UNL     1     -10.808   8.975  71.137  1.00  0.00    -0.325 S  
HETATM    3  O   UNL     1     -11.136  10.402  70.401  1.00  0.00    -0.301 OA 
HETATM    4  O   UNL     1      -9.613   9.141  71.936  1.00  0.00    -0.310 OA 
HETATM    5  O   UNL     1     -10.928   7.924  70.147  1.00  0.00    -0.253 OA 
ENDROOT
BRANCH   3   6
HETATM    6  C   UNL     1     -10.156  10.800  69.437  1.00  0.00    -0.139 C  
BRANCH   6   7
HETATM    7  C   UNL     1     -10.698  10.740  68.005  1.00  0.00    -0.228 C  
HETATM    8  O   UNL     1     -12.119  10.504  68.038  1.00  0.00    -0.697 OA 
HETATM    9  H   UNL     1     -12.455  10.467  67.150  1.00  0.00     0.000 HD 
BRANCH   7  10
HETATM   10  C   UNL     1     -10.486  12.069  67.248  1.00  0.00    -0.218 C  
HETATM   11  H   UNL     1      -9.637  12.619  65.554  1.00  0.00     0.000 HD 
HETATM   12  O   UNL     1      -9.768  11.801  66.020  1.00  0.00    -0.221 OA 
BRANCH  10  13
HETATM   13  C   UNL     1     -11.760  12.839  66.853  1.00  0.00    -0.380 C  
HETATM   14  O   UNL     1     -12.281  12.201  65.669  1.00  0.00    -0.571 OA 
HETATM   15  H   UNL     1     -13.067  12.676  65.425  1.00  0.00     0.000 HD 
BRANCH  13  16
HETATM   16  C   UNL     1     -11.574  14.343  66.587  1.00  0.00    -0.384 C  
HETATM   17  H   UNL     1     -11.428  15.483  64.999  1.00  0.00     0.000 HD 
HETATM   18  O   UNL     1     -11.543  14.554  65.163  1.00  0.00    -0.347 OA 
BRANCH  16  19
HETATM   19  C   UNL     1     -10.305  14.917  67.227  1.00  0.00    -0.251 C  
BRANCH  19  20
HETATM   20  O   UNL     1     -10.611  16.227  67.723  1.00  0.00    -0.298 OA 
HETATM   21  S   UNL     1      -9.686  17.447  67.175  1.00  0.00    -0.277 S  
HETATM   22  C   UNL     1     -10.485  18.762  68.065  1.00  0.00    -0.352 C  
HETATM   23  O   UNL     1      -9.941  17.616  65.759  1.00  0.00    -0.544 OA 
HETATM   24  O   UNL     1      -8.348  17.276  67.702  1.00  0.00    -0.200 OA 
ENDBRANCH  19  20
ENDBRANCH  16  19
ENDBRANCH  13  16
ENDBRANCH  10  13
ENDBRANCH   7  10
ENDBRANCH   6   7
ENDBRANCH   3   6
TORSDOF 7
ENDMDL
MODEL      112
REMARK 921   NORMALIZED FREE ENERGY PREDICTED BY IDOCK:   -4.39 KCAL/MOL
REMARK 922        TOTAL FREE ENERGY PREDICTED BY IDOCK:   -7.43 KCAL/MOL
REMARK 923 INTER-LIGAND FREE ENERGY PREDICTED BY IDOCK:   -6.28 KCAL/MOL
REMARK 924 INTRA-LIGAND FREE ENERGY PREDICTED BY IDOCK:   -1.15 KCAL/MOL
REMARK 927      BINDING AFFINITY PREDICTED BY RF-SCORE:    0.00 PKD
ROOT
HETATM    1  C   UNL     1      -7.884  11.112  67.839  1.00  0.00    -0.111 C  
HETATM    2  S   UNL     1      -9.403  10.916  66.944  1.00  0.00    -0.170 S  
HETATM    3  O   UNL     1     -10.271  12.131  67.619  1.00  0.00    -0.193 OA 
HETATM    4  O   UNL     1      -9.163  11.246  65.556  1.00  0.00    -0.215 OA 
HETATM    5  O   UNL     1     -10.011   9.661  67.340  1.00  0.00    -0.166 OA 
ENDROOT
BRANCH   3   6
HETATM    6  C   UNL     1     -11.592  12.270  67.087  1.00  0.00    -0.353 C  
BRANCH   6   7
HETATM    7  C   UNL     1     -11.904  13.715  66.686  1.00  0.00    -0.409 C  
HETATM    8  O   UNL     1     -12.546  14.391  67.784  1.00  0.00    -0.516 OA 
HETATM    9  H   UNL     1     -12.739  15.288  67.535  1.00  0.00     0.000 HD 
BRANCH   7  10
HETATM   10  C   UNL     1     -10.624  14.515  66.358  1.00  0.00    -0.302 C  
HETATM   11  H   UNL     1      -9.572  14.911  64.737  1.00  0.00     0.000 HD 
HETATM   12  O   UNL     1     -10.359  14.418  64.939  1.00  0.00    -0.421 OA 
BRANCH  10  13
HETATM   13  C   UNL     1     -10.654  16.017  66.699  1.00  0.00    -0.297 C  
HETATM   14  O   UNL     1     -10.151  16.716  65.541  1.00  0.00    -0.553 OA 
HETATM   15  H   UNL     1     -10.169  17.641  65.751  1.00  0.00     0.000 HD 
BRANCH  13  16
HETATM   16  C   UNL     1      -9.848  16.434  67.941  1.00  0.00    -0.238 C  
HETATM   17  H   UNL     1      -9.732  15.844  69.806  1.00  0.00     0.000 HD 
HETATM   18  O   UNL     1     -10.230  15.586  69.040  1.00  0.00    -0.207 OA 
BRANCH  16  19
HETATM   19  C   UNL     1     -10.048  17.905  68.325  1.00  0.00    -0.375 C  
BRANCH  19  20
HETATM   20  O   UNL     1      -8.762  18.539  68.341  1.00  0.00    -0.312 OA 
HETATM   21  S   UNL     1      -8.466  19.616  67.159  1.00  0.00    -0.317 S  
HETATM   22  C   UNL     1      -6.823  20.068  67.663  1.00  0.00    -0.246 C  
HETATM   23  O   UNL     1      -9.344  20.754  67.345  1.00  0.00    -0.392 OA 
HETATM   24  O   UNL     1      -8.386  18.901  65.902  1.00  0.00    -0.483 OA 
ENDBRANCH  19  20
ENDBRANCH  16  19
ENDBRANCH  13  16
ENDBRANCH  10  13
ENDBRANCH   7  10
ENDBRANCH   6   7
ENDBRANCH   3   6
TORSDOF 7
ENDMDL
MODEL      113
REMARK 921   NORMALIZED FREE ENERGY PREDICTED BY IDOCK:   -4.38 KCAL/MOL
REMARK 922        TOTAL FREE ENERGY PREDICTED BY IDOCK:   -7.41 KCAL/MOL
REMARK 923 INTER-LIGAND FREE ENERGY PREDICTED BY IDOCK:   -7.09 KCAL/MOL
REMARK 924 INTRA-LIGAND FREE ENERGY PREDICTED BY IDOCK:   -0.32 KCAL/MOL
REMARK 927      BINDING AFFINITY PREDICTED BY RF-SCORE:    0.00 PKD
ROOT
HETATM    1  C   UNL     1     -12.497   6.866  71.216  1.00  0.00    -0.361 C  
HETATM    2  S   UNL     1     -12.222   8.458  71.951  1.00  0.00    -0.367 S  
HETATM    3  O   UNL     1     -12.030   9.351  70.590  1.00  0.00    -0.256 OA 
HETATM    4  O   UNL     1     -13.444   8.879  72.602  1.00  0.00    -0.435 OA 
HETATM    5  O   UNL     1     -10.953   8.429  72.648  1.00  0.00    -0.353 OA 
ENDROOT
BRANCH   3   6
HETATM    6  C   UNL     1     -11.803  10.743  70.834  1.00  0.00    -0.297 C  
BRANCH   6   7
HETATM    7  C   UNL     1     -11.969  11.585  69.566  1.00  0.00    -0.335 C  
HETATM    8  O   UNL     1     -12.000  12.983  69.917  1.00  0.00    -0.320 OA 
HETATM    9  H   UNL     1     -12.103  13.505  69.130  1.00  0.00     0.000 HD 
BRANCH   7  10
HETATM   10  C   UNL     1     -10.790  11.399  68.586  1.00  0.00    -0.208 C  
HETATM   11  H   UNL     1      -9.058  10.454  68.611  1.00  0.00     0.000 HD 
HETATM   12  O   UNL     1      -9.784  10.569  69.214  1.00  0.00    -0.214 OA 
BRANCH  10  13
HETATM   13  C   UNL     1     -11.125  10.738  67.235  1.00  0.00    -0.270 C  
HETATM   14  O   UNL     1     -10.962   9.316  67.417  1.00  0.00    -0.421 OA 
HETATM   15  H   UNL     1     -11.168   8.909  66.584  1.00  0.00     0.000 HD 
BRANCH  13  16
HETATM   16  C   UNL     1     -10.278  11.204  66.038  1.00  0.00    -0.250 C  
HETATM   17  H   UNL     1      -8.758  12.413  65.776  1.00  0.00     0.000 HD 
HETATM   18  O   UNL     1      -9.281  12.126  66.515  1.00  0.00    -0.212 OA 
BRANCH  16  19
HETATM   19  C   UNL     1     -11.109  11.861  64.930  1.00  0.00    -0.307 C  
BRANCH  19  20
HETATM   20  O   UNL     1     -10.846  13.271  64.954  1.00  0.00    -0.311 OA 
HETATM   21  S   UNL     1     -12.066  14.246  64.502  1.00  0.00    -0.463 S  
HETATM   22  C   UNL     1     -11.222  15.794  64.729  1.00  0.00    -0.366 C  
HETATM   23  O   UNL     1     -13.126  14.141  65.484  1.00  0.00    -0.691 OA 
HETATM   24  O   UNL     1     -12.304  14.051  63.087  1.00  0.00    -0.657 OA 
ENDBRANCH  19  20
ENDBRANCH  16  19
ENDBRANCH  13  16
ENDBRANCH  10  13
ENDBRANCH   7  10
ENDBRANCH   6   7
ENDBRANCH   3   6
TORSDOF 7
ENDMDL
MODEL      114
REMARK 921   NORMALIZED FREE ENERGY PREDICTED BY IDOCK:   -4.37 KCAL/MOL
REMARK 922        TOTAL FREE ENERGY PREDICTED BY IDOCK:   -7.41 KCAL/MOL
REMARK 923 INTER-LIGAND FREE ENERGY PREDICTED BY IDOCK:   -6.94 KCAL/MOL
REMARK 924 INTRA-LIGAND FREE ENERGY PREDICTED BY IDOCK:   -0.47 KCAL/MOL
REMARK 927      BINDING AFFINITY PREDICTED BY RF-SCORE:    0.00 PKD
ROOT
HETATM    1  C   UNL     1      -9.846   8.800  72.037  1.00  0.00    -0.306 C  
HETATM    2  S   UNL     1     -10.941   8.911  70.645  1.00  0.00    -0.252 S  
HETATM    3  O   UNL     1     -10.560  10.417  70.123  1.00  0.00    -0.273 OA 
HETATM    4  O   UNL     1     -10.506   7.961  69.643  1.00  0.00    -0.219 OA 
HETATM    5  O   UNL     1     -12.304   8.939  71.134  1.00  0.00    -0.294 OA 
ENDROOT
BRANCH   3   6
HETATM    6  C   UNL     1     -11.277  10.829  68.955  1.00  0.00    -0.262 C  
BRANCH   6   7
HETATM    7  C   UNL     1     -11.035  12.303  68.620  1.00  0.00    -0.239 C  
HETATM    8  O   UNL     1      -9.722  12.690  69.072  1.00  0.00    -0.404 OA 
HETATM    9  H   UNL     1      -9.572  13.605  68.863  1.00  0.00     0.000 HD 
BRANCH   7  10
HETATM   10  C   UNL     1     -11.077  12.567  67.099  1.00  0.00    -0.276 C  
HETATM   11  H   UNL     1     -12.111  11.881  65.566  1.00  0.00     0.000 HD 
HETATM   12  O   UNL     1     -12.086  11.719  66.502  1.00  0.00    -0.498 OA 
BRANCH  10  13
HETATM   13  C   UNL     1     -11.402  14.009  66.666  1.00  0.00    -0.335 C  
HETATM   14  O   UNL     1     -12.717  13.978  66.073  1.00  0.00    -0.475 OA 
HETATM   15  H   UNL     1     -12.918  14.867  65.806  1.00  0.00     0.000 HD 
BRANCH  13  16
HETATM   16  C   UNL     1     -10.409  14.649  65.680  1.00  0.00    -0.351 C  
HETATM   17  H   UNL     1      -8.484  15.018  65.664  1.00  0.00     0.000 HD 
HETATM   18  O   UNL     1      -9.097  14.623  66.273  1.00  0.00    -0.251 OA 
BRANCH  16  19
HETATM   19  C   UNL     1     -10.779  16.087  65.298  1.00  0.00    -0.399 C  
BRANCH  19  20
HETATM   20  O   UNL     1      -9.663  16.931  65.608  1.00  0.00    -0.538 OA 
HETATM   21  S   UNL     1     -10.002  18.346  66.336  1.00  0.00    -0.383 S  
HETATM   22  C   UNL     1      -8.331  18.935  66.485  1.00  0.00    -0.302 C  
HETATM   23  O   UNL     1     -10.522  18.069  67.659  1.00  0.00    -0.379 OA 
HETATM   24  O   UNL     1     -10.707  19.186  65.390  1.00  0.00    -0.503 OA 
ENDBRANCH  19  20
ENDBRANCH  16  19
ENDBRANCH  13  16
ENDBRANCH  10  13
ENDBRANCH   7  10
ENDBRANCH   6   7
ENDBRANCH   3   6
TORSDOF 7
ENDMDL
MODEL      115
REMARK 921   NORMALIZED FREE ENERGY PREDICTED BY IDOCK:   -4.37 KCAL/MOL
REMARK 922        TOTAL FREE ENERGY PREDICTED BY IDOCK:   -7.40 KCAL/MOL
REMARK 923 INTER-LIGAND FREE ENERGY PREDICTED BY IDOCK:   -6.54 KCAL/MOL
REMARK 924 INTRA-LIGAND FREE ENERGY PREDICTED BY IDOCK:   -0.87 KCAL/MOL
REMARK 927      BINDING AFFINITY PREDICTED BY RF-SCORE:    0.00 PKD
ROOT
HETATM    1  C   UNL     1      -8.433   7.385  67.079  1.00  0.00    -0.118 C  
HETATM    2  S   UNL     1      -8.220   9.059  67.626  1.00  0.00    -0.109 S  
HETATM    3  O   UNL     1      -9.611   9.708  67.049  1.00  0.00    -0.160 OA 
HETATM    4  O   UNL     1      -8.276   9.080  69.072  1.00  0.00    -0.114 OA 
HETATM    5  O   UNL     1      -7.117   9.646  66.892  1.00  0.00    -0.084 OA 
ENDROOT
BRANCH   3   6
HETATM    6  C   UNL     1      -9.773  11.099  67.346  1.00  0.00    -0.173 C  
BRANCH   6   7
HETATM    7  C   UNL     1      -9.784  11.961  66.081  1.00  0.00    -0.232 C  
HETATM    8  O   UNL     1      -8.828  11.442  65.136  1.00  0.00    -0.385 OA 
HETATM    9  H   UNL     1      -8.835  11.977  64.350  1.00  0.00     0.000 HD 
BRANCH   7  10
HETATM   10  C   UNL     1     -11.159  11.941  65.377  1.00  0.00    -0.306 C  
HETATM   11  H   UNL     1     -13.044  12.103  65.937  1.00  0.00     0.000 HD 
HETATM   12  O   UNL     1     -12.198  12.115  66.370  1.00  0.00    -0.592 OA 
BRANCH  10  13
HETATM   13  C   UNL     1     -11.391  13.022  64.304  1.00  0.00    -0.376 C  
HETATM   14  O   UNL     1     -10.201  13.058  63.488  1.00  0.00    -0.602 OA 
HETATM   15  H   UNL     1     -10.344  13.725  62.826  1.00  0.00     0.000 HD 
BRANCH  13  16
HETATM   16  C   UNL     1     -11.693  14.434  64.835  1.00  0.00    -0.408 C  
HETATM   17  H   UNL     1     -12.821  15.935  64.275  1.00  0.00     0.000 HD 
HETATM   18  O   UNL     1     -12.635  15.064  63.947  1.00  0.00    -0.813 OA 
BRANCH  16  19
HETATM   19  C   UNL     1     -10.441  15.309  64.972  1.00  0.00    -0.382 C  
BRANCH  19  20
HETATM   20  O   UNL     1     -10.715  16.328  65.942  1.00  0.00    -0.302 OA 
HETATM   21  S   UNL     1      -9.453  16.849  66.826  1.00  0.00    -0.268 S  
HETATM   22  C   UNL     1     -10.330  18.052  67.796  1.00  0.00    -0.393 C  
HETATM   23  O   UNL     1      -8.529  17.537  65.948  1.00  0.00    -0.533 OA 
HETATM   24  O   UNL     1      -9.032  15.770  67.696  1.00  0.00    -0.184 OA 
ENDBRANCH  19  20
ENDBRANCH  16  19
ENDBRANCH  13  16
ENDBRANCH  10  13
ENDBRANCH   7  10
ENDBRANCH   6   7
ENDBRANCH   3   6
TORSDOF 7
ENDMDL
MODEL      116
REMARK 921   NORMALIZED FREE ENERGY PREDICTED BY IDOCK:   -4.37 KCAL/MOL
REMARK 922        TOTAL FREE ENERGY PREDICTED BY IDOCK:   -7.40 KCAL/MOL
REMARK 923 INTER-LIGAND FREE ENERGY PREDICTED BY IDOCK:   -6.45 KCAL/MOL
REMARK 924 INTRA-LIGAND FREE ENERGY PREDICTED BY IDOCK:   -0.95 KCAL/MOL
REMARK 927      BINDING AFFINITY PREDICTED BY RF-SCORE:    0.00 PKD
ROOT
HETATM    1  C   UNL     1     -12.634  12.113  63.466  1.00  0.00    -0.506 C  
HETATM    2  S   UNL     1     -11.293  12.101  64.628  1.00  0.00    -0.326 S  
HETATM    3  O   UNL     1     -12.128  12.412  66.004  1.00  0.00    -0.600 OA 
HETATM    4  O   UNL     1     -10.769  10.754  64.710  1.00  0.00    -0.270 OA 
HETATM    5  O   UNL     1     -10.439  13.240  64.357  1.00  0.00    -0.412 OA 
ENDROOT
BRANCH   3   6
HETATM    6  C   UNL     1     -11.316  12.452  67.182  1.00  0.00    -0.329 C  
BRANCH   6   7
HETATM    7  C   UNL     1     -11.675  13.633  68.089  1.00  0.00    -0.357 C  
HETATM    8  O   UNL     1     -11.734  13.188  69.458  1.00  0.00    -0.296 OA 
HETATM    9  H   UNL     1     -11.957  13.921  70.021  1.00  0.00     0.000 HD 
BRANCH   7  10
HETATM   10  C   UNL     1     -10.613  14.753  68.032  1.00  0.00    -0.244 C  
HETATM   11  H   UNL     1      -8.842  15.075  68.840  1.00  0.00     0.000 HD 
HETATM   12  O   UNL     1      -9.496  14.386  68.876  1.00  0.00    -0.188 OA 
BRANCH  10  13
HETATM   13  C   UNL     1     -10.029  15.067  66.641  1.00  0.00    -0.256 C  
HETATM   14  O   UNL     1      -8.760  14.385  66.560  1.00  0.00    -0.438 OA 
HETATM   15  H   UNL     1      -8.400  14.579  65.703  1.00  0.00     0.000 HD 
BRANCH  13  16
HETATM   16  C   UNL     1      -9.831  16.560  66.324  1.00  0.00    -0.316 C  
HETATM   17  H   UNL     1     -10.337  17.767  64.865  1.00  0.00     0.000 HD 
HETATM   18  O   UNL     1     -10.459  16.845  65.060  1.00  0.00    -0.675 OA 
BRANCH  16  19
HETATM   19  C   UNL     1      -8.356  16.977  66.279  1.00  0.00    -0.273 C  
BRANCH  19  20
HETATM   20  O   UNL     1      -7.827  16.885  67.608  1.00  0.00    -0.168 OA 
HETATM   21  S   UNL     1      -6.250  16.508  67.738  1.00  0.00    -0.153 S  
HETATM   22  C   UNL     1      -6.149  16.546  69.512  1.00  0.00    -0.199 C  
HETATM   23  O   UNL     1      -5.470  17.604  67.200  1.00  0.00    -0.121 OA 
HETATM   24  O   UNL     1      -6.071  15.142  67.292  1.00  0.00    -0.323 OA 
ENDBRANCH  19  20
ENDBRANCH  16  19
ENDBRANCH  13  16
ENDBRANCH  10  13
ENDBRANCH   7  10
ENDBRANCH   6   7
ENDBRANCH   3   6
TORSDOF 7
ENDMDL
MODEL      117
REMARK 921   NORMALIZED FREE ENERGY PREDICTED BY IDOCK:   -4.37 KCAL/MOL
REMARK 922        TOTAL FREE ENERGY PREDICTED BY IDOCK:   -7.40 KCAL/MOL
REMARK 923 INTER-LIGAND FREE ENERGY PREDICTED BY IDOCK:   -6.63 KCAL/MOL
REMARK 924 INTRA-LIGAND FREE ENERGY PREDICTED BY IDOCK:   -0.77 KCAL/MOL
REMARK 927      BINDING AFFINITY PREDICTED BY RF-SCORE:    0.00 PKD
ROOT
HETATM    1  C   UNL     1     -12.774   9.809  71.801  1.00  0.00    -0.426 C  
HETATM    2  S   UNL     1     -12.289   8.105  71.708  1.00  0.00    -0.335 S  
HETATM    3  O   UNL     1     -11.299   8.178  70.403  1.00  0.00    -0.259 OA 
HETATM    4  O   UNL     1     -11.484   7.793  72.871  1.00  0.00    -0.378 OA 
HETATM    5  O   UNL     1     -13.448   7.316  71.345  1.00  0.00    -0.388 OA 
ENDROOT
BRANCH   3   6
HETATM    6  C   UNL     1     -10.700   6.926  70.055  1.00  0.00    -0.243 C  
BRANCH   6   7
HETATM    7  C   UNL     1     -10.315   6.864  68.574  1.00  0.00    -0.186 C  
HETATM    8  O   UNL     1     -11.502   6.688  67.776  1.00  0.00    -0.654 OA 
HETATM    9  H   UNL     1     -11.262   6.650  66.857  1.00  0.00     0.000 HD 
BRANCH   7  10
HETATM   10  C   UNL     1      -9.645   8.169  68.093  1.00  0.00    -0.149 C  
HETATM   11  H   UNL     1      -7.799   8.782  67.765  1.00  0.00     0.000 HD 
HETATM   12  O   UNL     1      -8.211   7.979  68.062  1.00  0.00    -0.126 OA 
BRANCH  10  13
HETATM   13  C   UNL     1     -10.053   8.669  66.694  1.00  0.00    -0.294 C  
HETATM   14  O   UNL     1      -9.655   7.647  65.756  1.00  0.00    -0.413 OA 
HETATM   15  H   UNL     1      -9.906   7.955  64.893  1.00  0.00     0.000 HD 
BRANCH  13  16
HETATM   16  C   UNL     1      -9.453  10.020  66.268  1.00  0.00    -0.191 C  
HETATM   17  H   UNL     1      -9.346  11.818  67.041  1.00  0.00     0.000 HD 
HETATM   18  O   UNL     1      -9.717  10.984  67.304  1.00  0.00    -0.164 OA 
BRANCH  16  19
HETATM   19  C   UNL     1     -10.002  10.530  64.930  1.00  0.00    -0.334 C  
BRANCH  19  20
HETATM   20  O   UNL     1     -10.039  11.962  64.981  1.00  0.00    -0.254 OA 
HETATM   21  S   UNL     1     -11.486  12.662  64.732  1.00  0.00    -0.338 S  
HETATM   22  C   UNL     1     -10.961  14.350  64.916  1.00  0.00    -0.406 C  
HETATM   23  O   UNL     1     -12.359  12.319  65.836  1.00  0.00    -0.618 OA 
HETATM   24  O   UNL     1     -11.866  12.442  63.352  1.00  0.00    -0.475 OA 
ENDBRANCH  19  20
ENDBRANCH  16  19
ENDBRANCH  13  16
ENDBRANCH  10  13
ENDBRANCH   7  10
ENDBRANCH   6   7
ENDBRANCH   3   6
TORSDOF 7
ENDMDL
MODEL      118
REMARK 921   NORMALIZED FREE ENERGY PREDICTED BY IDOCK:   -4.33 KCAL/MOL
REMARK 922        TOTAL FREE ENERGY PREDICTED BY IDOCK:   -7.34 KCAL/MOL
REMARK 923 INTER-LIGAND FREE ENERGY PREDICTED BY IDOCK:   -6.10 KCAL/MOL
REMARK 924 INTRA-LIGAND FREE ENERGY PREDICTED BY IDOCK:   -1.24 KCAL/MOL
REMARK 927      BINDING AFFINITY PREDICTED BY RF-SCORE:    0.00 PKD
ROOT
HETATM    1  C   UNL     1      -6.392  10.201  64.775  1.00  0.00    -0.131 C  
HETATM    2  S   UNL     1      -8.093   9.731  64.591  1.00  0.00    -0.158 S  
HETATM    3  O   UNL     1      -8.654  10.172  66.068  1.00  0.00    -0.135 OA 
HETATM    4  O   UNL     1      -8.702  10.592  63.600  1.00  0.00    -0.177 OA 
HETATM    5  O   UNL     1      -8.164   8.287  64.500  1.00  0.00    -0.161 OA 
ENDROOT
BRANCH   3   6
HETATM    6  C   UNL     1     -10.054   9.939  66.253  1.00  0.00    -0.241 C  
BRANCH   6   7
HETATM    7  C   UNL     1     -10.659  10.876  67.302  1.00  0.00    -0.251 C  
HETATM    8  O   UNL     1      -9.605  11.597  67.969  1.00  0.00    -0.172 OA 
HETATM    9  H   UNL     1      -9.981  12.179  68.620  1.00  0.00     0.000 HD 
BRANCH   7  10
HETATM   10  C   UNL     1     -11.588  11.934  66.668  1.00  0.00    -0.264 C  
HETATM   11  H   UNL     1     -12.357  13.665  67.221  1.00  0.00     0.000 HD 
HETATM   12  O   UNL     1     -11.786  13.014  67.611  1.00  0.00    -0.331 OA 
BRANCH  10  13
HETATM   13  C   UNL     1     -11.093  12.579  65.359  1.00  0.00    -0.302 C  
HETATM   14  O   UNL     1      -9.857  13.255  65.671  1.00  0.00    -0.398 OA 
HETATM   15  H   UNL     1      -9.552  13.653  64.864  1.00  0.00     0.000 HD 
BRANCH  13  16
HETATM   16  C   UNL     1     -12.066  13.568  64.694  1.00  0.00    -0.409 C  
HETATM   17  H   UNL     1     -13.089  13.626  63.023  1.00  0.00     0.000 HD 
HETATM   18  O   UNL     1     -12.488  13.016  63.433  1.00  0.00    -0.710 OA 
BRANCH  16  19
HETATM   19  C   UNL     1     -11.459  14.959  64.477  1.00  0.00    -0.325 C  
BRANCH  19  20
HETATM   20  O   UNL     1     -11.326  15.591  65.757  1.00  0.00    -0.199 OA 
HETATM   21  S   UNL     1     -10.350  16.890  65.829  1.00  0.00    -0.206 S  
HETATM   22  C   UNL     1     -10.567  17.248  67.556  1.00  0.00    -0.329 C  
HETATM   23  O   UNL     1     -10.946  17.956  65.050  1.00  0.00    -0.776 OA 
HETATM   24  O   UNL     1      -8.988  16.448  65.614  1.00  0.00    -0.427 OA 
ENDBRANCH  19  20
ENDBRANCH  16  19
ENDBRANCH  13  16
ENDBRANCH  10  13
ENDBRANCH   7  10
ENDBRANCH   6   7
ENDBRANCH   3   6
TORSDOF 7
ENDMDL
MODEL      119
REMARK 921   NORMALIZED FREE ENERGY PREDICTED BY IDOCK:   -4.33 KCAL/MOL
REMARK 922        TOTAL FREE ENERGY PREDICTED BY IDOCK:   -7.34 KCAL/MOL
REMARK 923 INTER-LIGAND FREE ENERGY PREDICTED BY IDOCK:   -6.86 KCAL/MOL
REMARK 924 INTRA-LIGAND FREE ENERGY PREDICTED BY IDOCK:   -0.48 KCAL/MOL
REMARK 927      BINDING AFFINITY PREDICTED BY RF-SCORE:    0.00 PKD
ROOT
HETATM    1  C   UNL     1     -11.097   9.927  70.270  1.00  0.00    -0.308 C  
HETATM    2  S   UNL     1     -12.534  10.814  70.816  1.00  0.00    -0.409 S  
HETATM    3  O   UNL     1     -11.915  12.331  70.849  1.00  0.00    -0.197 OA 
HETATM    4  O   UNL     1     -13.534  10.754  69.773  1.00  0.00     0.256 OA 
HETATM    5  O   UNL     1     -12.825  10.421  72.180  1.00  0.00    -0.392 OA 
ENDROOT
BRANCH   3   6
HETATM    6  C   UNL     1     -12.855  13.336  71.245  1.00  0.00    -0.312 C  
BRANCH   6   7
HETATM    7  C   UNL     1     -12.819  14.555  70.318  1.00  0.00    -0.199 C  
HETATM    8  O   UNL     1     -14.018  15.333  70.501  1.00  0.00    -0.660 OA 
HETATM    9  H   UNL     1     -13.996  16.090  69.927  1.00  0.00     0.000 HD 
BRANCH   7  10
HETATM   10  C   UNL     1     -11.631  15.489  70.634  1.00  0.00    -0.349 C  
HETATM   11  H   UNL     1     -10.450  15.814  72.180  1.00  0.00     0.000 HD 
HETATM   12  O   UNL     1     -11.182  15.239  71.987  1.00  0.00    -0.419 OA 
BRANCH  10  13
HETATM   13  C   UNL     1     -10.394  15.347  69.726  1.00  0.00    -0.286 C  
HETATM   14  O   UNL     1     -10.082  16.669  69.239  1.00  0.00    -0.272 OA 
HETATM   15  H   UNL     1      -9.320  16.582  68.680  1.00  0.00     0.000 HD 
BRANCH  13  16
HETATM   16  C   UNL     1     -10.547  14.384  68.536  1.00  0.00    -0.255 C  
HETATM   17  H   UNL     1      -9.338  13.303  67.437  1.00  0.00     0.000 HD 
HETATM   18  O   UNL     1      -9.242  13.898  68.171  1.00  0.00    -0.190 OA 
BRANCH  16  19
HETATM   19  C   UNL     1     -11.222  15.030  67.320  1.00  0.00    -0.338 C  
BRANCH  19  20
HETATM   20  O   UNL     1     -10.844  14.285  66.154  1.00  0.00    -0.301 OA 
HETATM   21  S   UNL     1     -11.933  13.220  65.586  1.00  0.00    -0.438 S  
HETATM   22  C   UNL     1     -10.984  12.634  64.203  1.00  0.00    -0.387 C  
HETATM   23  O   UNL     1     -13.080  13.955  65.091  1.00  0.00    -0.773 OA 
HETATM   24  O   UNL     1     -12.063  12.146  66.549  1.00  0.00    -0.627 OA 
ENDBRANCH  19  20
ENDBRANCH  16  19
ENDBRANCH  13  16
ENDBRANCH  10  13
ENDBRANCH   7  10
ENDBRANCH   6   7
ENDBRANCH   3   6
TORSDOF 7
ENDMDL
MODEL      120
REMARK 921   NORMALIZED FREE ENERGY PREDICTED BY IDOCK:   -4.31 KCAL/MOL
REMARK 922        TOTAL FREE ENERGY PREDICTED BY IDOCK:   -7.32 KCAL/MOL
REMARK 923 INTER-LIGAND FREE ENERGY PREDICTED BY IDOCK:   -5.81 KCAL/MOL
REMARK 924 INTRA-LIGAND FREE ENERGY PREDICTED BY IDOCK:   -1.51 KCAL/MOL
REMARK 927      BINDING AFFINITY PREDICTED BY RF-SCORE:    0.00 PKD
ROOT
HETATM    1  C   UNL     1     -12.400  14.962  64.303  1.00  0.00    -0.277 C  
HETATM    2  S   UNL     1     -11.973  13.303  64.768  1.00  0.00    -0.413 S  
HETATM    3  O   UNL     1     -11.900  13.491  66.395  1.00  0.00    -0.353 OA 
HETATM    4  O   UNL     1     -13.092  12.438  64.461  1.00  0.00    -0.823 OA 
HETATM    5  O   UNL     1     -10.634  13.022  64.291  1.00  0.00    -0.381 OA 
ENDROOT
BRANCH   3   6
HETATM    6  C   UNL     1     -11.585  12.290  67.107  1.00  0.00    -0.353 C  
BRANCH   6   7
HETATM    7  C   UNL     1     -10.808  12.572  68.396  1.00  0.00    -0.243 C  
HETATM    8  O   UNL     1     -10.953  11.458  69.298  1.00  0.00    -0.233 OA 
HETATM    9  H   UNL     1     -10.470  11.633  70.098  1.00  0.00     0.000 HD 
BRANCH   7  10
HETATM   10  C   UNL     1      -9.295  12.739  68.136  1.00  0.00    -0.214 C  
HETATM   11  H   UNL     1      -7.988  12.026  66.842  1.00  0.00     0.000 HD 
HETATM   12  O   UNL     1      -8.919  11.923  67.002  1.00  0.00    -0.177 OA 
BRANCH  10  13
HETATM   13  C   UNL     1      -8.810  14.169  67.829  1.00  0.00    -0.185 C  
HETATM   14  O   UNL     1      -9.008  14.380  66.415  1.00  0.00    -0.439 OA 
HETATM   15  H   UNL     1      -8.709  15.261  66.225  1.00  0.00     0.000 HD 
BRANCH  13  16
HETATM   16  C   UNL     1      -7.346  14.469  68.193  1.00  0.00    -0.128 C  
HETATM   17  H   UNL     1      -6.033  13.743  69.454  1.00  0.00     0.000 HD 
HETATM   18  O   UNL     1      -6.937  13.558  69.230  1.00  0.00    -0.091 OA 
BRANCH  16  19
HETATM   19  C   UNL     1      -7.122  15.914  68.652  1.00  0.00    -0.133 C  
BRANCH  19  20
HETATM   20  O   UNL     1      -8.404  16.539  68.796  1.00  0.00    -0.227 OA 
HETATM   21  S   UNL     1      -8.699  17.825  67.844  1.00  0.00    -0.257 S  
HETATM   22  C   UNL     1     -10.348  18.161  68.413  1.00  0.00    -0.356 C  
HETATM   23  O   UNL     1      -8.759  17.373  66.469  1.00  0.00    -0.241 OA 
HETATM   24  O   UNL     1      -7.834  18.908  68.263  1.00  0.00    -0.285 OA 
ENDBRANCH  19  20
ENDBRANCH  16  19
ENDBRANCH  13  16
ENDBRANCH  10  13
ENDBRANCH   7  10
ENDBRANCH   6   7
ENDBRANCH   3   6
TORSDOF 7
ENDMDL
MODEL      121
REMARK 921   NORMALIZED FREE ENERGY PREDICTED BY IDOCK:   -4.31 KCAL/MOL
REMARK 922        TOTAL FREE ENERGY PREDICTED BY IDOCK:   -7.32 KCAL/MOL
REMARK 923 INTER-LIGAND FREE ENERGY PREDICTED BY IDOCK:   -6.13 KCAL/MOL
REMARK 924 INTRA-LIGAND FREE ENERGY PREDICTED BY IDOCK:   -1.18 KCAL/MOL
REMARK 927      BINDING AFFINITY PREDICTED BY RF-SCORE:    0.00 PKD
ROOT
HETATM    1  C   UNL     1     -10.727   5.224  66.645  1.00  0.00    -0.200 C  
HETATM    2  S   UNL     1     -10.325   6.162  68.097  1.00  0.00    -0.225 S  
HETATM    3  O   UNL     1     -10.098   7.633  67.410  1.00  0.00    -0.180 OA 
HETATM    4  O   UNL     1     -11.500   6.231  68.939  1.00  0.00    -0.331 OA 
HETATM    5  O   UNL     1      -9.047   5.703  68.602  1.00  0.00    -0.117 OA 
ENDROOT
BRANCH   3   6
HETATM    6  C   UNL     1      -9.767   8.667  68.343  1.00  0.00    -0.162 C  
BRANCH   6   7
HETATM    7  C   UNL     1     -10.920   9.655  68.542  1.00  0.00    -0.108 C  
HETATM    8  O   UNL     1     -11.628   9.331  69.755  1.00  0.00    -0.441 OA 
HETATM    9  H   UNL     1     -12.343   9.944  69.878  1.00  0.00     0.000 HD 
BRANCH   7  10
HETATM   10  C   UNL     1     -10.421  11.108  68.693  1.00  0.00    -0.197 C  
HETATM   11  H   UNL     1      -8.672  11.994  68.911  1.00  0.00     0.000 HD 
HETATM   12  O   UNL     1      -8.979  11.100  68.818  1.00  0.00    -0.169 OA 
BRANCH  10  13
HETATM   13  C   UNL     1     -10.756  12.067  67.535  1.00  0.00    -0.226 C  
HETATM   14  O   UNL     1      -9.559  12.191  66.738  1.00  0.00    -0.201 OA 
HETATM   15  H   UNL     1      -9.766  12.782  66.024  1.00  0.00     0.000 HD 
BRANCH  13  16
HETATM   16  C   UNL     1     -11.245  13.467  67.949  1.00  0.00    -0.275 C  
HETATM   17  H   UNL     1     -12.159  14.234  69.503  1.00  0.00     0.000 HD 
HETATM   18  O   UNL     1     -11.858  13.370  69.248  1.00  0.00    -0.299 OA 
BRANCH  16  19
HETATM   19  C   UNL     1     -12.232  14.081  66.951  1.00  0.00    -0.380 C  
BRANCH  19  20
HETATM   20  O   UNL     1     -12.311  13.215  65.811  1.00  0.00    -0.443 OA 
HETATM   21  S   UNL     1     -11.734  13.803  64.409  1.00  0.00    -0.403 S  
HETATM   22  C   UNL     1     -12.059  12.372  63.406  1.00  0.00    -0.524 C  
HETATM   23  O   UNL     1     -10.301  13.971  64.536  1.00  0.00    -0.419 OA 
HETATM   24  O   UNL     1     -12.601  14.879  63.976  1.00  0.00    -0.832 OA 
ENDBRANCH  19  20
ENDBRANCH  16  19
ENDBRANCH  13  16
ENDBRANCH  10  13
ENDBRANCH   7  10
ENDBRANCH   6   7
ENDBRANCH   3   6
TORSDOF 7
ENDMDL
MODEL      122
REMARK 921   NORMALIZED FREE ENERGY PREDICTED BY IDOCK:   -4.31 KCAL/MOL
REMARK 922        TOTAL FREE ENERGY PREDICTED BY IDOCK:   -7.31 KCAL/MOL
REMARK 923 INTER-LIGAND FREE ENERGY PREDICTED BY IDOCK:   -6.47 KCAL/MOL
REMARK 924 INTRA-LIGAND FREE ENERGY PREDICTED BY IDOCK:   -0.85 KCAL/MOL
REMARK 927      BINDING AFFINITY PREDICTED BY RF-SCORE:    0.00 PKD
ROOT
HETATM    1  C   UNL     1      -7.572  10.288  65.112  1.00  0.00    -0.133 C  
HETATM    2  S   UNL     1      -9.251  10.336  64.540  1.00  0.00    -0.275 S  
HETATM    3  O   UNL     1      -9.452  11.960  64.435  1.00  0.00    -0.067 OA 
HETATM    4  O   UNL     1      -9.296   9.786  63.202  1.00  0.00    -0.263 OA 
HETATM    5  O   UNL     1     -10.111   9.847  65.598  1.00  0.00    -0.289 OA 
ENDROOT
BRANCH   3   6
HETATM    6  C   UNL     1     -10.744  12.358  63.965  1.00  0.00    -0.404 C  
BRANCH   6   7
HETATM    7  C   UNL     1     -11.556  13.075  65.048  1.00  0.00    -0.325 C  
HETATM    8  O   UNL     1     -12.080  12.105  65.977  1.00  0.00    -0.612 OA 
HETATM    9  H   UNL     1     -12.584  12.551  66.649  1.00  0.00     0.000 HD 
BRANCH   7  10
HETATM   10  C   UNL     1     -10.689  14.053  65.870  1.00  0.00    -0.293 C  
HETATM   11  H   UNL     1      -9.592  15.648  65.486  1.00  0.00     0.000 HD 
HETATM   12  O   UNL     1     -10.126  15.045  64.980  1.00  0.00    -0.348 OA 
BRANCH  10  13
HETATM   13  C   UNL     1     -11.412  14.828  66.990  1.00  0.00    -0.353 C  
HETATM   14  O   UNL     1     -10.993  16.204  66.879  1.00  0.00    -0.237 OA 
HETATM   15  H   UNL     1     -11.438  16.681  67.569  1.00  0.00     0.000 HD 
BRANCH  13  16
HETATM   16  C   UNL     1     -11.153  14.325  68.421  1.00  0.00    -0.256 C  
HETATM   17  H   UNL     1     -11.277  12.605  69.352  1.00  0.00     0.000 HD 
HETATM   18  O   UNL     1     -11.437  12.915  68.468  1.00  0.00    -0.265 OA 
BRANCH  16  19
HETATM   19  C   UNL     1     -11.984  15.060  69.478  1.00  0.00    -0.313 C  
BRANCH  19  20
HETATM   20  O   UNL     1     -12.561  14.080  70.352  1.00  0.00    -0.336 OA 
HETATM   21  S   UNL     1     -12.977  14.586  71.840  1.00  0.00    -0.363 S  
HETATM   22  C   UNL     1     -13.616  13.041  72.440  1.00  0.00    -0.529 C  
HETATM   23  O   UNL     1     -14.069  15.530  71.716  1.00  0.00    -0.493 OA 
HETATM   24  O   UNL     1     -11.765  14.901  72.568  1.00  0.00    -0.314 OA 
ENDBRANCH  19  20
ENDBRANCH  16  19
ENDBRANCH  13  16
ENDBRANCH  10  13
ENDBRANCH   7  10
ENDBRANCH   6   7
ENDBRANCH   3   6
TORSDOF 7
ENDMDL
MODEL      123
REMARK 921   NORMALIZED FREE ENERGY PREDICTED BY IDOCK:   -4.31 KCAL/MOL
REMARK 922        TOTAL FREE ENERGY PREDICTED BY IDOCK:   -7.31 KCAL/MOL
REMARK 923 INTER-LIGAND FREE ENERGY PREDICTED BY IDOCK:   -6.19 KCAL/MOL
REMARK 924 INTRA-LIGAND FREE ENERGY PREDICTED BY IDOCK:   -1.13 KCAL/MOL
REMARK 927      BINDING AFFINITY PREDICTED BY RF-SCORE:    0.00 PKD
ROOT
HETATM    1  C   UNL     1      -6.146  14.205  68.004  1.00  0.00    -0.145 C  
HETATM    2  S   UNL     1      -6.686  15.864  67.678  1.00  0.00    -0.185 S  
HETATM    3  O   UNL     1      -7.949  15.544  66.684  1.00  0.00    -0.226 OA 
HETATM    4  O   UNL     1      -7.207  16.426  68.906  1.00  0.00    -0.176 OA 
HETATM    5  O   UNL     1      -5.665  16.535  66.900  1.00  0.00    -0.292 OA 
ENDROOT
BRANCH   3   6
HETATM    6  C   UNL     1      -8.647  16.710  66.234  1.00  0.00    -0.324 C  
BRANCH   6   7
HETATM    7  C   UNL     1     -10.045  16.818  66.851  1.00  0.00    -0.286 C  
HETATM    8  O   UNL     1     -10.452  18.200  66.882  1.00  0.00    -0.368 OA 
HETATM    9  H   UNL     1     -11.319  18.267  67.265  1.00  0.00     0.000 HD 
BRANCH   7  10
HETATM   10  C   UNL     1     -11.105  16.061  66.023  1.00  0.00     0.016 C  
HETATM   11  H   UNL     1     -11.249  15.386  64.175  1.00  0.00     0.000 HD 
HETATM   12  O   UNL     1     -10.596  15.852  64.684  1.00  0.00    -0.525 OA 
BRANCH  10  13
HETATM   13  C   UNL     1     -11.525  14.677  66.555  1.00  0.00    -0.351 C  
HETATM   14  O   UNL     1     -10.445  14.208  67.389  1.00  0.00    -0.267 OA 
HETATM   15  H   UNL     1     -10.704  13.355  67.716  1.00  0.00     0.000 HD 
BRANCH  13  16
HETATM   16  C   UNL     1     -11.843  13.620  65.483  1.00  0.00    -0.362 C  
HETATM   17  H   UNL     1     -13.441  13.049  64.501  1.00  0.00     0.000 HD 
HETATM   18  O   UNL     1     -13.245  13.701  65.163  1.00  0.00    -0.739 OA 
BRANCH  16  19
HETATM   19  C   UNL     1     -11.490  12.193  65.918  1.00  0.00    -0.363 C  
BRANCH  19  20
HETATM   20  O   UNL     1     -12.043  11.976  67.223  1.00  0.00    -0.572 OA 
HETATM   21  S   UNL     1     -11.157  11.078  68.248  1.00  0.00    -0.282 S  
HETATM   22  C   UNL     1     -12.264  11.150  69.636  1.00  0.00    -0.290 C  
HETATM   23  O   UNL     1      -9.948  11.808  68.573  1.00  0.00    -0.205 OA 
HETATM   24  O   UNL     1     -11.126   9.718  67.751  1.00  0.00    -0.245 OA 
ENDBRANCH  19  20
ENDBRANCH  16  19
ENDBRANCH  13  16
ENDBRANCH  10  13
ENDBRANCH   7  10
ENDBRANCH   6   7
ENDBRANCH   3   6
TORSDOF 7
ENDMDL
MODEL      124
REMARK 921   NORMALIZED FREE ENERGY PREDICTED BY IDOCK:   -4.30 KCAL/MOL
REMARK 922        TOTAL FREE ENERGY PREDICTED BY IDOCK:   -7.30 KCAL/MOL
REMARK 923 INTER-LIGAND FREE ENERGY PREDICTED BY IDOCK:   -6.64 KCAL/MOL
REMARK 924 INTRA-LIGAND FREE ENERGY PREDICTED BY IDOCK:   -0.66 KCAL/MOL
REMARK 927      BINDING AFFINITY PREDICTED BY RF-SCORE:    0.00 PKD
ROOT
HETATM    1  C   UNL     1     -10.640  18.069  66.878  1.00  0.00    -0.280 C  
HETATM    2  S   UNL     1     -10.369  16.776  65.693  1.00  0.00    -0.186 S  
HETATM    3  O   UNL     1     -11.158  15.553  66.446  1.00  0.00    -0.283 OA 
HETATM    4  O   UNL     1     -11.091  17.105  64.482  1.00  0.00    -1.105 OA 
HETATM    5  O   UNL     1      -8.957  16.454  65.679  1.00  0.00    -0.427 OA 
ENDROOT
BRANCH   3   6
HETATM    6  C   UNL     1     -11.150  14.320  65.721  1.00  0.00    -0.310 C  
BRANCH   6   7
HETATM    7  C   UNL     1     -11.636  13.145  66.575  1.00  0.00    -0.356 C  
HETATM    8  O   UNL     1     -12.392  12.233  65.754  1.00  0.00    -0.622 OA 
HETATM    9  H   UNL     1     -12.692  11.504  66.285  1.00  0.00     0.000 HD 
BRANCH   7  10
HETATM   10  C   UNL     1     -10.463  12.338  67.172  1.00  0.00    -0.219 C  
HETATM   11  H   UNL     1      -8.494  12.467  67.154  1.00  0.00     0.000 HD 
HETATM   12  O   UNL     1      -9.216  12.964  66.787  1.00  0.00    -0.227 OA 
BRANCH  10  13
HETATM   13  C   UNL     1     -10.435  12.210  68.707  1.00  0.00    -0.176 C  
HETATM   14  O   UNL     1      -9.104  11.780  69.064  1.00  0.00    -0.385 OA 
HETATM   15  H   UNL     1      -9.087  11.701  70.010  1.00  0.00     0.000 HD 
BRANCH  13  16
HETATM   16  C   UNL     1     -11.467  11.243  69.314  1.00  0.00    -0.301 C  
HETATM   17  H   UNL     1     -12.920  10.123  68.625  1.00  0.00     0.000 HD 
HETATM   18  O   UNL     1     -12.283  10.720  68.250  1.00  0.00    -0.449 OA 
BRANCH  16  19
HETATM   19  C   UNL     1     -12.355  11.898  70.378  1.00  0.00    -0.251 C  
BRANCH  19  20
HETATM   20  O   UNL     1     -11.686  13.074  70.854  1.00  0.00     0.092 OA 
HETATM   21  S   UNL     1     -12.615  14.382  71.119  1.00  0.00    -0.376 S  
HETATM   22  C   UNL     1     -11.327  15.470  71.680  1.00  0.00    -0.388 C  
HETATM   23  O   UNL     1     -13.505  14.097  72.226  1.00  0.00    -0.395 OA 
HETATM   24  O   UNL     1     -13.102  14.860  69.841  1.00  0.00     0.002 OA 
ENDBRANCH  19  20
ENDBRANCH  16  19
ENDBRANCH  13  16
ENDBRANCH  10  13
ENDBRANCH   7  10
ENDBRANCH   6   7
ENDBRANCH   3   6
TORSDOF 7
ENDMDL
MODEL      125
REMARK 921   NORMALIZED FREE ENERGY PREDICTED BY IDOCK:   -4.30 KCAL/MOL
REMARK 922        TOTAL FREE ENERGY PREDICTED BY IDOCK:   -7.30 KCAL/MOL
REMARK 923 INTER-LIGAND FREE ENERGY PREDICTED BY IDOCK:   -6.24 KCAL/MOL
REMARK 924 INTRA-LIGAND FREE ENERGY PREDICTED BY IDOCK:   -1.06 KCAL/MOL
REMARK 927      BINDING AFFINITY PREDICTED BY RF-SCORE:    0.00 PKD
ROOT
HETATM    1  C   UNL     1      -9.776   5.108  66.301  1.00  0.00    -0.174 C  
HETATM    2  S   UNL     1      -9.567   6.558  67.303  1.00  0.00    -0.132 S  
HETATM    3  O   UNL     1      -9.467   7.689  66.120  1.00  0.00    -0.149 OA 
HETATM    4  O   UNL     1     -10.789   6.783  68.045  1.00  0.00    -0.235 OA 
HETATM    5  O   UNL     1      -8.276   6.482  67.957  1.00  0.00    -0.115 OA 
ENDROOT
BRANCH   3   6
HETATM    6  C   UNL     1      -9.309   9.026  66.605  1.00  0.00    -0.177 C  
BRANCH   6   7
HETATM    7  C   UNL     1     -10.554   9.882  66.351  1.00  0.00    -0.056 C  
HETATM    8  O   UNL     1     -11.387   9.880  67.527  1.00  0.00    -0.443 OA 
HETATM    9  H   UNL     1     -12.160  10.411  67.369  1.00  0.00     0.000 HD 
BRANCH   7  10
HETATM   10  C   UNL     1     -10.197  11.356  66.062  1.00  0.00    -0.245 C  
HETATM   11  H   UNL     1      -8.537  12.396  65.831  1.00  0.00     0.000 HD 
HETATM   12  O   UNL     1      -8.757  11.489  66.009  1.00  0.00    -0.176 OA 
BRANCH  10  13
HETATM   13  C   UNL     1     -10.742  11.944  64.746  1.00  0.00    -0.307 C  
HETATM   14  O   UNL     1      -9.684  12.744  64.179  1.00  0.00    -0.595 OA 
HETATM   15  H   UNL     1     -10.020  13.107  63.368  1.00  0.00     0.000 HD 
BRANCH  13  16
HETATM   16  C   UNL     1     -12.018  12.795  64.875  1.00  0.00    -0.402 C  
HETATM   17  H   UNL     1     -13.804  12.783  64.068  1.00  0.00     0.000 HD 
HETATM   18  O   UNL     1     -13.017  12.258  63.988  1.00  0.00    -0.740 OA 
BRANCH  16  19
HETATM   19  C   UNL     1     -11.788  14.278  64.565  1.00  0.00    -0.442 C  
BRANCH  19  20
HETATM   20  O   UNL     1     -11.646  14.976  65.809  1.00  0.00    -0.292 OA 
HETATM   21  S   UNL     1     -10.294  15.860  65.997  1.00  0.00    -0.366 S  
HETATM   22  C   UNL     1     -10.646  16.478  67.626  1.00  0.00    -0.321 C  
HETATM   23  O   UNL     1     -10.331  16.963  65.058  1.00  0.00    -0.596 OA 
HETATM   24  O   UNL     1      -9.167  14.954  66.078  1.00  0.00    -0.277 OA 
ENDBRANCH  19  20
ENDBRANCH  16  19
ENDBRANCH  13  16
ENDBRANCH  10  13
ENDBRANCH   7  10
ENDBRANCH   6   7
ENDBRANCH   3   6
TORSDOF 7
ENDMDL
MODEL      126
REMARK 921   NORMALIZED FREE ENERGY PREDICTED BY IDOCK:   -4.29 KCAL/MOL
REMARK 922        TOTAL FREE ENERGY PREDICTED BY IDOCK:   -7.30 KCAL/MOL
REMARK 923 INTER-LIGAND FREE ENERGY PREDICTED BY IDOCK:   -6.06 KCAL/MOL
REMARK 924 INTRA-LIGAND FREE ENERGY PREDICTED BY IDOCK:   -1.23 KCAL/MOL
REMARK 927      BINDING AFFINITY PREDICTED BY RF-SCORE:    0.00 PKD
ROOT
HETATM    1  C   UNL     1      -9.916  13.022  65.653  1.00  0.00    -0.230 C  
HETATM    2  S   UNL     1     -11.342  13.247  66.685  1.00  0.00    -0.335 S  
HETATM    3  O   UNL     1     -10.761  12.620  68.084  1.00  0.00    -0.211 OA 
HETATM    4  O   UNL     1     -11.551  14.667  66.876  1.00  0.00    -0.361 OA 
HETATM    5  O   UNL     1     -12.397  12.375  66.209  1.00  0.00    -0.577 OA 
ENDROOT
BRANCH   3   6
HETATM    6  C   UNL     1     -11.689  12.667  69.173  1.00  0.00    -0.321 C  
BRANCH   6   7
HETATM    7  C   UNL     1     -12.265  11.286  69.499  1.00  0.00    -0.256 C  
HETATM    8  O   UNL     1     -11.904  10.356  68.458  1.00  0.00    -0.690 OA 
HETATM    9  H   UNL     1     -12.262   9.499  68.661  1.00  0.00     0.000 HD 
BRANCH   7  10
HETATM   10  C   UNL     1     -11.699  10.717  70.818  1.00  0.00    -0.298 C  
HETATM   11  H   UNL     1     -12.450  10.020  72.504  1.00  0.00     0.000 HD 
HETATM   12  O   UNL     1     -12.799  10.370  71.692  1.00  0.00    -0.404 OA 
BRANCH  10  13
HETATM   13  C   UNL     1     -10.820   9.458  70.695  1.00  0.00    -0.283 C  
HETATM   14  O   UNL     1     -11.708   8.358  70.404  1.00  0.00    -0.462 OA 
HETATM   15  H   UNL     1     -11.167   7.582  70.328  1.00  0.00     0.000 HD 
BRANCH  13  16
HETATM   16  C   UNL     1      -9.968   9.116  71.931  1.00  0.00    -0.094 C  
HETATM   17  H   UNL     1      -8.067   8.803  72.285  1.00  0.00     0.000 HD 
HETATM   18  O   UNL     1      -8.592   9.013  71.522  1.00  0.00    -0.303 OA 
BRANCH  16  19
HETATM   19  C   UNL     1     -10.404   7.822  72.626  1.00  0.00    -0.292 C  
BRANCH  19  20
HETATM   20  O   UNL     1      -9.473   6.791  72.271  1.00  0.00    -0.144 OA 
HETATM   21  S   UNL     1     -10.107   5.382  71.761  1.00  0.00    -0.203 S  
HETATM   22  C   UNL     1      -8.574   4.533  71.463  1.00  0.00    -0.114 C  
HETATM   23  O   UNL     1     -10.772   5.609  70.494  1.00  0.00    -0.278 OA 
HETATM   24  O   UNL     1     -10.776   4.753  72.881  1.00  0.00    -0.207 OA 
ENDBRANCH  19  20
ENDBRANCH  16  19
ENDBRANCH  13  16
ENDBRANCH  10  13
ENDBRANCH   7  10
ENDBRANCH   6   7
ENDBRANCH   3   6
TORSDOF 7
ENDMDL
MODEL      127
REMARK 921   NORMALIZED FREE ENERGY PREDICTED BY IDOCK:   -4.29 KCAL/MOL
REMARK 922        TOTAL FREE ENERGY PREDICTED BY IDOCK:   -7.28 KCAL/MOL
REMARK 923 INTER-LIGAND FREE ENERGY PREDICTED BY IDOCK:   -6.45 KCAL/MOL
REMARK 924 INTRA-LIGAND FREE ENERGY PREDICTED BY IDOCK:   -0.84 KCAL/MOL
REMARK 927      BINDING AFFINITY PREDICTED BY RF-SCORE:    0.00 PKD
ROOT
HETATM    1  C   UNL     1      -6.582  20.700  66.458  1.00  0.00    -0.262 C  
HETATM    2  S   UNL     1      -6.956  19.078  67.074  1.00  0.00    -0.199 S  
HETATM    3  O   UNL     1      -8.052  18.610  65.948  1.00  0.00    -0.483 OA 
HETATM    4  O   UNL     1      -5.778  18.250  66.931  1.00  0.00    -0.138 OA 
HETATM    5  O   UNL     1      -7.647  19.215  68.340  1.00  0.00    -0.285 OA 
ENDROOT
BRANCH   3   6
HETATM    6  C   UNL     1      -8.561  17.287  66.144  1.00  0.00    -0.172 C  
BRANCH   6   7
HETATM    7  C   UNL     1      -9.966  17.294  66.755  1.00  0.00    -0.301 C  
HETATM    8  O   UNL     1     -10.436  18.652  66.863  1.00  0.00    -0.375 OA 
HETATM    9  H   UNL     1     -11.308  18.657  67.241  1.00  0.00     0.000 HD 
BRANCH   7  10
HETATM   10  C   UNL     1     -10.985  16.539  65.875  1.00  0.00     0.029 C  
HETATM   11  H   UNL     1     -11.558  16.606  63.988  1.00  0.00     0.000 HD 
HETATM   12  O   UNL     1     -10.931  17.071  64.530  1.00  0.00    -1.031 OA 
BRANCH  10  13
HETATM   13  C   UNL     1     -10.785  15.017  65.754  1.00  0.00    -0.342 C  
HETATM   14  O   UNL     1     -10.467  14.747  64.372  1.00  0.00    -0.505 OA 
HETATM   15  H   UNL     1     -10.344  13.809  64.298  1.00  0.00     0.000 HD 
BRANCH  13  16
HETATM   16  C   UNL     1     -11.983  14.151  66.184  1.00  0.00    -0.422 C  
HETATM   17  H   UNL     1     -12.928  13.793  67.863  1.00  0.00     0.000 HD 
HETATM   18  O   UNL     1     -12.189  14.327  67.598  1.00  0.00    -0.337 OA 
BRANCH  16  19
HETATM   19  C   UNL     1     -11.798  12.663  65.865  1.00  0.00    -0.444 C  
BRANCH  19  20
HETATM   20  O   UNL     1     -10.422  12.328  66.087  1.00  0.00    -0.232 OA 
HETATM   21  S   UNL     1     -10.059  10.744  66.143  1.00  0.00    -0.249 S  
HETATM   22  C   UNL     1      -8.311  10.916  66.412  1.00  0.00    -0.162 C  
HETATM   23  O   UNL     1     -10.278  10.175  64.829  1.00  0.00    -0.296 OA 
HETATM   24  O   UNL     1     -10.658  10.182  67.336  1.00  0.00    -0.238 OA 
ENDBRANCH  19  20
ENDBRANCH  16  19
ENDBRANCH  13  16
ENDBRANCH  10  13
ENDBRANCH   7  10
ENDBRANCH   6   7
ENDBRANCH   3   6
TORSDOF 7
ENDMDL
MODEL      128
REMARK 921   NORMALIZED FREE ENERGY PREDICTED BY IDOCK:   -4.27 KCAL/MOL
REMARK 922        TOTAL FREE ENERGY PREDICTED BY IDOCK:   -7.27 KCAL/MOL
REMARK 923 INTER-LIGAND FREE ENERGY PREDICTED BY IDOCK:   -6.42 KCAL/MOL
REMARK 924 INTRA-LIGAND FREE ENERGY PREDICTED BY IDOCK:   -0.84 KCAL/MOL
REMARK 927      BINDING AFFINITY PREDICTED BY RF-SCORE:    0.00 PKD
ROOT
HETATM    1  C   UNL     1     -12.365  12.369  63.613  1.00  0.00    -0.548 C  
HETATM    2  S   UNL     1     -12.075  13.278  65.109  1.00  0.00    -0.442 S  
HETATM    3  O   UNL     1     -11.981  12.030  66.167  1.00  0.00    -0.581 OA 
HETATM    4  O   UNL     1     -10.771  13.899  65.023  1.00  0.00    -0.338 OA 
HETATM    5  O   UNL     1     -13.267  14.040  65.423  1.00  0.00    -0.761 OA 
ENDROOT
BRANCH   3   6
HETATM    6  C   UNL     1     -11.723  12.428  67.518  1.00  0.00    -0.357 C  
BRANCH   6   7
HETATM    7  C   UNL     1     -10.554  11.654  68.133  1.00  0.00    -0.201 C  
HETATM    8  O   UNL     1      -9.554  12.582  68.599  1.00  0.00    -0.370 OA 
HETATM    9  H   UNL     1      -8.829  12.101  68.981  1.00  0.00     0.000 HD 
BRANCH   7  10
HETATM   10  C   UNL     1     -10.990  10.820  69.357  1.00  0.00    -0.254 C  
HETATM   11  H   UNL     1     -12.695  10.131  70.073  1.00  0.00     0.000 HD 
HETATM   12  O   UNL     1     -12.426  10.644  69.320  1.00  0.00    -0.304 OA 
BRANCH  10  13
HETATM   13  C   UNL     1     -10.378   9.411  69.475  1.00  0.00    -0.214 C  
HETATM   14  O   UNL     1     -11.450   8.522  69.853  1.00  0.00    -0.457 OA 
HETATM   15  H   UNL     1     -11.073   7.654  69.926  1.00  0.00     0.000 HD 
BRANCH  13  16
HETATM   16  C   UNL     1      -9.217   9.270  70.475  1.00  0.00    -0.261 C  
HETATM   17  H   UNL     1      -7.376   9.931  70.595  1.00  0.00     0.000 HD 
HETATM   18  O   UNL     1      -8.092  10.017  69.977  1.00  0.00    -0.180 OA 
BRANCH  16  19
HETATM   19  C   UNL     1      -8.807   7.814  70.724  1.00  0.00    -0.139 C  
BRANCH  19  20
HETATM   20  O   UNL     1      -9.748   7.237  71.639  1.00  0.00    -0.156 OA 
HETATM   21  S   UNL     1      -9.826   5.613  71.674  1.00  0.00    -0.174 S  
HETATM   22  C   UNL     1     -11.077   5.468  72.928  1.00  0.00    -0.299 C  
HETATM   23  O   UNL     1      -8.575   5.104  72.199  1.00  0.00    -0.123 OA 
HETATM   24  O   UNL     1     -10.376   5.157  70.415  1.00  0.00    -0.266 OA 
ENDBRANCH  19  20
ENDBRANCH  16  19
ENDBRANCH  13  16
ENDBRANCH  10  13
ENDBRANCH   7  10
ENDBRANCH   6   7
ENDBRANCH   3   6
TORSDOF 7
ENDMDL
MODEL      129
REMARK 921   NORMALIZED FREE ENERGY PREDICTED BY IDOCK:   -4.27 KCAL/MOL
REMARK 922        TOTAL FREE ENERGY PREDICTED BY IDOCK:   -7.26 KCAL/MOL
REMARK 923 INTER-LIGAND FREE ENERGY PREDICTED BY IDOCK:   -6.00 KCAL/MOL
REMARK 924 INTRA-LIGAND FREE ENERGY PREDICTED BY IDOCK:   -1.26 KCAL/MOL
REMARK 927      BINDING AFFINITY PREDICTED BY RF-SCORE:    0.00 PKD
ROOT
HETATM    1  C   UNL     1      -7.112   6.729  69.966  1.00  0.00    -0.071 C  
HETATM    2  S   UNL     1      -8.884   6.679  70.063  1.00  0.00    -0.141 S  
HETATM    3  O   UNL     1      -9.199   8.287  70.032  1.00  0.00    -0.150 OA 
HETATM    4  O   UNL     1      -9.394   6.093  68.842  1.00  0.00    -0.124 OA 
HETATM    5  O   UNL     1      -9.258   6.176  71.370  1.00  0.00    -0.143 OA 
ENDROOT
BRANCH   3   6
HETATM    6  C   UNL     1     -10.593   8.609  70.077  1.00  0.00    -0.227 C  
BRANCH   6   7
HETATM    7  C   UNL     1     -10.937   9.808  69.188  1.00  0.00    -0.175 C  
HETATM    8  O   UNL     1     -10.513  11.024  69.835  1.00  0.00    -0.446 OA 
HETATM    9  H   UNL     1     -10.726  11.767  69.283  1.00  0.00     0.000 HD 
BRANCH   7  10
HETATM   10  C   UNL     1     -10.207   9.750  67.828  1.00  0.00    -0.208 C  
HETATM   11  H   UNL     1     -10.184   8.530  66.278  1.00  0.00     0.000 HD 
HETATM   12  O   UNL     1     -10.633   8.566  67.115  1.00  0.00    -0.303 OA 
BRANCH  10  13
HETATM   13  C   UNL     1     -10.439  10.942  66.880  1.00  0.00    -0.249 C  
HETATM   14  O   UNL     1     -11.775  11.423  67.136  1.00  0.00    -0.556 OA 
HETATM   15  H   UNL     1     -11.918  12.157  66.551  1.00  0.00     0.000 HD 
BRANCH  13  16
HETATM   16  C   UNL     1     -10.280  10.640  65.379  1.00  0.00    -0.273 C  
HETATM   17  H   UNL     1      -8.794  10.597  64.103  1.00  0.00     0.000 HD 
HETATM   18  O   UNL     1      -8.891  10.784  65.029  1.00  0.00    -0.195 OA 
BRANCH  16  19
HETATM   19  C   UNL     1     -11.139  11.544  64.487  1.00  0.00    -0.273 C  
BRANCH  19  20
HETATM   20  O   UNL     1     -10.744  12.903  64.719  1.00  0.00    -0.301 OA 
HETATM   21  S   UNL     1     -11.926  14.019  64.690  1.00  0.00    -0.452 S  
HETATM   22  C   UNL     1     -10.913  15.438  65.034  1.00  0.00    -0.436 C  
HETATM   23  O   UNL     1     -12.806  13.786  65.818  1.00  0.00    -0.482 OA 
HETATM   24  O   UNL     1     -12.422  14.121  63.333  1.00  0.00    -0.797 OA 
ENDBRANCH  19  20
ENDBRANCH  16  19
ENDBRANCH  13  16
ENDBRANCH  10  13
ENDBRANCH   7  10
ENDBRANCH   6   7
ENDBRANCH   3   6
TORSDOF 7
ENDMDL
MODEL      130
REMARK 921   NORMALIZED FREE ENERGY PREDICTED BY IDOCK:   -4.26 KCAL/MOL
REMARK 922        TOTAL FREE ENERGY PREDICTED BY IDOCK:   -7.25 KCAL/MOL
REMARK 923 INTER-LIGAND FREE ENERGY PREDICTED BY IDOCK:   -5.73 KCAL/MOL
REMARK 924 INTRA-LIGAND FREE ENERGY PREDICTED BY IDOCK:   -1.52 KCAL/MOL
REMARK 927      BINDING AFFINITY PREDICTED BY RF-SCORE:    0.00 PKD
ROOT
HETATM    1  C   UNL     1     -10.921  14.911  69.454  1.00  0.00    -0.271 C  
HETATM    2  S   UNL     1     -11.034  13.416  68.505  1.00  0.00    -0.278 S  
HETATM    3  O   UNL     1     -11.758  12.449  69.613  1.00  0.00    -0.300 OA 
HETATM    4  O   UNL     1     -11.963  13.633  67.416  1.00  0.00    -0.376 OA 
HETATM    5  O   UNL     1      -9.695  12.912  68.280  1.00  0.00    -0.219 OA 
ENDROOT
BRANCH   3   6
HETATM    6  C   UNL     1     -12.023  11.123  69.145  1.00  0.00    -0.343 C  
BRANCH   6   7
HETATM    7  C   UNL     1     -11.316  10.060  69.992  1.00  0.00    -0.275 C  
HETATM    8  O   UNL     1      -9.934  10.428  70.171  1.00  0.00    -0.422 OA 
HETATM    9  H   UNL     1      -9.496   9.769  70.697  1.00  0.00     0.000 HD 
BRANCH   7  10
HETATM   10  C   UNL     1     -11.931   9.942  71.404  1.00  0.00    -0.404 C  
HETATM   11  H   UNL     1     -13.719  10.183  72.201  1.00  0.00     0.000 HD 
HETATM   12  O   UNL     1     -13.341  10.256  71.332  1.00  0.00    -0.357 OA 
BRANCH  10  13
HETATM   13  C   UNL     1     -11.822   8.562  72.081  1.00  0.00    -0.379 C  
HETATM   14  O   UNL     1     -10.436   8.384  72.441  1.00  0.00    -0.310 OA 
HETATM   15  H   UNL     1     -10.368   7.534  72.858  1.00  0.00     0.000 HD 
BRANCH  13  16
HETATM   16  C   UNL     1     -12.290   7.366  71.234  1.00  0.00    -0.346 C  
HETATM   17  H   UNL     1     -13.906   6.261  71.133  1.00  0.00     0.000 HD 
HETATM   18  O   UNL     1     -13.617   6.999  71.656  1.00  0.00    -0.358 OA 
BRANCH  16  19
HETATM   19  C   UNL     1     -11.358   6.153  71.334  1.00  0.00    -0.275 C  
BRANCH  19  20
HETATM   20  O   UNL     1     -10.813   5.902  70.032  1.00  0.00    -0.302 OA 
HETATM   21  S   UNL     1      -9.212   6.126  69.857  1.00  0.00    -0.150 S  
HETATM   22  C   UNL     1      -9.101   5.678  68.141  1.00  0.00    -0.110 C  
HETATM   23  O   UNL     1      -8.519   5.130  70.649  1.00  0.00    -0.111 OA 
HETATM   24  O   UNL     1      -8.934   7.542  69.985  1.00  0.00    -0.143 OA 
ENDBRANCH  19  20
ENDBRANCH  16  19
ENDBRANCH  13  16
ENDBRANCH  10  13
ENDBRANCH   7  10
ENDBRANCH   6   7
ENDBRANCH   3   6
TORSDOF 7
ENDMDL
MODEL      131
REMARK 921   NORMALIZED FREE ENERGY PREDICTED BY IDOCK:   -4.26 KCAL/MOL
REMARK 922        TOTAL FREE ENERGY PREDICTED BY IDOCK:   -7.25 KCAL/MOL
REMARK 923 INTER-LIGAND FREE ENERGY PREDICTED BY IDOCK:   -5.85 KCAL/MOL
REMARK 924 INTRA-LIGAND FREE ENERGY PREDICTED BY IDOCK:   -1.40 KCAL/MOL
REMARK 927      BINDING AFFINITY PREDICTED BY RF-SCORE:    0.00 PKD
ROOT
HETATM    1  C   UNL     1     -11.861  15.166  69.090  1.00  0.00    -0.313 C  
HETATM    2  S   UNL     1     -11.165  14.940  67.474  1.00  0.00    -0.335 S  
HETATM    3  O   UNL     1     -12.462  14.288  66.712  1.00  0.00    -0.376 OA 
HETATM    4  O   UNL     1     -10.908  16.242  66.898  1.00  0.00    -0.271 OA 
HETATM    5  O   UNL     1     -10.137  13.922  67.555  1.00  0.00    -0.239 OA 
ENDROOT
BRANCH   3   6
HETATM    6  C   UNL     1     -12.238  13.992  65.330  1.00  0.00    -0.440 C  
BRANCH   6   7
HETATM    7  C   UNL     1     -12.253  12.485  65.053  1.00  0.00    -0.456 C  
HETATM    8  O   UNL     1     -13.409  12.154  64.258  1.00  0.00    -0.761 OA 
HETATM    9  H   UNL     1     -13.417  11.219  64.087  1.00  0.00     0.000 HD 
BRANCH   7  10
HETATM   10  C   UNL     1     -11.015  12.031  64.250  1.00  0.00    -0.346 C  
HETATM   11  H   UNL     1      -9.454  12.911  63.426  1.00  0.00     0.000 HD 
HETATM   12  O   UNL     1     -10.216  13.191  63.920  1.00  0.00    -0.365 OA 
BRANCH  10  13
HETATM   13  C   UNL     1     -10.075  11.034  64.955  1.00  0.00    -0.300 C  
HETATM   14  O   UNL     1      -9.451  11.749  66.041  1.00  0.00    -0.225 OA 
HETATM   15  H   UNL     1      -8.871  11.135  66.475  1.00  0.00     0.000 HD 
BRANCH  13  16
HETATM   16  C   UNL     1      -8.990  10.400  64.066  1.00  0.00    -0.228 C  
HETATM   17  H   UNL     1      -8.895   9.721  62.230  1.00  0.00     0.000 HD 
HETATM   18  O   UNL     1      -9.565  10.112  62.778  1.00  0.00    -0.302 OA 
BRANCH  16  19
HETATM   19  C   UNL     1      -8.388   9.124  64.666  1.00  0.00    -0.172 C  
BRANCH  19  20
HETATM   20  O   UNL     1      -9.270   8.657  65.695  1.00  0.00    -0.200 OA 
HETATM   21  S   UNL     1      -8.599   8.345  67.143  1.00  0.00    -0.123 S  
HETATM   22  C   UNL     1     -10.082   7.841  67.982  1.00  0.00    -0.186 C  
HETATM   23  O   UNL     1      -8.137   9.594  67.714  1.00  0.00    -0.111 OA 
HETATM   24  O   UNL     1      -7.731   7.194  67.003  1.00  0.00    -0.103 OA 
ENDBRANCH  19  20
ENDBRANCH  16  19
ENDBRANCH  13  16
ENDBRANCH  10  13
ENDBRANCH   7  10
ENDBRANCH   6   7
ENDBRANCH   3   6
TORSDOF 7
ENDMDL
MODEL      132
REMARK 921   NORMALIZED FREE ENERGY PREDICTED BY IDOCK:   -4.26 KCAL/MOL
REMARK 922        TOTAL FREE ENERGY PREDICTED BY IDOCK:   -7.24 KCAL/MOL
REMARK 923 INTER-LIGAND FREE ENERGY PREDICTED BY IDOCK:   -5.59 KCAL/MOL
REMARK 924 INTRA-LIGAND FREE ENERGY PREDICTED BY IDOCK:   -1.66 KCAL/MOL
REMARK 927      BINDING AFFINITY PREDICTED BY RF-SCORE:    0.00 PKD
ROOT
HETATM    1  C   UNL     1     -12.107  14.238  66.899  1.00  0.00    -0.409 C  
HETATM    2  S   UNL     1     -11.697  14.054  65.183  1.00  0.00    -0.370 S  
HETATM    3  O   UNL     1     -11.863  12.430  65.040  1.00  0.00    -0.366 OA 
HETATM    4  O   UNL     1     -12.731  14.687  64.393  1.00  0.00    -0.636 OA 
HETATM    5  O   UNL     1     -10.294  14.376  65.009  1.00  0.00    -0.402 OA 
ENDROOT
BRANCH   3   6
HETATM    6  C   UNL     1     -11.613  11.932  63.722  1.00  0.00    -0.462 C  
BRANCH   6   7
HETATM    7  C   UNL     1     -10.290  11.166  63.636  1.00  0.00    -0.389 C  
HETATM    8  O   UNL     1      -9.224  12.082  63.316  1.00  0.00    -0.650 OA 
HETATM    9  H   UNL     1      -8.403  11.607  63.263  1.00  0.00     0.000 HD 
BRANCH   7  10
HETATM   10  C   UNL     1      -9.916  10.501  64.978  1.00  0.00    -0.322 C  
HETATM   11  H   UNL     1      -9.042   8.823  65.537  1.00  0.00     0.000 HD 
HETATM   12  O   UNL     1      -9.272   9.232  64.711  1.00  0.00    -0.209 OA 
BRANCH  10  13
HETATM   13  C   UNL     1      -8.961  11.295  65.890  1.00  0.00    -0.197 C  
HETATM   14  O   UNL     1      -7.623  10.866  65.565  1.00  0.00    -0.337 OA 
HETATM   15  H   UNL     1      -7.034  11.355  66.127  1.00  0.00     0.000 HD 
BRANCH  13  16
HETATM   16  C   UNL     1      -9.199  11.138  67.402  1.00  0.00    -0.153 C  
HETATM   17  H   UNL     1      -9.433  12.351  68.923  1.00  0.00     0.000 HD 
HETATM   18  O   UNL     1      -9.286  12.449  67.989  1.00  0.00    -0.191 OA 
BRANCH  16  19
HETATM   19  C   UNL     1      -8.105  10.324  68.103  1.00  0.00    -0.110 C  
BRANCH  19  20
HETATM   20  O   UNL     1      -8.321   8.938  67.805  1.00  0.00    -0.110 OA 
HETATM   21  S   UNL     1      -6.994   8.034  67.549  1.00  0.00    -0.076 S  
HETATM   22  C   UNL     1      -7.820   6.488  67.256  1.00  0.00    -0.105 C  
HETATM   23  O   UNL     1      -6.254   7.943  68.791  1.00  0.00    -0.038 OA 
HETATM   24  O   UNL     1      -6.377   8.472  66.314  1.00  0.00    -0.055 OA 
ENDBRANCH  19  20
ENDBRANCH  16  19
ENDBRANCH  13  16
ENDBRANCH  10  13
ENDBRANCH   7  10
ENDBRANCH   6   7
ENDBRANCH   3   6
TORSDOF 7
ENDMDL
MODEL      133
REMARK 921   NORMALIZED FREE ENERGY PREDICTED BY IDOCK:   -4.25 KCAL/MOL
REMARK 922        TOTAL FREE ENERGY PREDICTED BY IDOCK:   -7.24 KCAL/MOL
REMARK 923 INTER-LIGAND FREE ENERGY PREDICTED BY IDOCK:   -6.40 KCAL/MOL
REMARK 924 INTRA-LIGAND FREE ENERGY PREDICTED BY IDOCK:   -0.84 KCAL/MOL
REMARK 927      BINDING AFFINITY PREDICTED BY RF-SCORE:    0.00 PKD
ROOT
HETATM    1  C   UNL     1      -8.639   9.256  64.021  1.00  0.00    -0.186 C  
HETATM    2  S   UNL     1      -8.640   9.215  65.795  1.00  0.00    -0.163 S  
HETATM    3  O   UNL     1      -9.554  10.544  66.093  1.00  0.00    -0.176 OA 
HETATM    4  O   UNL     1      -9.381   8.049  66.227  1.00  0.00    -0.195 OA 
HETATM    5  O   UNL     1      -7.295   9.486  66.262  1.00  0.00    -0.092 OA 
ENDROOT
BRANCH   3   6
HETATM    6  C   UNL     1      -9.776  10.799  67.483  1.00  0.00    -0.166 C  
BRANCH   6   7
HETATM    7  C   UNL     1     -11.267  10.902  67.819  1.00  0.00    -0.317 C  
HETATM    8  O   UNL     1     -11.599   9.936  68.837  1.00  0.00    -0.486 OA 
HETATM    9  H   UNL     1     -12.524  10.001  69.045  1.00  0.00     0.000 HD 
BRANCH   7  10
HETATM   10  C   UNL     1     -11.640  12.289  68.385  1.00  0.00    -0.326 C  
HETATM   11  H   UNL     1     -12.001  13.046  70.170  1.00  0.00     0.000 HD 
HETATM   12  O   UNL     1     -11.772  12.192  69.823  1.00  0.00    -0.310 OA 
BRANCH  10  13
HETATM   13  C   UNL     1     -10.639  13.428  68.111  1.00  0.00    -0.245 C  
HETATM   14  O   UNL     1     -10.161  13.879  69.396  1.00  0.00    -0.411 OA 
HETATM   15  H   UNL     1      -9.544  14.581  69.227  1.00  0.00     0.000 HD 
BRANCH  13  16
HETATM   16  C   UNL     1     -11.193  14.626  67.320  1.00  0.00    -0.337 C  
HETATM   17  H   UNL     1     -12.233  16.232  67.744  1.00  0.00     0.000 HD 
HETATM   18  O   UNL     1     -11.892  15.492  68.233  1.00  0.00    -0.330 OA 
BRANCH  16  19
HETATM   19  C   UNL     1     -12.125  14.214  66.175  1.00  0.00    -0.435 C  
BRANCH  19  20
HETATM   20  O   UNL     1     -11.357  13.468  65.221  1.00  0.00    -0.287 OA 
HETATM   21  S   UNL     1     -12.160  12.896  63.928  1.00  0.00    -0.496 S  
HETATM   22  C   UNL     1     -10.781  12.112  63.127  1.00  0.00    -0.173 C  
HETATM   23  O   UNL     1     -12.594  14.020  63.122  1.00  0.00    -0.733 OA 
HETATM   24  O   UNL     1     -13.078  11.871  64.380  1.00  0.00    -0.535 OA 
ENDBRANCH  19  20
ENDBRANCH  16  19
ENDBRANCH  13  16
ENDBRANCH  10  13
ENDBRANCH   7  10
ENDBRANCH   6   7
ENDBRANCH   3   6
TORSDOF 7
ENDMDL
MODEL      134
REMARK 921   NORMALIZED FREE ENERGY PREDICTED BY IDOCK:   -4.23 KCAL/MOL
REMARK 922        TOTAL FREE ENERGY PREDICTED BY IDOCK:   -7.20 KCAL/MOL
REMARK 923 INTER-LIGAND FREE ENERGY PREDICTED BY IDOCK:   -6.56 KCAL/MOL
REMARK 924 INTRA-LIGAND FREE ENERGY PREDICTED BY IDOCK:   -0.64 KCAL/MOL
REMARK 927      BINDING AFFINITY PREDICTED BY RF-SCORE:    0.00 PKD
ROOT
HETATM    1  C   UNL     1      -7.468  17.389  68.291  1.00  0.00    -0.227 C  
HETATM    2  S   UNL     1      -8.970  17.271  67.353  1.00  0.00    -0.224 S  
HETATM    3  O   UNL     1      -9.296  15.679  67.568  1.00  0.00    -0.204 OA 
HETATM    4  O   UNL     1      -9.994  18.039  68.029  1.00  0.00    -0.309 OA 
HETATM    5  O   UNL     1      -8.656  17.477  65.954  1.00  0.00    -0.528 OA 
ENDROOT
BRANCH   3   6
HETATM    6  C   UNL     1     -10.501  15.239  66.933  1.00  0.00    -0.289 C  
BRANCH   6   7
HETATM    7  C   UNL     1     -11.596  14.898  67.948  1.00  0.00    -0.344 C  
HETATM    8  O   UNL     1     -12.570  14.032  67.333  1.00  0.00    -0.460 OA 
HETATM    9  H   UNL     1     -13.249  13.820  67.964  1.00  0.00     0.000 HD 
BRANCH   7  10
HETATM   10  C   UNL     1     -11.037  14.141  69.172  1.00  0.00    -0.262 C  
HETATM   11  H   UNL     1     -10.346  14.632  70.954  1.00  0.00     0.000 HD 
HETATM   12  O   UNL     1     -10.690  15.098  70.201  1.00  0.00    -0.260 OA 
BRANCH  10  13
HETATM   13  C   UNL     1     -11.981  13.114  69.827  1.00  0.00    -0.314 C  
HETATM   14  O   UNL     1     -11.980  13.393  71.243  1.00  0.00    -0.358 OA 
HETATM   15  H   UNL     1     -12.561  12.760  71.647  1.00  0.00     0.000 HD 
BRANCH  13  16
HETATM   16  C   UNL     1     -11.622  11.636  69.594  1.00  0.00    -0.330 C  
HETATM   17  H   UNL     1     -11.892  10.333  68.155  1.00  0.00     0.000 HD 
HETATM   18  O   UNL     1     -12.114  11.245  68.299  1.00  0.00    -0.619 OA 
BRANCH  16  19
HETATM   19  C   UNL     1     -12.187  10.701  70.669  1.00  0.00    -0.365 C  
BRANCH  19  20
HETATM   20  O   UNL     1     -11.084  10.079  71.342  1.00  0.00    -0.259 OA 
HETATM   21  S   UNL     1     -11.305   8.545  71.837  1.00  0.00    -0.354 S  
HETATM   22  C   UNL     1      -9.696   8.299  72.551  1.00  0.00    -0.298 C  
HETATM   23  O   UNL     1     -11.434   7.699  70.668  1.00  0.00    -0.282 OA 
HETATM   24  O   UNL     1     -12.288   8.548  72.900  1.00  0.00    -0.275 OA 
ENDBRANCH  19  20
ENDBRANCH  16  19
ENDBRANCH  13  16
ENDBRANCH  10  13
ENDBRANCH   7  10
ENDBRANCH   6   7
ENDBRANCH   3   6
TORSDOF 7
ENDMDL
MODEL      135
REMARK 921   NORMALIZED FREE ENERGY PREDICTED BY IDOCK:   -4.23 KCAL/MOL
REMARK 922        TOTAL FREE ENERGY PREDICTED BY IDOCK:   -7.20 KCAL/MOL
REMARK 923 INTER-LIGAND FREE ENERGY PREDICTED BY IDOCK:   -6.52 KCAL/MOL
REMARK 924 INTRA-LIGAND FREE ENERGY PREDICTED BY IDOCK:   -0.68 KCAL/MOL
REMARK 927      BINDING AFFINITY PREDICTED BY RF-SCORE:    0.00 PKD
ROOT
HETATM    1  C   UNL     1      -8.443   8.923  63.948  1.00  0.00    -0.136 C  
HETATM    2  S   UNL     1      -9.284   9.845  65.209  1.00  0.00    -0.246 S  
HETATM    3  O   UNL     1     -10.382  10.632  64.279  1.00  0.00    -0.360 OA 
HETATM    4  O   UNL     1      -9.995   8.915  66.060  1.00  0.00    -0.270 OA 
HETATM    5  O   UNL     1      -8.368  10.830  65.747  1.00  0.00    -0.164 OA 
ENDROOT
BRANCH   3   6
HETATM    6  C   UNL     1     -11.269  11.480  65.015  1.00  0.00    -0.157 C  
BRANCH   6   7
HETATM    7  C   UNL     1     -11.350  12.887  64.415  1.00  0.00    -0.358 C  
HETATM    8  O   UNL     1     -12.356  12.912  63.383  1.00  0.00    -0.653 OA 
HETATM    9  H   UNL     1     -12.406  13.786  63.011  1.00  0.00     0.000 HD 
BRANCH   7  10
HETATM   10  C   UNL     1     -11.763  13.942  65.464  1.00  0.00    -0.349 C  
HETATM   11  H   UNL     1     -13.445  14.815  66.016  1.00  0.00     0.000 HD 
HETATM   12  O   UNL     1     -13.190  14.166  65.370  1.00  0.00    -0.741 OA 
BRANCH  10  13
HETATM   13  C   UNL     1     -11.470  13.591  66.936  1.00  0.00    -0.344 C  
HETATM   14  O   UNL     1     -12.348  14.406  67.740  1.00  0.00    -0.620 OA 
HETATM   15  H   UNL     1     -12.166  14.190  68.647  1.00  0.00     0.000 HD 
BRANCH  13  16
HETATM   16  C   UNL     1     -10.015  13.798  67.392  1.00  0.00    -0.237 C  
HETATM   17  H   UNL     1      -8.705  12.769  68.424  1.00  0.00     0.000 HD 
HETATM   18  O   UNL     1      -9.603  12.641  68.143  1.00  0.00    -0.210 OA 
BRANCH  16  19
HETATM   19  C   UNL     1      -9.821  15.063  68.235  1.00  0.00    -0.219 C  
BRANCH  19  20
HETATM   20  O   UNL     1      -9.673  16.175  67.342  1.00  0.00    -0.229 OA 
HETATM   21  S   UNL     1      -9.203  17.584  68.005  1.00  0.00    -0.283 S  
HETATM   22  C   UNL     1      -9.175  18.545  66.511  1.00  0.00    -0.310 C  
HETATM   23  O   UNL     1      -7.846  17.432  68.492  1.00  0.00    -0.249 OA 
HETATM   24  O   UNL     1     -10.275  18.069  68.849  1.00  0.00    -0.379 OA 
ENDBRANCH  19  20
ENDBRANCH  16  19
ENDBRANCH  13  16
ENDBRANCH  10  13
ENDBRANCH   7  10
ENDBRANCH   6   7
ENDBRANCH   3   6
TORSDOF 7
ENDMDL
MODEL      136
REMARK 921   NORMALIZED FREE ENERGY PREDICTED BY IDOCK:   -4.22 KCAL/MOL
REMARK 922        TOTAL FREE ENERGY PREDICTED BY IDOCK:   -7.20 KCAL/MOL
REMARK 923 INTER-LIGAND FREE ENERGY PREDICTED BY IDOCK:   -6.50 KCAL/MOL
REMARK 924 INTRA-LIGAND FREE ENERGY PREDICTED BY IDOCK:   -0.70 KCAL/MOL
REMARK 927      BINDING AFFINITY PREDICTED BY RF-SCORE:    0.00 PKD
ROOT
HETATM    1  C   UNL     1      -6.411  18.003  67.913  1.00  0.00    -0.188 C  
HETATM    2  S   UNL     1      -7.572  16.828  68.563  1.00  0.00    -0.228 S  
HETATM    3  O   UNL     1      -7.701  15.834  67.266  1.00  0.00    -0.161 OA 
HETATM    4  O   UNL     1      -6.932  16.096  69.634  1.00  0.00    -0.205 OA 
HETATM    5  O   UNL     1      -8.846  17.493  68.743  1.00  0.00    -0.278 OA 
ENDROOT
BRANCH   3   6
HETATM    6  C   UNL     1      -8.580  14.723  67.469  1.00  0.00    -0.187 C  
BRANCH   6   7
HETATM    7  C   UNL     1      -9.903  14.890  66.715  1.00  0.00    -0.246 C  
HETATM    8  O   UNL     1      -9.835  14.185  65.460  1.00  0.00    -0.465 OA 
HETATM    9  H   UNL     1     -10.656  14.289  64.993  1.00  0.00     0.000 HD 
BRANCH   7  10
HETATM   10  C   UNL     1     -11.095  14.295  67.495  1.00  0.00    -0.298 C  
HETATM   11  H   UNL     1     -12.939  13.738  67.066  1.00  0.00     0.000 HD 
HETATM   12  O   UNL     1     -12.205  14.105  66.586  1.00  0.00    -0.448 OA 
BRANCH  10  13
HETATM   13  C   UNL     1     -10.851  12.937  68.181  1.00  0.00    -0.236 C  
HETATM   14  O   UNL     1     -11.317  11.921  67.269  1.00  0.00    -0.294 OA 
HETATM   15  H   UNL     1     -11.167  11.084  67.691  1.00  0.00     0.000 HD 
BRANCH  13  16
HETATM   16  C   UNL     1     -11.529  12.750  69.549  1.00  0.00    -0.225 C  
HETATM   17  H   UNL     1     -12.650  11.378  70.387  1.00  0.00     0.000 HD 
HETATM   18  O   UNL     1     -12.232  11.494  69.542  1.00  0.00    -0.289 OA 
BRANCH  16  19
HETATM   19  C   UNL     1     -12.495  13.886  69.905  1.00  0.00    -0.229 C  
BRANCH  19  20
HETATM   20  O   UNL     1     -12.187  14.333  71.231  1.00  0.00    -0.334 OA 
HETATM   21  S   UNL     1     -13.434  14.444  72.270  1.00  0.00    -0.479 S  
HETATM   22  C   UNL     1     -12.510  15.001  73.682  1.00  0.00    -0.532 C  
HETATM   23  O   UNL     1     -13.934  13.110  72.532  1.00  0.00    -0.676 OA 
HETATM   24  O   UNL     1     -14.299  15.518  71.828  1.00  0.00    -0.498 OA 
ENDBRANCH  19  20
ENDBRANCH  16  19
ENDBRANCH  13  16
ENDBRANCH  10  13
ENDBRANCH   7  10
ENDBRANCH   6   7
ENDBRANCH   3   6
TORSDOF 7
ENDMDL
MODEL      137
REMARK 921   NORMALIZED FREE ENERGY PREDICTED BY IDOCK:   -4.21 KCAL/MOL
REMARK 922        TOTAL FREE ENERGY PREDICTED BY IDOCK:   -7.18 KCAL/MOL
REMARK 923 INTER-LIGAND FREE ENERGY PREDICTED BY IDOCK:   -6.26 KCAL/MOL
REMARK 924 INTRA-LIGAND FREE ENERGY PREDICTED BY IDOCK:   -0.92 KCAL/MOL
REMARK 927      BINDING AFFINITY PREDICTED BY RF-SCORE:    0.00 PKD
ROOT
HETATM    1  C   UNL     1     -11.623   9.532  71.648  1.00  0.00    -0.381 C  
HETATM    2  S   UNL     1     -12.173  10.811  70.548  1.00  0.00    -0.396 S  
HETATM    3  O   UNL     1     -10.808  11.007  69.661  1.00  0.00    -0.240 OA 
HETATM    4  O   UNL     1     -13.199  10.264  69.686  1.00  0.00     0.201 OA 
HETATM    5  O   UNL     1     -12.382  12.021  71.317  1.00  0.00    -0.255 OA 
ENDROOT
BRANCH   3   6
HETATM    6  C   UNL     1     -10.920  11.991  68.628  1.00  0.00    -0.240 C  
BRANCH   6   7
HETATM    7  C   UNL     1     -10.715  11.389  67.235  1.00  0.00    -0.241 C  
HETATM    8  O   UNL     1     -11.655  10.315  67.032  1.00  0.00    -0.134 OA 
HETATM    9  H   UNL     1     -11.528   9.942  66.167  1.00  0.00     0.000 HD 
BRANCH   7  10
HETATM   10  C   UNL     1     -10.970  12.420  66.114  1.00  0.00    -0.286 C  
HETATM   11  H   UNL     1     -12.425  12.801  64.837  1.00  0.00     0.000 HD 
HETATM   12  O   UNL     1     -12.268  12.167  65.527  1.00  0.00    -0.549 OA 
BRANCH  10  13
HETATM   13  C   UNL     1     -10.960  13.902  66.537  1.00  0.00    -0.300 C  
HETATM   14  O   UNL     1     -12.332  14.350  66.511  1.00  0.00    -0.458 OA 
HETATM   15  H   UNL     1     -12.326  15.263  66.771  1.00  0.00     0.000 HD 
BRANCH  13  16
HETATM   16  C   UNL     1     -10.098  14.837  65.670  1.00  0.00    -0.366 C  
HETATM   17  H   UNL     1      -8.349  15.702  65.846  1.00  0.00     0.000 HD 
HETATM   18  O   UNL     1      -8.881  15.125  66.382  1.00  0.00    -0.285 OA 
BRANCH  16  19
HETATM   19  C   UNL     1     -10.809  16.144  65.301  1.00  0.00    -0.336 C  
BRANCH  19  20
HETATM   20  O   UNL     1     -10.766  17.011  66.442  1.00  0.00    -0.214 OA 
HETATM   21  S   UNL     1     -10.138  18.493  66.207  1.00  0.00    -0.381 S  
HETATM   22  C   UNL     1     -10.343  19.097  67.866  1.00  0.00    -0.414 C  
HETATM   23  O   UNL     1     -11.020  19.231  65.326  1.00  0.00    -0.487 OA 
HETATM   24  O   UNL     1      -8.722  18.349  65.937  1.00  0.00    -0.497 OA 
ENDBRANCH  19  20
ENDBRANCH  16  19
ENDBRANCH  13  16
ENDBRANCH  10  13
ENDBRANCH   7  10
ENDBRANCH   6   7
ENDBRANCH   3   6
TORSDOF 7
ENDMDL
MODEL      138
REMARK 921   NORMALIZED FREE ENERGY PREDICTED BY IDOCK:   -4.21 KCAL/MOL
REMARK 922        TOTAL FREE ENERGY PREDICTED BY IDOCK:   -7.17 KCAL/MOL
REMARK 923 INTER-LIGAND FREE ENERGY PREDICTED BY IDOCK:   -5.92 KCAL/MOL
REMARK 924 INTRA-LIGAND FREE ENERGY PREDICTED BY IDOCK:   -1.25 KCAL/MOL
REMARK 927      BINDING AFFINITY PREDICTED BY RF-SCORE:    0.00 PKD
ROOT
HETATM    1  C   UNL     1      -9.756  13.129  67.220  1.00  0.00    -0.230 C  
HETATM    2  S   UNL     1     -10.244  11.475  67.635  1.00  0.00    -0.188 S  
HETATM    3  O   UNL     1     -10.252  11.600  69.270  1.00  0.00    -0.050 OA 
HETATM    4  O   UNL     1     -11.605  11.272  67.189  1.00  0.00    -0.513 OA 
HETATM    5  O   UNL     1      -9.172  10.573  67.263  1.00  0.00    -0.143 OA 
ENDROOT
BRANCH   3   6
HETATM    6  C   UNL     1     -10.638  10.399  69.945  1.00  0.00    -0.251 C  
BRANCH   6   7
HETATM    7  C   UNL     1     -12.012  10.528  70.610  1.00  0.00    -0.357 C  
HETATM    8  O   UNL     1     -13.044  10.373  69.617  1.00  0.00    -0.550 OA 
HETATM    9  H   UNL     1     -13.896  10.453  70.030  1.00  0.00     0.000 HD 
BRANCH   7  10
HETATM   10  C   UNL     1     -12.248   9.431  71.671  1.00  0.00    -0.390 C  
HETATM   11  H   UNL     1     -13.637   9.027  73.013  1.00  0.00     0.000 HD 
HETATM   12  O   UNL     1     -13.492   9.702  72.360  1.00  0.00    -0.432 OA 
BRANCH  10  13
HETATM   13  C   UNL     1     -12.341   7.985  71.148  1.00  0.00    -0.218 C  
HETATM   14  O   UNL     1     -13.743   7.650  71.102  1.00  0.00    -0.588 OA 
HETATM   15  H   UNL     1     -13.801   6.758  70.779  1.00  0.00     0.000 HD 
BRANCH  13  16
HETATM   16  C   UNL     1     -11.586   6.928  71.973  1.00  0.00    -0.285 C  
HETATM   17  H   UNL     1     -10.136   6.945  73.291  1.00  0.00     0.000 HD 
HETATM   18  O   UNL     1     -10.601   7.597  72.781  1.00  0.00    -0.263 OA 
BRANCH  16  19
HETATM   19  C   UNL     1     -10.911   5.857  71.109  1.00  0.00    -0.260 C  
BRANCH  19  20
HETATM   20  O   UNL     1     -11.256   6.107  69.740  1.00  0.00    -0.384 OA 
HETATM   21  S   UNL     1     -10.019   6.250  68.693  1.00  0.00    -0.154 S  
HETATM   22  C   UNL     1     -10.988   6.522  67.227  1.00  0.00    -0.400 C  
HETATM   23  O   UNL     1      -9.356   4.967  68.586  1.00  0.00    -0.117 OA 
HETATM   24  O   UNL     1      -9.299   7.467  69.005  1.00  0.00    -0.147 OA 
ENDBRANCH  19  20
ENDBRANCH  16  19
ENDBRANCH  13  16
ENDBRANCH  10  13
ENDBRANCH   7  10
ENDBRANCH   6   7
ENDBRANCH   3   6
TORSDOF 7
ENDMDL
MODEL      139
REMARK 921   NORMALIZED FREE ENERGY PREDICTED BY IDOCK:   -4.19 KCAL/MOL
REMARK 922        TOTAL FREE ENERGY PREDICTED BY IDOCK:   -7.15 KCAL/MOL
REMARK 923 INTER-LIGAND FREE ENERGY PREDICTED BY IDOCK:   -6.16 KCAL/MOL
REMARK 924 INTRA-LIGAND FREE ENERGY PREDICTED BY IDOCK:   -1.00 KCAL/MOL
REMARK 927      BINDING AFFINITY PREDICTED BY RF-SCORE:    0.00 PKD
ROOT
HETATM    1  C   UNL     1     -12.234  14.918  64.313  1.00  0.00    -0.344 C  
HETATM    2  S   UNL     1     -11.999  13.159  64.276  1.00  0.00    -0.434 S  
HETATM    3  O   UNL     1     -10.738  13.035  65.316  1.00  0.00    -0.286 OA 
HETATM    4  O   UNL     1     -13.152  12.530  64.884  1.00  0.00    -0.833 OA 
HETATM    5  O   UNL     1     -11.528  12.786  62.958  1.00  0.00    -0.263 OA 
ENDROOT
BRANCH   3   6
HETATM    6  C   UNL     1     -10.294  11.692  65.537  1.00  0.00    -0.264 C  
BRANCH   6   7
HETATM    7  C   UNL     1     -11.003  11.040  66.728  1.00  0.00    -0.217 C  
HETATM    8  O   UNL     1     -10.732   9.624  66.732  1.00  0.00    -0.180 OA 
HETATM    9  H   UNL     1     -11.172   9.220  67.471  1.00  0.00     0.000 HD 
BRANCH   7  10
HETATM   10  C   UNL     1     -10.496  11.592  68.078  1.00  0.00    -0.194 C  
HETATM   11  H   UNL     1     -10.984  13.082  69.277  1.00  0.00     0.000 HD 
HETATM   12  O   UNL     1     -11.296  12.742  68.446  1.00  0.00    -0.253 OA 
BRANCH  10  13
HETATM   13  C   UNL     1     -10.546  10.621  69.273  1.00  0.00    -0.233 C  
HETATM   14  O   UNL     1     -11.182  11.330  70.358  1.00  0.00    -0.475 OA 
HETATM   15  H   UNL     1     -11.212  10.732  71.094  1.00  0.00     0.000 HD 
BRANCH  13  16
HETATM   16  C   UNL     1      -9.187  10.074  69.744  1.00  0.00    -0.199 C  
HETATM   17  H   UNL     1      -7.764   8.980  68.958  1.00  0.00     0.000 HD 
HETATM   18  O   UNL     1      -8.602   9.317  68.668  1.00  0.00    -0.125 OA 
BRANCH  16  19
HETATM   19  C   UNL     1      -9.290   9.201  70.999  1.00  0.00    -0.263 C  
BRANCH  19  20
HETATM   20  O   UNL     1     -10.346   8.252  70.797  1.00  0.00    -0.191 OA 
HETATM   21  S   UNL     1     -11.416   8.084  72.010  1.00  0.00    -0.334 S  
HETATM   22  C   UNL     1     -12.448   6.859  71.241  1.00  0.00    -0.361 C  
HETATM   23  O   UNL     1     -12.165   9.317  72.137  1.00  0.00    -0.359 OA 
HETATM   24  O   UNL     1     -10.734   7.476  73.135  1.00  0.00    -0.348 OA 
ENDBRANCH  19  20
ENDBRANCH  16  19
ENDBRANCH  13  16
ENDBRANCH  10  13
ENDBRANCH   7  10
ENDBRANCH   6   7
ENDBRANCH   3   6
TORSDOF 7
ENDMDL
MODEL      140
REMARK 921   NORMALIZED FREE ENERGY PREDICTED BY IDOCK:   -4.17 KCAL/MOL
REMARK 922        TOTAL FREE ENERGY PREDICTED BY IDOCK:   -7.13 KCAL/MOL
REMARK 923 INTER-LIGAND FREE ENERGY PREDICTED BY IDOCK:   -6.20 KCAL/MOL
REMARK 924 INTRA-LIGAND FREE ENERGY PREDICTED BY IDOCK:   -0.93 KCAL/MOL
REMARK 927      BINDING AFFINITY PREDICTED BY RF-SCORE:    0.00 PKD
ROOT
HETATM    1  C   UNL     1      -9.980   5.123  67.675  1.00  0.00    -0.161 C  
HETATM    2  S   UNL     1      -9.710   5.116  69.429  1.00  0.00    -0.196 S  
HETATM    3  O   UNL     1     -11.075   5.884  69.913  1.00  0.00    -0.366 OA 
HETATM    4  O   UNL     1      -9.769   3.747  69.896  1.00  0.00    -0.196 OA 
HETATM    5  O   UNL     1      -8.584   5.979  69.724  1.00  0.00    -0.127 OA 
ENDROOT
BRANCH   3   6
HETATM    6  C   UNL     1     -11.188   6.032  71.332  1.00  0.00    -0.262 C  
BRANCH   6   7
HETATM    7  C   UNL     1     -11.164   7.502  71.762  1.00  0.00    -0.246 C  
HETATM    8  O   UNL     1     -10.161   8.208  71.004  1.00  0.00    -0.186 OA 
HETATM    9  H   UNL     1     -10.147   9.120  71.271  1.00  0.00     0.000 HD 
BRANCH   7  10
HETATM   10  C   UNL     1     -12.509   8.209  71.487  1.00  0.00    -0.307 C  
HETATM   11  H   UNL     1     -14.417   7.713  71.562  1.00  0.00     0.000 HD 
HETATM   12  O   UNL     1     -13.589   7.277  71.731  1.00  0.00    -0.356 OA 
BRANCH  10  13
HETATM   13  C   UNL     1     -12.806   9.460  72.336  1.00  0.00    -0.319 C  
HETATM   14  O   UNL     1     -14.204   9.399  72.689  1.00  0.00    -0.755 OA 
HETATM   15  H   UNL     1     -14.388  10.170  73.212  1.00  0.00     0.000 HD 
BRANCH  13  16
HETATM   16  C   UNL     1     -12.504  10.810  71.663  1.00  0.00    -0.275 C  
HETATM   17  H   UNL     1     -13.254  12.619  71.740  1.00  0.00     0.000 HD 
HETATM   18  O   UNL     1     -13.441  11.786  72.155  1.00  0.00    -0.446 OA 
BRANCH  16  19
HETATM   19  C   UNL     1     -12.570  10.749  70.133  1.00  0.00    -0.240 C  
BRANCH  19  20
HETATM   20  O   UNL     1     -11.333  11.256  69.613  1.00  0.00    -0.260 OA 
HETATM   21  S   UNL     1     -11.442  12.411  68.473  1.00  0.00    -0.330 S  
HETATM   22  C   UNL     1      -9.699  12.656  68.226  1.00  0.00    -0.216 C  
HETATM   23  O   UNL     1     -12.003  13.602  69.077  1.00  0.00    -0.334 OA 
HETATM   24  O   UNL     1     -12.001  11.817  67.276  1.00  0.00    -0.618 OA 
ENDBRANCH  19  20
ENDBRANCH  16  19
ENDBRANCH  13  16
ENDBRANCH  10  13
ENDBRANCH   7  10
ENDBRANCH   6   7
ENDBRANCH   3   6
TORSDOF 7
ENDMDL
MODEL      141
REMARK 921   NORMALIZED FREE ENERGY PREDICTED BY IDOCK:   -4.15 KCAL/MOL
REMARK 922        TOTAL FREE ENERGY PREDICTED BY IDOCK:   -7.09 KCAL/MOL
REMARK 923 INTER-LIGAND FREE ENERGY PREDICTED BY IDOCK:   -6.42 KCAL/MOL
REMARK 924 INTRA-LIGAND FREE ENERGY PREDICTED BY IDOCK:   -0.66 KCAL/MOL
REMARK 927      BINDING AFFINITY PREDICTED BY RF-SCORE:    0.00 PKD
ROOT
HETATM    1  C   UNL     1     -10.657  17.936  66.907  1.00  0.00    -0.265 C  
HETATM    2  S   UNL     1     -10.352  16.650  65.722  1.00  0.00    -0.262 S  
HETATM    3  O   UNL     1     -11.140  15.415  66.458  1.00  0.00    -0.308 OA 
HETATM    4  O   UNL     1     -11.057  16.975  64.501  1.00  0.00    -1.098 OA 
HETATM    5  O   UNL     1      -8.936  16.344  65.732  1.00  0.00    -0.455 OA 
ENDROOT
BRANCH   3   6
HETATM    6  C   UNL     1     -11.106  14.185  65.728  1.00  0.00    -0.309 C  
BRANCH   6   7
HETATM    7  C   UNL     1     -11.589  13.001  66.571  1.00  0.00    -0.356 C  
HETATM    8  O   UNL     1     -12.368  12.110  65.749  1.00  0.00    -0.564 OA 
HETATM    9  H   UNL     1     -12.667  11.376  66.272  1.00  0.00     0.000 HD 
BRANCH   7  10
HETATM   10  C   UNL     1     -10.414  12.172  67.134  1.00  0.00    -0.219 C  
HETATM   11  H   UNL     1      -8.452  12.360  67.215  1.00  0.00     0.000 HD 
HETATM   12  O   UNL     1      -9.175  12.870  66.868  1.00  0.00    -0.222 OA 
BRANCH  10  13
HETATM   13  C   UNL     1     -10.443  11.890  68.649  1.00  0.00    -0.212 C  
HETATM   14  O   UNL     1      -9.093  11.561  69.037  1.00  0.00    -0.386 OA 
HETATM   15  H   UNL     1      -9.111  11.387  69.970  1.00  0.00     0.000 HD 
BRANCH  13  16
HETATM   16  C   UNL     1     -11.395  10.768  69.099  1.00  0.00    -0.282 C  
HETATM   17  H   UNL     1     -12.246  10.237  70.783  1.00  0.00     0.000 HD 
HETATM   18  O   UNL     1     -11.658  10.929  70.505  1.00  0.00    -0.322 OA 
BRANCH  16  19
HETATM   19  C   UNL     1     -10.843   9.363  68.830  1.00  0.00    -0.123 C  
BRANCH  19  20
HETATM   20  O   UNL     1     -10.319   8.848  70.062  1.00  0.00    -0.192 OA 
HETATM   21  S   UNL     1     -10.529   7.259  70.334  1.00  0.00    -0.224 S  
HETATM   22  C   UNL     1      -9.712   7.183  71.910  1.00  0.00    -0.156 C  
HETATM   23  O   UNL     1      -9.748   6.519  69.364  1.00  0.00    -0.146 OA 
HETATM   24  O   UNL     1     -11.943   7.015  70.532  1.00  0.00    -0.325 OA 
ENDBRANCH  19  20
ENDBRANCH  16  19
ENDBRANCH  13  16
ENDBRANCH  10  13
ENDBRANCH   7  10
ENDBRANCH   6   7
ENDBRANCH   3   6
TORSDOF 7
ENDMDL
MODEL      142
REMARK 921   NORMALIZED FREE ENERGY PREDICTED BY IDOCK:   -4.14 KCAL/MOL
REMARK 922        TOTAL FREE ENERGY PREDICTED BY IDOCK:   -7.08 KCAL/MOL
REMARK 923 INTER-LIGAND FREE ENERGY PREDICTED BY IDOCK:   -5.87 KCAL/MOL
REMARK 924 INTRA-LIGAND FREE ENERGY PREDICTED BY IDOCK:   -1.21 KCAL/MOL
REMARK 927      BINDING AFFINITY PREDICTED BY RF-SCORE:    0.00 PKD
ROOT
HETATM    1  C   UNL     1     -12.430  12.083  63.601  1.00  0.00    -0.525 C  
HETATM    2  S   UNL     1     -11.608  12.927  64.928  1.00  0.00    -0.346 S  
HETATM    3  O   UNL     1     -10.969  11.637  65.711  1.00  0.00    -0.292 OA 
HETATM    4  O   UNL     1     -10.521  13.706  64.373  1.00  0.00    -0.432 OA 
HETATM    5  O   UNL     1     -12.613  13.518  65.789  1.00  0.00    -0.464 OA 
ENDROOT
BRANCH   3   6
HETATM    6  C   UNL     1     -10.195  11.980  66.865  1.00  0.00    -0.208 C  
BRANCH   6   7
HETATM    7  C   UNL     1     -10.839  11.478  68.161  1.00  0.00    -0.215 C  
HETATM    8  O   UNL     1     -12.263  11.363  67.977  1.00  0.00    -0.607 OA 
HETATM    9  H   UNL     1     -12.663  11.051  68.781  1.00  0.00     0.000 HD 
BRANCH   7  10
HETATM   10  C   UNL     1     -10.327  10.076  68.557  1.00  0.00    -0.193 C  
HETATM   11  H   UNL     1      -8.727   8.987  68.177  1.00  0.00     0.000 HD 
HETATM   12  O   UNL     1      -9.042   9.849  67.932  1.00  0.00    -0.131 OA 
BRANCH  10  13
HETATM   13  C   UNL     1     -10.134   9.823  70.065  1.00  0.00    -0.257 C  
HETATM   14  O   UNL     1      -9.123   8.801  70.188  1.00  0.00    -0.153 OA 
HETATM   15  H   UNL     1      -9.003   8.645  71.117  1.00  0.00     0.000 HD 
BRANCH  13  16
HETATM   16  C   UNL     1     -11.395   9.394  70.836  1.00  0.00    -0.319 C  
HETATM   17  H   UNL     1     -13.012  10.285  71.494  1.00  0.00     0.000 HD 
HETATM   18  O   UNL     1     -12.234  10.550  71.018  1.00  0.00    -0.335 OA 
BRANCH  16  19
HETATM   19  C   UNL     1     -11.084   8.756  72.194  1.00  0.00    -0.336 C  
BRANCH  19  20
HETATM   20  O   UNL     1     -11.209   7.334  72.057  1.00  0.00    -0.238 OA 
HETATM   21  S   UNL     1     -10.108   6.428  72.838  1.00  0.00    -0.191 S  
HETATM   22  C   UNL     1     -10.729   4.836  72.349  1.00  0.00    -0.149 C  
HETATM   23  O   UNL     1     -10.306   6.591  74.264  1.00  0.00    -0.349 OA 
HETATM   24  O   UNL     1      -8.819   6.636  72.209  1.00  0.00    -0.133 OA 
ENDBRANCH  19  20
ENDBRANCH  16  19
ENDBRANCH  13  16
ENDBRANCH  10  13
ENDBRANCH   7  10
ENDBRANCH   6   7
ENDBRANCH   3   6
TORSDOF 7
ENDMDL
MODEL      143
REMARK 921   NORMALIZED FREE ENERGY PREDICTED BY IDOCK:   -4.14 KCAL/MOL
REMARK 922        TOTAL FREE ENERGY PREDICTED BY IDOCK:   -7.08 KCAL/MOL
REMARK 923 INTER-LIGAND FREE ENERGY PREDICTED BY IDOCK:   -6.04 KCAL/MOL
REMARK 924 INTRA-LIGAND FREE ENERGY PREDICTED BY IDOCK:   -1.04 KCAL/MOL
REMARK 927      BINDING AFFINITY PREDICTED BY RF-SCORE:    0.00 PKD
ROOT
HETATM    1  C   UNL     1     -12.619  14.973  73.389  1.00  0.00    -0.518 C  
HETATM    2  S   UNL     1     -13.023  14.591  71.703  1.00  0.00    -0.360 S  
HETATM    3  O   UNL     1     -11.584  14.940  70.998  1.00  0.00    -0.299 OA 
HETATM    4  O   UNL     1     -13.246  13.165  71.597  1.00  0.00    -0.384 OA 
HETATM    5  O   UNL     1     -13.995  15.556  71.233  1.00  0.00    -0.543 OA 
ENDROOT
BRANCH   3   6
HETATM    6  C   UNL     1     -11.558  14.713  69.585  1.00  0.00    -0.307 C  
BRANCH   6   7
HETATM    7  C   UNL     1     -10.249  14.059  69.131  1.00  0.00    -0.010 C  
HETATM    8  O   UNL     1     -10.503  12.697  68.737  1.00  0.00    -0.311 OA 
HETATM    9  H   UNL     1      -9.691  12.291  68.455  1.00  0.00     0.000 HD 
BRANCH   7  10
HETATM   10  C   UNL     1      -9.640  14.771  67.904  1.00  0.00    -0.210 C  
HETATM   11  H   UNL     1     -10.248  16.115  66.594  1.00  0.00     0.000 HD 
HETATM   12  O   UNL     1     -10.623  15.678  67.350  1.00  0.00    -0.289 OA 
BRANCH  10  13
HETATM   13  C   UNL     1      -8.369  15.603  68.160  1.00  0.00    -0.146 C  
HETATM   14  O   UNL     1      -8.742  16.666  69.061  1.00  0.00    -0.250 OA 
HETATM   15  H   UNL     1      -7.959  17.179  69.219  1.00  0.00     0.000 HD 
BRANCH  13  16
HETATM   16  C   UNL     1      -7.701  16.201  66.909  1.00  0.00    -0.249 C  
HETATM   17  H   UNL     1      -5.990  15.969  65.981  1.00  0.00     0.000 HD 
HETATM   18  O   UNL     1      -6.402  15.600  66.754  1.00  0.00    -0.158 OA 
BRANCH  16  19
HETATM   19  C   UNL     1      -7.566  17.727  66.968  1.00  0.00    -0.204 C  
BRANCH  19  20
HETATM   20  O   UNL     1      -8.680  18.299  66.269  1.00  0.00    -0.398 OA 
HETATM   21  S   UNL     1      -9.437  19.539  67.000  1.00  0.00    -0.359 S  
HETATM   22  C   UNL     1     -10.656  19.839  65.742  1.00  0.00    -0.419 C  
HETATM   23  O   UNL     1      -8.529  20.666  67.053  1.00  0.00    -0.276 OA 
HETATM   24  O   UNL     1     -10.105  19.031  68.181  1.00  0.00    -0.356 OA 
ENDBRANCH  19  20
ENDBRANCH  16  19
ENDBRANCH  13  16
ENDBRANCH  10  13
ENDBRANCH   7  10
ENDBRANCH   6   7
ENDBRANCH   3   6
TORSDOF 7
ENDMDL
MODEL      144
REMARK 921   NORMALIZED FREE ENERGY PREDICTED BY IDOCK:   -4.14 KCAL/MOL
REMARK 922        TOTAL FREE ENERGY PREDICTED BY IDOCK:   -7.08 KCAL/MOL
REMARK 923 INTER-LIGAND FREE ENERGY PREDICTED BY IDOCK:   -6.49 KCAL/MOL
REMARK 924 INTRA-LIGAND FREE ENERGY PREDICTED BY IDOCK:   -0.59 KCAL/MOL
REMARK 927      BINDING AFFINITY PREDICTED BY RF-SCORE:    0.00 PKD
ROOT
HETATM    1  C   UNL     1      -6.567  20.824  67.643  1.00  0.00    -0.339 C  
HETATM    2  S   UNL     1      -7.307  19.374  68.351  1.00  0.00    -0.324 S  
HETATM    3  O   UNL     1      -8.829  19.537  67.764  1.00  0.00    -0.304 OA 
HETATM    4  O   UNL     1      -6.707  18.208  67.739  1.00  0.00    -0.198 OA 
HETATM    5  O   UNL     1      -7.363  19.543  69.789  1.00  0.00    -0.161 OA 
ENDROOT
BRANCH   3   6
HETATM    6  C   UNL     1      -9.716  18.480  68.144  1.00  0.00    -0.339 C  
BRANCH   6   7
HETATM    7  C   UNL     1     -10.747  18.173  67.054  1.00  0.00    -0.253 C  
HETATM    8  O   UNL     1     -10.881  19.314  66.184  1.00  0.00    -0.379 OA 
HETATM    9  H   UNL     1     -11.521  19.123  65.508  1.00  0.00     0.000 HD 
BRANCH   7  10
HETATM   10  C   UNL     1     -10.317  16.985  66.167  1.00  0.00    -0.319 C  
HETATM   11  H   UNL     1      -8.632  16.348  65.363  1.00  0.00     0.000 HD 
HETATM   12  O   UNL     1      -8.896  17.079  65.909  1.00  0.00    -0.518 OA 
BRANCH  10  13
HETATM   13  C   UNL     1     -10.567  15.578  66.744  1.00  0.00    -0.307 C  
HETATM   14  O   UNL     1      -9.380  15.214  67.478  1.00  0.00    -0.194 OA 
HETATM   15  H   UNL     1      -9.534  14.347  67.834  1.00  0.00     0.000 HD 
BRANCH  13  16
HETATM   16  C   UNL     1     -10.890  14.483  65.712  1.00  0.00    -0.315 C  
HETATM   17  H   UNL     1     -11.367  14.437  63.812  1.00  0.00     0.000 HD 
HETATM   18  O   UNL     1     -11.169  15.114  64.448  1.00  0.00    -0.287 OA 
BRANCH  16  19
HETATM   19  C   UNL     1     -12.069  13.595  66.123  1.00  0.00    -0.436 C  
BRANCH  19  20
HETATM   20  O   UNL     1     -12.157  13.605  67.554  1.00  0.00    -0.369 OA 
HETATM   21  S   UNL     1     -11.383  12.409  68.339  1.00  0.00    -0.311 S  
HETATM   22  C   UNL     1     -11.800  12.910  69.993  1.00  0.00    -0.286 C  
HETATM   23  O   UNL     1      -9.958  12.578  68.143  1.00  0.00    -0.212 OA 
HETATM   24  O   UNL     1     -12.060  11.162  68.048  1.00  0.00    -0.635 OA 
ENDBRANCH  19  20
ENDBRANCH  16  19
ENDBRANCH  13  16
ENDBRANCH  10  13
ENDBRANCH   7  10
ENDBRANCH   6   7
ENDBRANCH   3   6
TORSDOF 7
ENDMDL
MODEL      145
REMARK 921   NORMALIZED FREE ENERGY PREDICTED BY IDOCK:   -4.14 KCAL/MOL
REMARK 922        TOTAL FREE ENERGY PREDICTED BY IDOCK:   -7.07 KCAL/MOL
REMARK 923 INTER-LIGAND FREE ENERGY PREDICTED BY IDOCK:   -5.93 KCAL/MOL
REMARK 924 INTRA-LIGAND FREE ENERGY PREDICTED BY IDOCK:   -1.14 KCAL/MOL
REMARK 927      BINDING AFFINITY PREDICTED BY RF-SCORE:    0.00 PKD
ROOT
HETATM    1  C   UNL     1      -6.755   8.683  65.142  1.00  0.00    -0.064 C  
HETATM    2  S   UNL     1      -7.010   9.424  66.734  1.00  0.00    -0.082 S  
HETATM    3  O   UNL     1      -8.058  10.612  66.312  1.00  0.00    -0.139 OA 
HETATM    4  O   UNL     1      -7.711   8.477  67.574  1.00  0.00    -0.096 OA 
HETATM    5  O   UNL     1      -5.772  10.050  67.153  1.00  0.00    -0.046 OA 
ENDROOT
BRANCH   3   6
HETATM    6  C   UNL     1      -8.498  11.417  67.410  1.00  0.00    -0.143 C  
BRANCH   6   7
HETATM    7  C   UNL     1      -9.782  10.875  68.044  1.00  0.00    -0.165 C  
HETATM    8  O   UNL     1      -9.890  11.355  69.398  1.00  0.00    -0.418 OA 
HETATM    9  H   UNL     1     -10.687  11.018  69.792  1.00  0.00     0.000 HD 
BRANCH   7  10
HETATM   10  C   UNL     1     -11.046  11.358  67.299  1.00  0.00    -0.303 C  
HETATM   11  H   UNL     1     -12.978  11.446  67.689  1.00  0.00     0.000 HD 
HETATM   12  O   UNL     1     -12.200  11.149  68.147  1.00  0.00    -0.612 OA 
BRANCH  10  13
HETATM   13  C   UNL     1     -11.067  12.841  66.885  1.00  0.00    -0.270 C  
HETATM   14  O   UNL     1     -11.207  13.610  68.098  1.00  0.00    -0.252 OA 
HETATM   15  H   UNL     1     -11.220  14.524  67.842  1.00  0.00     0.000 HD 
BRANCH  13  16
HETATM   16  C   UNL     1     -12.175  13.240  65.894  1.00  0.00    -0.441 C  
HETATM   17  H   UNL     1     -13.121  12.368  64.415  1.00  0.00     0.000 HD 
HETATM   18  O   UNL     1     -12.437  12.121  65.027  1.00  0.00    -0.490 OA 
BRANCH  16  19
HETATM   19  C   UNL     1     -11.822  14.476  65.058  1.00  0.00    -0.399 C  
BRANCH  19  20
HETATM   20  O   UNL     1     -10.475  14.856  65.373  1.00  0.00    -0.327 OA 
HETATM   21  S   UNL     1     -10.269  16.333  66.021  1.00  0.00    -0.372 S  
HETATM   22  C   UNL     1      -8.503  16.259  66.208  1.00  0.00    -0.334 C  
HETATM   23  O   UNL     1     -10.880  16.349  67.334  1.00  0.00    -0.302 OA 
HETATM   24  O   UNL     1     -10.587  17.321  65.010  1.00  0.00    -0.675 OA 
ENDBRANCH  19  20
ENDBRANCH  16  19
ENDBRANCH  13  16
ENDBRANCH  10  13
ENDBRANCH   7  10
ENDBRANCH   6   7
ENDBRANCH   3   6
TORSDOF 7
ENDMDL
MODEL      146
REMARK 921   NORMALIZED FREE ENERGY PREDICTED BY IDOCK:   -4.14 KCAL/MOL
REMARK 922        TOTAL FREE ENERGY PREDICTED BY IDOCK:   -7.07 KCAL/MOL
REMARK 923 INTER-LIGAND FREE ENERGY PREDICTED BY IDOCK:   -5.68 KCAL/MOL
REMARK 924 INTRA-LIGAND FREE ENERGY PREDICTED BY IDOCK:   -1.39 KCAL/MOL
REMARK 927      BINDING AFFINITY PREDICTED BY RF-SCORE:    0.00 PKD
ROOT
HETATM    1  C   UNL     1     -12.201  12.111  63.500  1.00  0.00    -0.567 C  
HETATM    2  S   UNL     1     -10.505  12.082  64.020  1.00  0.00    -0.414 S  
HETATM    3  O   UNL     1     -10.492  10.648  64.815  1.00  0.00    -0.325 OA 
HETATM    4  O   UNL     1      -9.667  11.958  62.847  1.00  0.00    -0.349 OA 
HETATM    5  O   UNL     1     -10.306  13.134  64.997  1.00  0.00    -0.317 OA 
ENDROOT
BRANCH   3   6
HETATM    6  C   UNL     1      -9.218  10.297  65.363  1.00  0.00    -0.193 C  
BRANCH   6   7
HETATM    7  C   UNL     1      -9.144  10.569  66.868  1.00  0.00    -0.147 C  
HETATM    8  O   UNL     1      -8.555  11.865  67.094  1.00  0.00    -0.158 OA 
HETATM    9  H   UNL     1      -8.510  12.034  68.029  1.00  0.00     0.000 HD 
BRANCH   7  10
HETATM   10  C   UNL     1     -10.542  10.595  67.523  1.00  0.00    -0.252 C  
HETATM   11  H   UNL     1     -11.877   9.253  68.078  1.00  0.00     0.000 HD 
HETATM   12  O   UNL     1     -11.017   9.237  67.675  1.00  0.00    -0.204 OA 
BRANCH  10  13
HETATM   13  C   UNL     1     -10.630  11.250  68.915  1.00  0.00    -0.207 C  
HETATM   14  O   UNL     1      -9.649  10.595  69.745  1.00  0.00    -0.427 OA 
HETATM   15  H   UNL     1      -9.703  10.998  70.603  1.00  0.00     0.000 HD 
BRANCH  13  16
HETATM   16  C   UNL     1     -12.008  11.182  69.597  1.00  0.00    -0.359 C  
HETATM   17  H   UNL     1     -13.332  12.484  70.224  1.00  0.00     0.000 HD 
HETATM   18  O   UNL     1     -12.482  12.526  69.804  1.00  0.00    -0.059 OA 
BRANCH  16  19
HETATM   19  C   UNL     1     -11.985  10.427  70.931  1.00  0.00    -0.377 C  
BRANCH  19  20
HETATM   20  O   UNL     1     -11.951   9.022  70.646  1.00  0.00    -0.226 OA 
HETATM   21  S   UNL     1     -11.208   8.076  71.740  1.00  0.00    -0.283 S  
HETATM   22  C   UNL     1     -11.471   6.522  70.919  1.00  0.00    -0.351 C  
HETATM   23  O   UNL     1     -11.980   8.096  72.966  1.00  0.00    -0.269 OA 
HETATM   24  O   UNL     1      -9.792   8.379  71.716  1.00  0.00    -0.195 OA 
ENDBRANCH  19  20
ENDBRANCH  16  19
ENDBRANCH  13  16
ENDBRANCH  10  13
ENDBRANCH   7  10
ENDBRANCH   6   7
ENDBRANCH   3   6
TORSDOF 7
ENDMDL
MODEL      147
REMARK 921   NORMALIZED FREE ENERGY PREDICTED BY IDOCK:   -4.13 KCAL/MOL
REMARK 922        TOTAL FREE ENERGY PREDICTED BY IDOCK:   -7.06 KCAL/MOL
REMARK 923 INTER-LIGAND FREE ENERGY PREDICTED BY IDOCK:   -5.78 KCAL/MOL
REMARK 924 INTRA-LIGAND FREE ENERGY PREDICTED BY IDOCK:   -1.28 KCAL/MOL
REMARK 927      BINDING AFFINITY PREDICTED BY RF-SCORE:    0.00 PKD
ROOT
HETATM    1  C   UNL     1      -7.235  18.266  66.448  1.00  0.00    -0.244 C  
HETATM    2  S   UNL     1      -8.623  17.997  67.520  1.00  0.00    -0.247 S  
HETATM    3  O   UNL     1      -9.402  16.836  66.664  1.00  0.00    -0.231 OA 
HETATM    4  O   UNL     1      -8.143  17.407  68.752  1.00  0.00    -0.269 OA 
HETATM    5  O   UNL     1      -9.449  19.187  67.511  1.00  0.00    -0.300 OA 
ENDROOT
BRANCH   3   6
HETATM    6  C   UNL     1     -10.601  16.361  67.283  1.00  0.00    -0.293 C  
BRANCH   6   7
HETATM    7  C   UNL     1     -10.466  14.914  67.767  1.00  0.00    -0.255 C  
HETATM    8  O   UNL     1      -9.842  14.897  69.066  1.00  0.00    -0.219 OA 
HETATM    9  H   UNL     1      -9.758  13.999  69.366  1.00  0.00     0.000 HD 
BRANCH   7  10
HETATM   10  C   UNL     1     -11.838  14.224  67.925  1.00  0.00    -0.358 C  
HETATM   11  H   UNL     1     -13.309  13.694  66.721  1.00  0.00     0.000 HD 
HETATM   12  O   UNL     1     -12.465  14.119  66.624  1.00  0.00    -0.426 OA 
BRANCH  10  13
HETATM   13  C   UNL     1     -11.822  12.803  68.520  1.00  0.00    -0.306 C  
HETATM   14  O   UNL     1     -11.554  12.947  69.931  1.00  0.00    -0.461 OA 
HETATM   15  H   UNL     1     -11.543  12.072  70.298  1.00  0.00     0.000 HD 
BRANCH  13  16
HETATM   16  C   UNL     1     -10.801  11.832  67.900  1.00  0.00    -0.211 C  
HETATM   17  H   UNL     1     -10.890  10.211  66.802  1.00  0.00     0.000 HD 
HETATM   18  O   UNL     1     -11.520  10.810  67.185  1.00  0.00    -0.400 OA 
BRANCH  16  19
HETATM   19  C   UNL     1      -9.873  11.189  68.936  1.00  0.00    -0.162 C  
BRANCH  19  20
HETATM   20  O   UNL     1     -10.331   9.851  69.174  1.00  0.00    -0.187 OA 
HETATM   21  S   UNL     1     -10.510   9.408  70.729  1.00  0.00    -0.322 S  
HETATM   22  C   UNL     1     -11.081   7.752  70.434  1.00  0.00    -0.251 C  
HETATM   23  O   UNL     1     -11.590  10.182  71.306  1.00  0.00    -0.364 OA 
HETATM   24  O   UNL     1      -9.197   9.344  71.337  1.00  0.00    -0.277 OA 
ENDBRANCH  19  20
ENDBRANCH  16  19
ENDBRANCH  13  16
ENDBRANCH  10  13
ENDBRANCH   7  10
ENDBRANCH   6   7
ENDBRANCH   3   6
TORSDOF 7
ENDMDL
MODEL      148
REMARK 921   NORMALIZED FREE ENERGY PREDICTED BY IDOCK:   -4.12 KCAL/MOL
REMARK 922        TOTAL FREE ENERGY PREDICTED BY IDOCK:   -7.05 KCAL/MOL
REMARK 923 INTER-LIGAND FREE ENERGY PREDICTED BY IDOCK:   -6.23 KCAL/MOL
REMARK 924 INTRA-LIGAND FREE ENERGY PREDICTED BY IDOCK:   -0.82 KCAL/MOL
REMARK 927      BINDING AFFINITY PREDICTED BY RF-SCORE:    0.00 PKD
ROOT
HETATM    1  C   UNL     1     -12.471  15.357  73.704  1.00  0.00    -0.588 C  
HETATM    2  S   UNL     1     -13.320  14.637  72.322  1.00  0.00    -0.434 S  
HETATM    3  O   UNL     1     -12.031  14.253  71.385  1.00  0.00    -0.327 OA 
HETATM    4  O   UNL     1     -13.947  13.407  72.758  1.00  0.00    -0.724 OA 
HETATM    5  O   UNL     1     -14.067  15.680  71.647  1.00  0.00    -0.466 OA 
ENDROOT
BRANCH   3   6
HETATM    6  C   UNL     1     -12.376  13.611  70.153  1.00  0.00    -0.304 C  
BRANCH   6   7
HETATM    7  C   UNL     1     -11.472  14.055  68.999  1.00  0.00    -0.296 C  
HETATM    8  O   UNL     1     -10.209  14.509  69.525  1.00  0.00    -0.411 OA 
HETATM    9  H   UNL     1      -9.648  14.785  68.809  1.00  0.00     0.000 HD 
BRANCH   7  10
HETATM   10  C   UNL     1     -11.158  12.897  68.028  1.00  0.00    -0.253 C  
HETATM   11  H   UNL     1     -12.011  12.110  66.433  1.00  0.00     0.000 HD 
HETATM   12  O   UNL     1     -12.204  12.823  67.031  1.00  0.00    -0.431 OA 
BRANCH  10  13
HETATM   13  C   UNL     1      -9.825  12.992  67.262  1.00  0.00    -0.227 C  
HETATM   14  O   UNL     1     -10.117  12.693  65.881  1.00  0.00    -0.257 OA 
HETATM   15  H   UNL     1      -9.296  12.751  65.409  1.00  0.00     0.000 HD 
BRANCH  13  16
HETATM   16  C   UNL     1      -8.702  12.066  67.762  1.00  0.00    -0.161 C  
HETATM   17  H   UNL     1      -6.969  11.460  67.075  1.00  0.00     0.000 HD 
HETATM   18  O   UNL     1      -7.663  12.031  66.766  1.00  0.00    -0.117 OA 
BRANCH  16  19
HETATM   19  C   UNL     1      -9.183  10.642  68.064  1.00  0.00    -0.148 C  
BRANCH  19  20
HETATM   20  O   UNL     1      -8.499   9.745  67.179  1.00  0.00    -0.124 OA 
HETATM   21  S   UNL     1      -9.425   8.903  66.139  1.00  0.00    -0.254 S  
HETATM   22  C   UNL     1      -8.115   8.017  65.328  1.00  0.00    -0.138 C  
HETATM   23  O   UNL     1     -10.018   9.831  65.197  1.00  0.00    -0.309 OA 
HETATM   24  O   UNL     1     -10.221   7.962  66.899  1.00  0.00    -0.263 OA 
ENDBRANCH  19  20
ENDBRANCH  16  19
ENDBRANCH  13  16
ENDBRANCH  10  13
ENDBRANCH   7  10
ENDBRANCH   6   7
ENDBRANCH   3   6
TORSDOF 7
ENDMDL
MODEL      149
REMARK 921   NORMALIZED FREE ENERGY PREDICTED BY IDOCK:   -4.12 KCAL/MOL
REMARK 922        TOTAL FREE ENERGY PREDICTED BY IDOCK:   -7.05 KCAL/MOL
REMARK 923 INTER-LIGAND FREE ENERGY PREDICTED BY IDOCK:   -5.88 KCAL/MOL
REMARK 924 INTRA-LIGAND FREE ENERGY PREDICTED BY IDOCK:   -1.17 KCAL/MOL
REMARK 927      BINDING AFFINITY PREDICTED BY RF-SCORE:    0.00 PKD
ROOT
HETATM    1  C   UNL     1     -11.579  15.750  68.508  1.00  0.00    -0.362 C  
HETATM    2  S   UNL     1     -11.385  14.266  67.554  1.00  0.00    -0.344 S  
HETATM    3  O   UNL     1     -11.913  13.170  68.653  1.00  0.00    -0.328 OA 
HETATM    4  O   UNL     1     -12.328  14.299  66.457  1.00  0.00    -0.445 OA 
HETATM    5  O   UNL     1      -9.970  14.038  67.342  1.00  0.00    -0.238 OA 
ENDROOT
BRANCH   3   6
HETATM    6  C   UNL     1     -11.906  11.820  68.180  1.00  0.00    -0.254 C  
BRANCH   6   7
HETATM    7  C   UNL     1     -10.987  10.922  69.014  1.00  0.00    -0.235 C  
HETATM    8  O   UNL     1      -9.697  11.548  69.151  1.00  0.00    -0.410 OA 
HETATM    9  H   UNL     1      -9.127  10.991  69.669  1.00  0.00     0.000 HD 
BRANCH   7  10
HETATM   10  C   UNL     1     -11.530  10.705  70.444  1.00  0.00    -0.334 C  
HETATM   11  H   UNL     1     -13.309  10.632  71.293  1.00  0.00     0.000 HD 
HETATM   12  O   UNL     1     -12.975  10.765  70.413  1.00  0.00    -0.276 OA 
BRANCH  10  13
HETATM   13  C   UNL     1     -11.159   9.370  71.118  1.00  0.00    -0.362 C  
HETATM   14  O   UNL     1     -10.173   8.739  70.275  1.00  0.00    -0.186 OA 
HETATM   15  H   UNL     1      -9.945   7.916  70.690  1.00  0.00     0.000 HD 
BRANCH  13  16
HETATM   16  C   UNL     1     -12.328   8.399  71.359  1.00  0.00    -0.299 C  
HETATM   17  H   UNL     1     -13.323   7.755  72.919  1.00  0.00     0.000 HD 
HETATM   18  O   UNL     1     -12.602   8.355  72.771  1.00  0.00    -0.276 OA 
BRANCH  16  19
HETATM   19  C   UNL     1     -12.054   6.984  70.837  1.00  0.00    -0.357 C  
BRANCH  19  20
HETATM   20  O   UNL     1     -11.929   6.109  71.966  1.00  0.00    -0.324 OA 
HETATM   21  S   UNL     1     -10.440   5.531  72.276  1.00  0.00    -0.224 S  
HETATM   22  C   UNL     1     -10.860   4.572  73.713  1.00  0.00    -0.287 C  
HETATM   23  O   UNL     1      -9.593   6.635  72.680  1.00  0.00    -0.147 OA 
HETATM   24  O   UNL     1     -10.072   4.627  71.206  1.00  0.00    -0.194 OA 
ENDBRANCH  19  20
ENDBRANCH  16  19
ENDBRANCH  13  16
ENDBRANCH  10  13
ENDBRANCH   7  10
ENDBRANCH   6   7
ENDBRANCH   3   6
TORSDOF 7
ENDMDL
MODEL      150
REMARK 921   NORMALIZED FREE ENERGY PREDICTED BY IDOCK:   -4.09 KCAL/MOL
REMARK 922        TOTAL FREE ENERGY PREDICTED BY IDOCK:   -7.01 KCAL/MOL
REMARK 923 INTER-LIGAND FREE ENERGY PREDICTED BY IDOCK:   -6.48 KCAL/MOL
REMARK 924 INTRA-LIGAND FREE ENERGY PREDICTED BY IDOCK:   -0.53 KCAL/MOL
REMARK 927      BINDING AFFINITY PREDICTED BY RF-SCORE:    0.00 PKD
ROOT
HETATM    1  C   UNL     1     -11.561  14.891  64.839  1.00  0.00    -0.395 C  
HETATM    2  S   UNL     1     -11.386  13.137  65.037  1.00  0.00    -0.311 S  
HETATM    3  O   UNL     1     -10.536  13.109  66.439  1.00  0.00    -0.280 OA 
HETATM    4  O   UNL     1     -12.694  12.571  65.288  1.00  0.00    -0.654 OA 
HETATM    5  O   UNL     1     -10.525  12.639  63.984  1.00  0.00    -0.384 OA 
ENDROOT
BRANCH   3   6
HETATM    6  C   UNL     1     -10.234  11.792  66.911  1.00  0.00    -0.209 C  
BRANCH   6   7
HETATM    7  C   UNL     1     -11.334  11.239  67.821  1.00  0.00    -0.285 C  
HETATM    8  O   UNL     1     -11.321   9.799  67.772  1.00  0.00    -0.497 OA 
HETATM    9  H   UNL     1     -12.004   9.456  68.336  1.00  0.00     0.000 HD 
BRANCH   7  10
HETATM   10  C   UNL     1     -11.121  11.635  69.298  1.00  0.00    -0.233 C  
HETATM   11  H   UNL     1     -11.389  13.258  70.387  1.00  0.00     0.000 HD 
HETATM   12  O   UNL     1     -11.521  13.015  69.478  1.00  0.00    -0.264 OA 
BRANCH  10  13
HETATM   13  C   UNL     1     -11.897  10.812  70.343  1.00  0.00    -0.358 C  
HETATM   14  O   UNL     1     -12.554  11.758  71.213  1.00  0.00    -0.365 OA 
HETATM   15  H   UNL     1     -13.032  11.251  71.857  1.00  0.00     0.000 HD 
BRANCH  13  16
HETATM   16  C   UNL     1     -11.053   9.840  71.186  1.00  0.00    -0.344 C  
HETATM   17  H   UNL     1      -9.429   8.779  70.904  1.00  0.00     0.000 HD 
HETATM   18  O   UNL     1      -9.950   9.379  70.384  1.00  0.00    -0.216 OA 
BRANCH  16  19
HETATM   19  C   UNL     1     -11.854   8.642  71.708  1.00  0.00    -0.337 C  
BRANCH  19  20
HETATM   20  O   UNL     1     -11.157   8.098  72.837  1.00  0.00    -0.373 OA 
HETATM   21  S   UNL     1     -10.685   6.546  72.723  1.00  0.00    -0.253 S  
HETATM   22  C   UNL     1      -9.904   6.424  74.315  1.00  0.00    -0.302 C  
HETATM   23  O   UNL     1      -9.671   6.449  71.693  1.00  0.00    -0.162 OA 
HETATM   24  O   UNL     1     -11.868   5.711  72.722  1.00  0.00    -0.258 OA 
ENDBRANCH  19  20
ENDBRANCH  16  19
ENDBRANCH  13  16
ENDBRANCH  10  13
ENDBRANCH   7  10
ENDBRANCH   6   7
ENDBRANCH   3   6
TORSDOF 7
ENDMDL
MODEL      151
REMARK 921   NORMALIZED FREE ENERGY PREDICTED BY IDOCK:   -4.07 KCAL/MOL
REMARK 922        TOTAL FREE ENERGY PREDICTED BY IDOCK:   -6.98 KCAL/MOL
REMARK 923 INTER-LIGAND FREE ENERGY PREDICTED BY IDOCK:   -5.66 KCAL/MOL
REMARK 924 INTRA-LIGAND FREE ENERGY PREDICTED BY IDOCK:   -1.33 KCAL/MOL
REMARK 927      BINDING AFFINITY PREDICTED BY RF-SCORE:    0.00 PKD
ROOT
HETATM    1  C   UNL     1     -13.428   9.092  71.963  1.00  0.00    -0.442 C  
HETATM    2  S   UNL     1     -11.754   8.503  72.009  1.00  0.00    -0.384 S  
HETATM    3  O   UNL     1     -11.838   7.366  70.832  1.00  0.00    -0.299 OA 
HETATM    4  O   UNL     1     -10.882   9.564  71.554  1.00  0.00    -0.355 OA 
HETATM    5  O   UNL     1     -11.540   7.824  73.271  1.00  0.00    -0.248 OA 
ENDROOT
BRANCH   3   6
HETATM    6  C   UNL     1     -10.602   6.686  70.588  1.00  0.00    -0.227 C  
BRANCH   6   7
HETATM    7  C   UNL     1     -10.391   6.389  69.101  1.00  0.00    -0.208 C  
HETATM    8  O   UNL     1     -11.640   6.539  68.398  1.00  0.00    -0.525 OA 
HETATM    9  H   UNL     1     -11.509   6.355  67.475  1.00  0.00     0.000 HD 
BRANCH   7  10
HETATM   10  C   UNL     1      -9.394   7.372  68.449  1.00  0.00    -0.144 C  
HETATM   11  H   UNL     1      -8.649   7.651  66.644  1.00  0.00     0.000 HD 
HETATM   12  O   UNL     1      -9.262   7.046  67.045  1.00  0.00    -0.136 OA 
BRANCH  10  13
HETATM   13  C   UNL     1      -9.765   8.866  68.520  1.00  0.00    -0.161 C  
HETATM   14  O   UNL     1     -10.843   9.072  67.584  1.00  0.00    -0.458 OA 
HETATM   15  H   UNL     1     -11.071   9.992  67.628  1.00  0.00     0.000 HD 
BRANCH  13  16
HETATM   16  C   UNL     1      -8.623   9.851  68.214  1.00  0.00    -0.115 C  
HETATM   17  H   UNL     1      -7.159  10.667  69.230  1.00  0.00     0.000 HD 
HETATM   18  O   UNL     1      -7.864  10.059  69.420  1.00  0.00    -0.112 OA 
BRANCH  16  19
HETATM   19  C   UNL     1      -9.116  11.197  67.670  1.00  0.00    -0.147 C  
BRANCH  19  20
HETATM   20  O   UNL     1      -9.958  11.797  68.664  1.00  0.00    -0.212 OA 
HETATM   21  S   UNL     1     -11.230  12.652  68.120  1.00  0.00    -0.293 S  
HETATM   22  C   UNL     1     -11.886  13.123  69.703  1.00  0.00    -0.324 C  
HETATM   23  O   UNL     1     -12.157  11.740  67.480  1.00  0.00    -0.599 OA 
HETATM   24  O   UNL     1     -10.730  13.836  67.453  1.00  0.00    -0.270 OA 
ENDBRANCH  19  20
ENDBRANCH  16  19
ENDBRANCH  13  16
ENDBRANCH  10  13
ENDBRANCH   7  10
ENDBRANCH   6   7
ENDBRANCH   3   6
TORSDOF 7
ENDMDL
MODEL      152
REMARK 921   NORMALIZED FREE ENERGY PREDICTED BY IDOCK:   -4.07 KCAL/MOL
REMARK 922        TOTAL FREE ENERGY PREDICTED BY IDOCK:   -6.98 KCAL/MOL
REMARK 923 INTER-LIGAND FREE ENERGY PREDICTED BY IDOCK:   -5.62 KCAL/MOL
REMARK 924 INTRA-LIGAND FREE ENERGY PREDICTED BY IDOCK:   -1.36 KCAL/MOL
REMARK 927      BINDING AFFINITY PREDICTED BY RF-SCORE:    0.00 PKD
ROOT
HETATM    1  C   UNL     1     -12.108  12.918  65.547  1.00  0.00    -0.458 C  
HETATM    2  S   UNL     1     -11.242  11.843  66.661  1.00  0.00    -0.329 S  
HETATM    3  O   UNL     1     -10.131  12.898  67.243  1.00  0.00    -0.227 OA 
HETATM    4  O   UNL     1     -12.136  11.483  67.740  1.00  0.00    -0.626 OA 
HETATM    5  O   UNL     1     -10.540  10.843  65.881  1.00  0.00    -0.241 OA 
ENDROOT
BRANCH   3   6
HETATM    6  C   UNL     1      -9.249  12.337  68.220  1.00  0.00    -0.189 C  
BRANCH   6   7
HETATM    7  C   UNL     1      -7.839  12.114  67.664  1.00  0.00    -0.153 C  
HETATM    8  O   UNL     1      -7.890  12.084  66.223  1.00  0.00    -0.371 OA 
HETATM    9  H   UNL     1      -7.015  11.946  65.878  1.00  0.00     0.000 HD 
BRANCH   7  10
HETATM   10  C   UNL     1      -6.876  13.257  68.050  1.00  0.00    -0.122 C  
HETATM   11  H   UNL     1      -5.087  13.863  67.478  1.00  0.00     0.000 HD 
HETATM   12  O   UNL     1      -5.680  13.159  67.240  1.00  0.00    -0.348 OA 
BRANCH  10  13
HETATM   13  C   UNL     1      -7.412  14.691  67.871  1.00  0.00    -0.148 C  
HETATM   14  O   UNL     1      -7.707  14.851  66.467  1.00  0.00    -0.196 OA 
HETATM   15  H   UNL     1      -8.037  15.734  66.356  1.00  0.00     0.000 HD 
BRANCH  13  16
HETATM   16  C   UNL     1      -6.470  15.817  68.330  1.00  0.00    -0.118 C  
HETATM   17  H   UNL     1      -6.571  17.304  69.603  1.00  0.00     0.000 HD 
HETATM   18  O   UNL     1      -7.153  16.609  69.319  1.00  0.00    -0.226 OA 
BRANCH  16  19
HETATM   19  C   UNL     1      -5.996  16.714  67.181  1.00  0.00    -0.163 C  
BRANCH  19  20
HETATM   20  O   UNL     1      -6.683  17.968  67.283  1.00  0.00    -0.173 OA 
HETATM   21  S   UNL     1      -7.507  18.456  65.968  1.00  0.00    -0.177 S  
HETATM   22  C   UNL     1      -8.134  19.978  66.639  1.00  0.00    -0.315 C  
HETATM   23  O   UNL     1      -8.613  17.545  65.755  1.00  0.00    -0.521 OA 
HETATM   24  O   UNL     1      -6.552  18.768  64.924  1.00  0.00    -0.516 OA 
ENDBRANCH  19  20
ENDBRANCH  16  19
ENDBRANCH  13  16
ENDBRANCH  10  13
ENDBRANCH   7  10
ENDBRANCH   6   7
ENDBRANCH   3   6
TORSDOF 7
ENDMDL
MODEL      153
REMARK 921   NORMALIZED FREE ENERGY PREDICTED BY IDOCK:   -4.06 KCAL/MOL
REMARK 922        TOTAL FREE ENERGY PREDICTED BY IDOCK:   -6.97 KCAL/MOL
REMARK 923 INTER-LIGAND FREE ENERGY PREDICTED BY IDOCK:   -5.70 KCAL/MOL
REMARK 924 INTRA-LIGAND FREE ENERGY PREDICTED BY IDOCK:   -1.27 KCAL/MOL
REMARK 927      BINDING AFFINITY PREDICTED BY RF-SCORE:    0.00 PKD
ROOT
HETATM    1  C   UNL     1      -5.911  18.867  69.739  1.00  0.00    -0.257 C  
HETATM    2  S   UNL     1      -6.585  19.088  68.112  1.00  0.00    -0.233 S  
HETATM    3  O   UNL     1      -7.203  17.589  67.873  1.00  0.00    -0.183 OA 
HETATM    4  O   UNL     1      -7.684  20.025  68.194  1.00  0.00    -0.294 OA 
HETATM    5  O   UNL     1      -5.489  19.271  67.182  1.00  0.00    -0.164 OA 
ENDROOT
BRANCH   3   6
HETATM    6  C   UNL     1      -7.862  17.424  66.613  1.00  0.00    -0.257 C  
BRANCH   6   7
HETATM    7  C   UNL     1      -9.383  17.324  66.767  1.00  0.00    -0.259 C  
HETATM    8  O   UNL     1      -9.927  16.551  65.679  1.00  0.00    -0.497 OA 
HETATM    9  H   UNL     1     -10.870  16.489  65.775  1.00  0.00     0.000 HD 
BRANCH   7  10
HETATM   10  C   UNL     1      -9.788  16.601  68.070  1.00  0.00    -0.245 C  
HETATM   11  H   UNL     1     -10.643  17.114  69.773  1.00  0.00     0.000 HD 
HETATM   12  O   UNL     1     -10.394  17.559  68.971  1.00  0.00    -0.356 OA 
BRANCH  10  13
HETATM   13  C   UNL     1     -10.790  15.441  67.923  1.00  0.00    -0.300 C  
HETATM   14  O   UNL     1     -11.971  15.814  68.664  1.00  0.00    -0.505 OA 
HETATM   15  H   UNL     1     -12.588  15.099  68.573  1.00  0.00     0.000 HD 
BRANCH  13  16
HETATM   16  C   UNL     1     -10.294  14.066  68.405  1.00  0.00    -0.251 C  
HETATM   17  H   UNL     1      -8.568  13.142  68.483  1.00  0.00     0.000 HD 
HETATM   18  O   UNL     1      -8.874  13.990  68.185  1.00  0.00    -0.168 OA 
BRANCH  16  19
HETATM   19  C   UNL     1     -10.993  12.893  67.709  1.00  0.00    -0.243 C  
BRANCH  19  20
HETATM   20  O   UNL     1     -11.730  13.413  66.594  1.00  0.00    -0.346 OA 
HETATM   21  S   UNL     1     -11.152  13.064  65.114  1.00  0.00    -0.302 S  
HETATM   22  C   UNL     1     -12.403  13.905  64.173  1.00  0.00    -0.335 C  
HETATM   23  O   UNL     1     -11.280  11.637  64.895  1.00  0.00    -0.290 OA 
HETATM   24  O   UNL     1      -9.895  13.761  64.941  1.00  0.00    -0.212 OA 
ENDBRANCH  19  20
ENDBRANCH  16  19
ENDBRANCH  13  16
ENDBRANCH  10  13
ENDBRANCH   7  10
ENDBRANCH   6   7
ENDBRANCH   3   6
TORSDOF 7
ENDMDL
MODEL      154
REMARK 921   NORMALIZED FREE ENERGY PREDICTED BY IDOCK:   -4.06 KCAL/MOL
REMARK 922        TOTAL FREE ENERGY PREDICTED BY IDOCK:   -6.96 KCAL/MOL
REMARK 923 INTER-LIGAND FREE ENERGY PREDICTED BY IDOCK:   -6.01 KCAL/MOL
REMARK 924 INTRA-LIGAND FREE ENERGY PREDICTED BY IDOCK:   -0.95 KCAL/MOL
REMARK 927      BINDING AFFINITY PREDICTED BY RF-SCORE:    0.00 PKD
ROOT
HETATM    1  C   UNL     1     -10.727   6.710  67.247  1.00  0.00    -0.357 C  
HETATM    2  S   UNL     1      -9.889   8.195  67.739  1.00  0.00    -0.177 S  
HETATM    3  O   UNL     1     -10.596   9.255  66.708  1.00  0.00    -0.221 OA 
HETATM    4  O   UNL     1     -10.299   8.529  69.085  1.00  0.00    -0.212 OA 
HETATM    5  O   UNL     1      -8.493   8.077  67.369  1.00  0.00    -0.124 OA 
ENDROOT
BRANCH   3   6
HETATM    6  C   UNL     1     -10.142  10.604  66.858  1.00  0.00    -0.214 C  
BRANCH   6   7
HETATM    7  C   UNL     1     -11.151  11.469  67.620  1.00  0.00    -0.266 C  
HETATM    8  O   UNL     1     -12.181  10.629  68.178  1.00  0.00    -0.719 OA 
HETATM    9  H   UNL     1     -12.806  11.166  68.651  1.00  0.00     0.000 HD 
BRANCH   7  10
HETATM   10  C   UNL     1     -10.498  12.216  68.803  1.00  0.00    -0.176 C  
HETATM   11  H   UNL     1      -8.680  12.823  69.271  1.00  0.00     0.000 HD 
HETATM   12  O   UNL     1      -9.082  12.364  68.543  1.00  0.00    -0.163 OA 
BRANCH  10  13
HETATM   13  C   UNL     1     -11.039  13.628  69.100  1.00  0.00    -0.231 C  
HETATM   14  O   UNL     1     -12.439  13.618  68.750  1.00  0.00    -0.305 OA 
HETATM   15  H   UNL     1     -12.773  14.487  68.933  1.00  0.00     0.000 HD 
BRANCH  13  16
HETATM   16  C   UNL     1     -10.334  14.780  68.365  1.00  0.00    -0.233 C  
HETATM   17  H   UNL     1      -9.540  16.498  68.876  1.00  0.00     0.000 HD 
HETATM   18  O   UNL     1      -9.976  15.787  69.330  1.00  0.00    -0.226 OA 
BRANCH  16  19
HETATM   19  C   UNL     1     -11.190  15.403  67.256  1.00  0.00    -0.270 C  
BRANCH  19  20
HETATM   20  O   UNL     1     -10.861  16.796  67.169  1.00  0.00    -0.236 OA 
HETATM   21  S   UNL     1     -10.043  17.269  65.845  1.00  0.00    -0.149 S  
HETATM   22  C   UNL     1      -9.930  18.996  66.247  1.00  0.00    -0.398 C  
HETATM   23  O   UNL     1     -10.905  17.110  64.691  1.00  0.00    -0.852 OA 
HETATM   24  O   UNL     1      -8.716  16.692  65.901  1.00  0.00    -0.483 OA 
ENDBRANCH  19  20
ENDBRANCH  16  19
ENDBRANCH  13  16
ENDBRANCH  10  13
ENDBRANCH   7  10
ENDBRANCH   6   7
ENDBRANCH   3   6
TORSDOF 7
ENDMDL
MODEL      155
REMARK 921   NORMALIZED FREE ENERGY PREDICTED BY IDOCK:   -4.05 KCAL/MOL
REMARK 922        TOTAL FREE ENERGY PREDICTED BY IDOCK:   -6.96 KCAL/MOL
REMARK 923 INTER-LIGAND FREE ENERGY PREDICTED BY IDOCK:   -5.87 KCAL/MOL
REMARK 924 INTRA-LIGAND FREE ENERGY PREDICTED BY IDOCK:   -1.09 KCAL/MOL
REMARK 927      BINDING AFFINITY PREDICTED BY RF-SCORE:    0.00 PKD
ROOT
HETATM    1  C   UNL     1     -13.240   8.699  71.723  1.00  0.00    -0.363 C  
HETATM    2  S   UNL     1     -11.510   8.915  71.393  1.00  0.00    -0.338 S  
HETATM    3  O   UNL     1     -11.315   7.778  70.229  1.00  0.00    -0.252 OA 
HETATM    4  O   UNL     1     -11.317  10.218  70.792  1.00  0.00    -0.328 OA 
HETATM    5  O   UNL     1     -10.763   8.491  72.560  1.00  0.00    -0.332 OA 
ENDROOT
BRANCH   3   6
HETATM    6  C   UNL     1      -9.984   7.699  69.708  1.00  0.00    -0.184 C  
BRANCH   6   7
HETATM    7  C   UNL     1      -9.970   7.382  68.209  1.00  0.00    -0.163 C  
HETATM    8  O   UNL     1     -11.312   7.108  67.763  1.00  0.00    -0.514 OA 
HETATM    9  H   UNL     1     -11.303   6.911  66.833  1.00  0.00     0.000 HD 
BRANCH   7  10
HETATM   10  C   UNL     1      -9.456   8.572  67.369  1.00  0.00    -0.150 C  
HETATM   11  H   UNL     1      -9.687   9.206  65.515  1.00  0.00     0.000 HD 
HETATM   12  O   UNL     1     -10.003   8.474  66.033  1.00  0.00    -0.191 OA 
BRANCH  10  13
HETATM   13  C   UNL     1      -9.813   9.977  67.889  1.00  0.00    -0.145 C  
HETATM   14  O   UNL     1     -11.252  10.034  67.979  1.00  0.00    -0.467 OA 
HETATM   15  H   UNL     1     -11.472  10.900  68.299  1.00  0.00     0.000 HD 
BRANCH  13  16
HETATM   16  C   UNL     1      -9.305  11.152  67.035  1.00  0.00    -0.170 C  
HETATM   17  H   UNL     1      -7.704  12.282  67.008  1.00  0.00     0.000 HD 
HETATM   18  O   UNL     1      -8.017  11.557  67.536  1.00  0.00    -0.122 OA 
BRANCH  16  19
HETATM   19  C   UNL     1     -10.261  12.350  67.026  1.00  0.00    -0.220 C  
BRANCH  19  20
HETATM   20  O   UNL     1     -10.926  12.380  65.756  1.00  0.00    -0.280 OA 
HETATM   21  S   UNL     1     -11.415  13.837  65.224  1.00  0.00    -0.324 S  
HETATM   22  C   UNL     1     -12.121  13.296  63.686  1.00  0.00    -0.485 C  
HETATM   23  O   UNL     1     -10.243  14.641  64.947  1.00  0.00    -0.394 OA 
HETATM   24  O   UNL     1     -12.482  14.301  66.087  1.00  0.00    -0.442 OA 
ENDBRANCH  19  20
ENDBRANCH  16  19
ENDBRANCH  13  16
ENDBRANCH  10  13
ENDBRANCH   7  10
ENDBRANCH   6   7
ENDBRANCH   3   6
TORSDOF 7
ENDMDL
MODEL      156
REMARK 921   NORMALIZED FREE ENERGY PREDICTED BY IDOCK:   -4.04 KCAL/MOL
REMARK 922        TOTAL FREE ENERGY PREDICTED BY IDOCK:   -6.94 KCAL/MOL
REMARK 923 INTER-LIGAND FREE ENERGY PREDICTED BY IDOCK:   -5.76 KCAL/MOL
REMARK 924 INTRA-LIGAND FREE ENERGY PREDICTED BY IDOCK:   -1.18 KCAL/MOL
REMARK 927      BINDING AFFINITY PREDICTED BY RF-SCORE:    0.00 PKD
ROOT
HETATM    1  C   UNL     1     -12.852  12.027  63.709  1.00  0.00    -0.320 C  
HETATM    2  S   UNL     1     -11.592  13.141  64.276  1.00  0.00    -0.416 S  
HETATM    3  O   UNL     1     -11.471  12.640  65.832  1.00  0.00    -0.326 OA 
HETATM    4  O   UNL     1     -10.355  12.818  63.598  1.00  0.00    -0.364 OA 
HETATM    5  O   UNL     1     -12.135  14.484  64.281  1.00  0.00    -0.471 OA 
ENDROOT
BRANCH   3   6
HETATM    6  C   UNL     1     -10.489  13.346  66.597  1.00  0.00    -0.280 C  
BRANCH   6   7
HETATM    7  C   UNL     1     -10.622  13.071  68.098  1.00  0.00    -0.245 C  
HETATM    8  O   UNL     1      -9.310  12.963  68.685  1.00  0.00    -0.385 OA 
HETATM    9  H   UNL     1      -9.392  12.793  69.617  1.00  0.00     0.000 HD 
BRANCH   7  10
HETATM   10  C   UNL     1     -11.346  14.217  68.836  1.00  0.00    -0.274 C  
HETATM   11  H   UNL     1     -12.806  14.359  70.156  1.00  0.00     0.000 HD 
HETATM   12  O   UNL     1     -12.360  13.653  69.702  1.00  0.00    -0.296 OA 
BRANCH  10  13
HETATM   13  C   UNL     1     -10.466  15.121  69.721  1.00  0.00    -0.233 C  
HETATM   14  O   UNL     1     -11.115  15.203  71.007  1.00  0.00    -0.455 OA 
HETATM   15  H   UNL     1     -10.573  15.760  71.552  1.00  0.00     0.000 HD 
BRANCH  13  16
HETATM   16  C   UNL     1     -10.216  16.541  69.181  1.00  0.00    -0.298 C  
HETATM   17  H   UNL     1     -10.998  17.673  67.786  1.00  0.00     0.000 HD 
HETATM   18  O   UNL     1     -11.153  16.797  68.119  1.00  0.00    -0.363 OA 
BRANCH  16  19
HETATM   19  C   UNL     1      -8.784  16.750  68.675  1.00  0.00    -0.255 C  
BRANCH  19  20
HETATM   20  O   UNL     1      -7.949  15.752  69.277  1.00  0.00    -0.219 OA 
HETATM   21  S   UNL     1      -6.593  15.355  68.471  1.00  0.00    -0.115 S  
HETATM   22  C   UNL     1      -5.980  14.153  69.627  1.00  0.00    -0.114 C  
HETATM   23  O   UNL     1      -5.707  16.501  68.470  1.00  0.00    -0.113 OA 
HETATM   24  O   UNL     1      -6.973  14.673  67.251  1.00  0.00    -0.221 OA 
ENDBRANCH  19  20
ENDBRANCH  16  19
ENDBRANCH  13  16
ENDBRANCH  10  13
ENDBRANCH   7  10
ENDBRANCH   6   7
ENDBRANCH   3   6
TORSDOF 7
ENDMDL
MODEL      157
REMARK 921   NORMALIZED FREE ENERGY PREDICTED BY IDOCK:   -4.04 KCAL/MOL
REMARK 922        TOTAL FREE ENERGY PREDICTED BY IDOCK:   -6.94 KCAL/MOL
REMARK 923 INTER-LIGAND FREE ENERGY PREDICTED BY IDOCK:   -5.82 KCAL/MOL
REMARK 924 INTRA-LIGAND FREE ENERGY PREDICTED BY IDOCK:   -1.12 KCAL/MOL
REMARK 927      BINDING AFFINITY PREDICTED BY RF-SCORE:    0.00 PKD
ROOT
HETATM    1  C   UNL     1     -10.882   6.789  67.561  1.00  0.00    -0.318 C  
HETATM    2  S   UNL     1      -9.168   7.108  67.229  1.00  0.00    -0.134 S  
HETATM    3  O   UNL     1      -9.295   8.607  66.579  1.00  0.00    -0.169 OA 
HETATM    4  O   UNL     1      -8.469   7.218  68.491  1.00  0.00    -0.124 OA 
HETATM    5  O   UNL     1      -8.727   6.205  66.185  1.00  0.00    -0.138 OA 
ENDROOT
BRANCH   3   6
HETATM    6  C   UNL     1      -8.042   9.188  66.204  1.00  0.00    -0.107 C  
BRANCH   6   7
HETATM    7  C   UNL     1      -7.963  10.673  66.573  1.00  0.00    -0.138 C  
HETATM    8  O   UNL     1      -7.427  11.417  65.461  1.00  0.00    -0.250 OA 
HETATM    9  H   UNL     1      -7.377  12.338  65.691  1.00  0.00     0.000 HD 
BRANCH   7  10
HETATM   10  C   UNL     1      -9.353  11.270  66.879  1.00  0.00    -0.177 C  
HETATM   11  H   UNL     1     -10.328  11.847  68.494  1.00  0.00     0.000 HD 
HETATM   12  O   UNL     1      -9.472  11.479  68.306  1.00  0.00    -0.178 OA 
BRANCH  10  13
HETATM   13  C   UNL     1      -9.677  12.619  66.209  1.00  0.00    -0.259 C  
HETATM   14  O   UNL     1      -8.633  13.537  66.596  1.00  0.00    -0.432 OA 
HETATM   15  H   UNL     1      -8.833  14.368  66.183  1.00  0.00     0.000 HD 
BRANCH  13  16
HETATM   16  C   UNL     1     -11.048  13.224  66.558  1.00  0.00    -0.294 C  
HETATM   17  H   UNL     1     -12.909  12.611  66.509  1.00  0.00     0.000 HD 
HETATM   18  O   UNL     1     -12.063  12.238  66.293  1.00  0.00    -0.626 OA 
BRANCH  16  19
HETATM   19  C   UNL     1     -11.356  14.510  65.782  1.00  0.00    -0.336 C  
BRANCH  19  20
HETATM   20  O   UNL     1     -11.064  15.625  66.634  1.00  0.00    -0.270 OA 
HETATM   21  S   UNL     1     -10.131  16.798  66.003  1.00  0.00    -0.309 S  
HETATM   22  C   UNL     1     -10.114  17.868  67.422  1.00  0.00    -0.340 C  
HETATM   23  O   UNL     1     -10.866  17.445  64.936  1.00  0.00    -0.814 OA 
HETATM   24  O   UNL     1      -8.799  16.265  65.808  1.00  0.00    -0.411 OA 
ENDBRANCH  19  20
ENDBRANCH  16  19
ENDBRANCH  13  16
ENDBRANCH  10  13
ENDBRANCH   7  10
ENDBRANCH   6   7
ENDBRANCH   3   6
TORSDOF 7
ENDMDL
MODEL      158
REMARK 921   NORMALIZED FREE ENERGY PREDICTED BY IDOCK:   -4.02 KCAL/MOL
REMARK 922        TOTAL FREE ENERGY PREDICTED BY IDOCK:   -6.91 KCAL/MOL
REMARK 923 INTER-LIGAND FREE ENERGY PREDICTED BY IDOCK:   -6.07 KCAL/MOL
REMARK 924 INTRA-LIGAND FREE ENERGY PREDICTED BY IDOCK:   -0.84 KCAL/MOL
REMARK 927      BINDING AFFINITY PREDICTED BY RF-SCORE:    0.00 PKD
ROOT
HETATM    1  C   UNL     1      -8.038   5.046  65.566  1.00  0.00    -0.115 C  
HETATM    2  S   UNL     1      -8.321   5.483  67.263  1.00  0.00    -0.102 S  
HETATM    3  O   UNL     1      -8.665   7.075  67.075  1.00  0.00    -0.119 OA 
HETATM    4  O   UNL     1      -9.519   4.810  67.717  1.00  0.00    -0.133 OA 
HETATM    5  O   UNL     1      -7.065   5.380  67.979  1.00  0.00    -0.064 OA 
ENDROOT
BRANCH   3   6
HETATM    6  C   UNL     1      -8.973   7.752  68.298  1.00  0.00    -0.131 C  
BRANCH   6   7
HETATM    7  C   UNL     1     -10.427   8.232  68.340  1.00  0.00    -0.162 C  
HETATM    8  O   UNL     1     -11.306   7.095  68.451  1.00  0.00    -0.465 OA 
HETATM    9  H   UNL     1     -12.208   7.394  68.478  1.00  0.00     0.000 HD 
BRANCH   7  10
HETATM   10  C   UNL     1     -10.706   9.131  69.564  1.00  0.00    -0.215 C  
HETATM   11  H   UNL     1      -9.657   9.836  71.079  1.00  0.00     0.000 HD 
HETATM   12  O   UNL     1      -9.485   9.282  70.325  1.00  0.00    -0.201 OA 
BRANCH  10  13
HETATM   13  C   UNL     1     -11.216  10.554  69.262  1.00  0.00    -0.262 C  
HETATM   14  O   UNL     1     -12.657  10.487  69.260  1.00  0.00    -0.726 OA 
HETATM   15  H   UNL     1     -12.971  11.364  69.074  1.00  0.00     0.000 HD 
BRANCH  13  16
HETATM   16  C   UNL     1     -10.727  11.170  67.940  1.00  0.00    -0.216 C  
HETATM   17  H   UNL     1      -9.122  12.119  67.338  1.00  0.00     0.000 HD 
HETATM   18  O   UNL     1      -9.423  11.740  68.155  1.00  0.00    -0.181 OA 
BRANCH  16  19
HETATM   19  C   UNL     1     -11.677  12.237  67.383  1.00  0.00    -0.335 C  
BRANCH  19  20
HETATM   20  O   UNL     1     -11.979  11.898  66.023  1.00  0.00    -0.511 OA 
HETATM   21  S   UNL     1     -12.102  13.136  64.975  1.00  0.00    -0.444 S  
HETATM   22  C   UNL     1     -12.454  12.175  63.523  1.00  0.00    -0.555 C  
HETATM   23  O   UNL     1     -10.796  13.745  64.830  1.00  0.00    -0.357 OA 
HETATM   24  O   UNL     1     -13.279  13.907  65.318  1.00  0.00    -0.774 OA 
ENDBRANCH  19  20
ENDBRANCH  16  19
ENDBRANCH  13  16
ENDBRANCH  10  13
ENDBRANCH   7  10
ENDBRANCH   6   7
ENDBRANCH   3   6
TORSDOF 7
ENDMDL
MODEL      159
REMARK 921   NORMALIZED FREE ENERGY PREDICTED BY IDOCK:   -4.01 KCAL/MOL
REMARK 922        TOTAL FREE ENERGY PREDICTED BY IDOCK:   -6.90 KCAL/MOL
REMARK 923 INTER-LIGAND FREE ENERGY PREDICTED BY IDOCK:   -6.65 KCAL/MOL
REMARK 924 INTRA-LIGAND FREE ENERGY PREDICTED BY IDOCK:   -0.25 KCAL/MOL
REMARK 927      BINDING AFFINITY PREDICTED BY RF-SCORE:    0.00 PKD
ROOT
HETATM    1  C   UNL     1     -10.126  11.361  65.375  1.00  0.00    -0.261 C  
HETATM    2  S   UNL     1     -11.425  11.847  66.483  1.00  0.00    -0.245 S  
HETATM    3  O   UNL     1     -10.682  13.101  67.233  1.00  0.00    -0.251 OA 
HETATM    4  O   UNL     1     -12.523  12.373  65.700  1.00  0.00    -0.640 OA 
HETATM    5  O   UNL     1     -11.616  10.793  67.458  1.00  0.00    -0.510 OA 
ENDROOT
BRANCH   3   6
HETATM    6  C   UNL     1     -11.493  13.757  68.213  1.00  0.00    -0.312 C  
BRANCH   6   7
HETATM    7  C   UNL     1     -11.404  15.282  68.107  1.00  0.00    -0.338 C  
HETATM    8  O   UNL     1     -12.493  15.880  68.838  1.00  0.00    -0.447 OA 
HETATM    9  H   UNL     1     -12.437  16.826  68.772  1.00  0.00     0.000 HD 
BRANCH   7  10
HETATM   10  C   UNL     1     -10.100  15.832  68.726  1.00  0.00    -0.215 C  
HETATM   11  H   UNL     1      -8.193  15.325  68.704  1.00  0.00     0.000 HD 
HETATM   12  O   UNL     1      -8.996  14.987  68.323  1.00  0.00    -0.165 OA 
BRANCH  10  13
HETATM   13  C   UNL     1      -9.716  17.272  68.338  1.00  0.00    -0.293 C  
HETATM   14  O   UNL     1     -10.416  18.148  69.247  1.00  0.00    -0.423 OA 
HETATM   15  H   UNL     1     -10.180  19.036  69.008  1.00  0.00     0.000 HD 
BRANCH  13  16
HETATM   16  C   UNL     1     -10.033  17.679  66.888  1.00  0.00    -0.323 C  
HETATM   17  H   UNL     1      -9.344  17.209  65.114  1.00  0.00     0.000 HD 
HETATM   18  O   UNL     1      -9.149  16.958  66.009  1.00  0.00    -0.448 OA 
BRANCH  16  19
HETATM   19  C   UNL     1      -9.900  19.185  66.640  1.00  0.00    -0.353 C  
BRANCH  19  20
HETATM   20  O   UNL     1      -8.670  19.415  65.940  1.00  0.00    -0.427 OA 
HETATM   21  S   UNL     1      -7.437  20.017  66.813  1.00  0.00    -0.266 S  
HETATM   22  C   UNL     1      -6.235  20.078  65.505  1.00  0.00    -0.222 C  
HETATM   23  O   UNL     1      -7.028  19.019  67.780  1.00  0.00    -0.213 OA 
HETATM   24  O   UNL     1      -7.772  21.372  67.198  1.00  0.00    -0.299 OA 
ENDBRANCH  19  20
ENDBRANCH  16  19
ENDBRANCH  13  16
ENDBRANCH  10  13
ENDBRANCH   7  10
ENDBRANCH   6   7
ENDBRANCH   3   6
TORSDOF 7
ENDMDL
MODEL      160
REMARK 921   NORMALIZED FREE ENERGY PREDICTED BY IDOCK:   -4.01 KCAL/MOL
REMARK 922        TOTAL FREE ENERGY PREDICTED BY IDOCK:   -6.89 KCAL/MOL
REMARK 923 INTER-LIGAND FREE ENERGY PREDICTED BY IDOCK:   -5.78 KCAL/MOL
REMARK 924 INTRA-LIGAND FREE ENERGY PREDICTED BY IDOCK:   -1.11 KCAL/MOL
REMARK 927      BINDING AFFINITY PREDICTED BY RF-SCORE:    0.00 PKD
ROOT
HETATM    1  C   UNL     1     -12.893  15.821  73.673  1.00  0.00    -0.592 C  
HETATM    2  S   UNL     1     -13.488  14.857  72.307  1.00  0.00    -0.458 S  
HETATM    3  O   UNL     1     -12.061  14.518  71.576  1.00  0.00    -0.340 OA 
HETATM    4  O   UNL     1     -14.038  13.621  72.823  1.00  0.00    -0.711 OA 
HETATM    5  O   UNL     1     -14.245  15.725  71.428  1.00  0.00    -0.484 OA 
ENDROOT
BRANCH   3   6
HETATM    6  C   UNL     1     -12.184  13.706  70.404  1.00  0.00    -0.363 C  
BRANCH   6   7
HETATM    7  C   UNL     1     -11.561  14.372  69.173  1.00  0.00    -0.307 C  
HETATM    8  O   UNL     1     -10.273  14.916  69.521  1.00  0.00    -0.312 OA 
HETATM    9  H   UNL     1      -9.887  15.329  68.757  1.00  0.00     0.000 HD 
BRANCH   7  10
HETATM   10  C   UNL     1     -11.324  13.365  68.027  1.00  0.00    -0.286 C  
HETATM   11  H   UNL     1     -10.446  13.404  66.260  1.00  0.00     0.000 HD 
HETATM   12  O   UNL     1     -10.593  14.024  66.966  1.00  0.00    -0.276 OA 
BRANCH  10  13
HETATM   13  C   UNL     1     -10.527  12.097  68.388  1.00  0.00    -0.231 C  
HETATM   14  O   UNL     1      -9.191  12.526  68.723  1.00  0.00    -0.394 OA 
HETATM   15  H   UNL     1      -8.700  11.745  68.945  1.00  0.00     0.000 HD 
BRANCH  13  16
HETATM   16  C   UNL     1     -10.461  11.017  67.293  1.00  0.00    -0.231 C  
HETATM   17  H   UNL     1     -10.784   9.086  67.201  1.00  0.00     0.000 HD 
HETATM   18  O   UNL     1     -10.825   9.752  67.877  1.00  0.00    -0.266 OA 
BRANCH  16  19
HETATM   19  C   UNL     1      -9.081  10.910  66.634  1.00  0.00    -0.162 C  
BRANCH  19  20
HETATM   20  O   UNL     1      -8.371   9.833  67.261  1.00  0.00    -0.120 OA 
HETATM   21  S   UNL     1      -6.779  10.056  67.504  1.00  0.00    -0.073 S  
HETATM   22  C   UNL     1      -6.442   8.493  68.281  1.00  0.00    -0.060 C  
HETATM   23  O   UNL     1      -6.606  11.113  68.479  1.00  0.00    -0.056 OA 
HETATM   24  O   UNL     1      -6.122  10.082  66.213  1.00  0.00    -0.062 OA 
ENDBRANCH  19  20
ENDBRANCH  16  19
ENDBRANCH  13  16
ENDBRANCH  10  13
ENDBRANCH   7  10
ENDBRANCH   6   7
ENDBRANCH   3   6
TORSDOF 7
ENDMDL
MODEL      161
REMARK 921   NORMALIZED FREE ENERGY PREDICTED BY IDOCK:   -4.00 KCAL/MOL
REMARK 922        TOTAL FREE ENERGY PREDICTED BY IDOCK:   -6.88 KCAL/MOL
REMARK 923 INTER-LIGAND FREE ENERGY PREDICTED BY IDOCK:   -5.97 KCAL/MOL
REMARK 924 INTRA-LIGAND FREE ENERGY PREDICTED BY IDOCK:   -0.91 KCAL/MOL
REMARK 927      BINDING AFFINITY PREDICTED BY RF-SCORE:    0.00 PKD
ROOT
HETATM    1  C   UNL     1      -9.759   4.160  70.147  1.00  0.00    -0.208 C  
HETATM    2  S   UNL     1      -9.844   4.821  71.791  1.00  0.00    -0.187 S  
HETATM    3  O   UNL     1     -11.046   5.916  71.578  1.00  0.00    -0.270 OA 
HETATM    4  O   UNL     1     -10.326   3.784  72.678  1.00  0.00    -0.164 OA 
HETATM    5  O   UNL     1      -8.620   5.549  72.057  1.00  0.00    -0.129 OA 
ENDROOT
BRANCH   3   6
HETATM    6  C   UNL     1     -11.391   6.639  72.764  1.00  0.00    -0.186 C  
BRANCH   6   7
HETATM    7  C   UNL     1     -11.135   8.142  72.616  1.00  0.00    -0.380 C  
HETATM    8  O   UNL     1      -9.859   8.352  71.979  1.00  0.00    -0.227 OA 
HETATM    9  H   UNL     1      -9.701   9.285  71.888  1.00  0.00     0.000 HD 
BRANCH   7  10
HETATM   10  C   UNL     1     -12.194   8.827  71.726  1.00  0.00    -0.349 C  
HETATM   11  H   UNL     1     -14.104   9.295  71.894  1.00  0.00     0.000 HD 
HETATM   12  O   UNL     1     -13.452   8.873  72.442  1.00  0.00    -0.425 OA 
BRANCH  10  13
HETATM   13  C   UNL     1     -11.885  10.272  71.289  1.00  0.00    -0.335 C  
HETATM   14  O   UNL     1     -13.047  11.063  71.615  1.00  0.00    -0.446 OA 
HETATM   15  H   UNL     1     -12.857  11.953  71.345  1.00  0.00     0.000 HD 
BRANCH  13  16
HETATM   16  C   UNL     1     -11.539  10.457  69.801  1.00  0.00    -0.269 C  
HETATM   17  H   UNL     1      -9.893  10.545  68.740  1.00  0.00     0.000 HD 
HETATM   18  O   UNL     1     -10.107  10.431  69.659  1.00  0.00    -0.231 OA 
BRANCH  16  19
HETATM   19  C   UNL     1     -12.097  11.756  69.208  1.00  0.00    -0.229 C  
BRANCH  19  20
HETATM   20  O   UNL     1     -12.056  11.647  67.779  1.00  0.00    -0.613 OA 
HETATM   21  S   UNL     1     -11.395  12.895  66.973  1.00  0.00    -0.327 S  
HETATM   22  C   UNL     1     -11.590  12.240  65.332  1.00  0.00    -0.363 C  
HETATM   23  O   UNL     1      -9.983  12.953  67.292  1.00  0.00    -0.219 OA 
HETATM   24  O   UNL     1     -12.266  14.043  67.120  1.00  0.00    -0.419 OA 
ENDBRANCH  19  20
ENDBRANCH  16  19
ENDBRANCH  13  16
ENDBRANCH  10  13
ENDBRANCH   7  10
ENDBRANCH   6   7
ENDBRANCH   3   6
TORSDOF 7
ENDMDL
MODEL      162
REMARK 921   NORMALIZED FREE ENERGY PREDICTED BY IDOCK:   -4.00 KCAL/MOL
REMARK 922        TOTAL FREE ENERGY PREDICTED BY IDOCK:   -6.88 KCAL/MOL
REMARK 923 INTER-LIGAND FREE ENERGY PREDICTED BY IDOCK:   -6.02 KCAL/MOL
REMARK 924 INTRA-LIGAND FREE ENERGY PREDICTED BY IDOCK:   -0.86 KCAL/MOL
REMARK 927      BINDING AFFINITY PREDICTED BY RF-SCORE:    0.00 PKD
ROOT
HETATM    1  C   UNL     1      -8.856   6.082  68.023  1.00  0.00    -0.110 C  
HETATM    2  S   UNL     1     -10.385   6.891  68.418  1.00  0.00    -0.201 S  
HETATM    3  O   UNL     1      -9.814   8.084  69.387  1.00  0.00    -0.175 OA 
HETATM    4  O   UNL     1     -10.909   7.497  67.213  1.00  0.00    -0.299 OA 
HETATM    5  O   UNL     1     -11.181   5.997  69.235  1.00  0.00    -0.384 OA 
ENDROOT
BRANCH   3   6
HETATM    6  C   UNL     1     -10.825   8.967  69.882  1.00  0.00    -0.218 C  
BRANCH   6   7
HETATM    7  C   UNL     1     -10.459  10.439  69.670  1.00  0.00    -0.243 C  
HETATM    8  O   UNL     1      -9.036  10.557  69.474  1.00  0.00    -0.349 OA 
HETATM    9  H   UNL     1      -8.809  11.471  69.342  1.00  0.00     0.000 HD 
BRANCH   7  10
HETATM   10  C   UNL     1     -11.132  11.029  68.411  1.00  0.00    -0.251 C  
HETATM   11  H   UNL     1     -12.932  11.678  67.935  1.00  0.00     0.000 HD 
HETATM   12  O   UNL     1     -12.519  11.315  68.709  1.00  0.00    -0.444 OA 
BRANCH  10  13
HETATM   13  C   UNL     1     -10.522  12.332  67.860  1.00  0.00    -0.213 C  
HETATM   14  O   UNL     1     -10.400  13.238  68.977  1.00  0.00    -0.416 OA 
HETATM   15  H   UNL     1     -10.025  14.041  68.637  1.00  0.00     0.000 HD 
BRANCH  13  16
HETATM   16  C   UNL     1     -11.314  13.013  66.731  1.00  0.00    -0.324 C  
HETATM   17  H   UNL     1     -12.491  12.416  65.281  1.00  0.00     0.000 HD 
HETATM   18  O   UNL     1     -12.001  11.996  65.978  1.00  0.00    -0.559 OA 
BRANCH  16  19
HETATM   19  C   UNL     1     -10.434  13.849  65.795  1.00  0.00    -0.307 C  
BRANCH  19  20
HETATM   20  O   UNL     1      -9.456  14.528  66.593  1.00  0.00    -0.257 OA 
HETATM   21  S   UNL     1      -9.725  16.104  66.889  1.00  0.00    -0.245 S  
HETATM   22  C   UNL     1      -8.280  16.404  67.879  1.00  0.00    -0.166 C  
HETATM   23  O   UNL     1     -10.901  16.219  67.727  1.00  0.00    -0.328 OA 
HETATM   24  O   UNL     1      -9.592  16.830  65.643  1.00  0.00    -0.527 OA 
ENDBRANCH  19  20
ENDBRANCH  16  19
ENDBRANCH  13  16
ENDBRANCH  10  13
ENDBRANCH   7  10
ENDBRANCH   6   7
ENDBRANCH   3   6
TORSDOF 7
ENDMDL
MODEL      163
REMARK 921   NORMALIZED FREE ENERGY PREDICTED BY IDOCK:   -4.00 KCAL/MOL
REMARK 922        TOTAL FREE ENERGY PREDICTED BY IDOCK:   -6.88 KCAL/MOL
REMARK 923 INTER-LIGAND FREE ENERGY PREDICTED BY IDOCK:   -6.04 KCAL/MOL
REMARK 924 INTRA-LIGAND FREE ENERGY PREDICTED BY IDOCK:   -0.84 KCAL/MOL
REMARK 927      BINDING AFFINITY PREDICTED BY RF-SCORE:    0.00 PKD
ROOT
HETATM    1  C   UNL     1     -11.494  15.705  64.306  1.00  0.00    -0.193 C  
HETATM    2  S   UNL     1     -12.262  14.119  64.521  1.00  0.00    -0.418 S  
HETATM    3  O   UNL     1     -10.963  13.260  65.033  1.00  0.00    -0.293 OA 
HETATM    4  O   UNL     1     -13.205  14.211  65.615  1.00  0.00    -0.615 OA 
HETATM    5  O   UNL     1     -12.645  13.615  63.218  1.00  0.00    -0.816 OA 
ENDROOT
BRANCH   3   6
HETATM    6  C   UNL     1     -11.250  11.889  65.327  1.00  0.00    -0.295 C  
BRANCH   6   7
HETATM    7  C   UNL     1     -10.917  11.529  66.778  1.00  0.00    -0.294 C  
HETATM    8  O   UNL     1     -12.136  11.411  67.537  1.00  0.00    -0.592 OA 
HETATM    9  H   UNL     1     -11.929  11.187  68.437  1.00  0.00     0.000 HD 
BRANCH   7  10
HETATM   10  C   UNL     1     -10.192  10.170  66.887  1.00  0.00    -0.236 C  
HETATM   11  H   UNL     1      -8.513   9.515  67.690  1.00  0.00     0.000 HD 
HETATM   12  O   UNL     1      -8.959  10.352  67.623  1.00  0.00    -0.137 OA 
BRANCH  10  13
HETATM   13  C   UNL     1     -10.964   9.041  67.594  1.00  0.00     0.078 C  
HETATM   14  O   UNL     1     -11.203   9.484  68.947  1.00  0.00    -0.446 OA 
HETATM   15  H   UNL     1     -11.678   8.788  69.383  1.00  0.00     0.000 HD 
BRANCH  13  16
HETATM   16  C   UNL     1     -10.266   7.670  67.619  1.00  0.00    -0.214 C  
HETATM   17  H   UNL     1     -10.818   5.806  67.371  1.00  0.00     0.000 HD 
HETATM   18  O   UNL     1     -11.249   6.652  67.357  1.00  0.00    -0.344 OA 
BRANCH  16  19
HETATM   19  C   UNL     1      -9.555   7.378  68.945  1.00  0.00    -0.148 C  
BRANCH  19  20
HETATM   20  O   UNL     1     -10.500   6.761  69.830  1.00  0.00    -0.196 OA 
HETATM   21  S   UNL     1     -10.359   7.121  71.410  1.00  0.00    -0.195 S  
HETATM   22  C   UNL     1     -11.722   6.141  71.993  1.00  0.00    -0.299 C  
HETATM   23  O   UNL     1     -10.676   8.523  71.592  1.00  0.00    -0.239 OA 
HETATM   24  O   UNL     1      -9.126   6.540  71.901  1.00  0.00    -0.148 OA 
ENDBRANCH  19  20
ENDBRANCH  16  19
ENDBRANCH  13  16
ENDBRANCH  10  13
ENDBRANCH   7  10
ENDBRANCH   6   7
ENDBRANCH   3   6
TORSDOF 7
ENDMDL
MODEL      164
REMARK 921   NORMALIZED FREE ENERGY PREDICTED BY IDOCK:   -3.99 KCAL/MOL
REMARK 922        TOTAL FREE ENERGY PREDICTED BY IDOCK:   -6.87 KCAL/MOL
REMARK 923 INTER-LIGAND FREE ENERGY PREDICTED BY IDOCK:   -6.59 KCAL/MOL
REMARK 924 INTRA-LIGAND FREE ENERGY PREDICTED BY IDOCK:   -0.29 KCAL/MOL
REMARK 927      BINDING AFFINITY PREDICTED BY RF-SCORE:    0.00 PKD
ROOT
HETATM    1  C   UNL     1      -6.634  18.841  67.824  1.00  0.00    -0.209 C  
HETATM    2  S   UNL     1      -6.938  17.563  66.631  1.00  0.00    -0.257 S  
HETATM    3  O   UNL     1      -7.435  16.369  67.638  1.00  0.00    -0.123 OA 
HETATM    4  O   UNL     1      -8.061  17.960  65.809  1.00  0.00    -0.537 OA 
HETATM    5  O   UNL     1      -5.671  17.162  66.054  1.00  0.00    -0.280 OA 
ENDROOT
BRANCH   3   6
HETATM    6  C   UNL     1      -7.792  15.154  66.971  1.00  0.00    -0.162 C  
BRANCH   6   7
HETATM    7  C   UNL     1      -8.937  14.424  67.678  1.00  0.00    -0.192 C  
HETATM    8  O   UNL     1      -8.462  13.878  68.925  1.00  0.00    -0.339 OA 
HETATM    9  H   UNL     1      -9.173  13.425  69.364  1.00  0.00     0.000 HD 
BRANCH   7  10
HETATM   10  C   UNL     1     -10.105  15.373  68.026  1.00  0.00    -0.226 C  
HETATM   11  H   UNL     1     -11.279  16.605  67.028  1.00  0.00     0.000 HD 
HETATM   12  O   UNL     1     -10.561  16.021  66.815  1.00  0.00    -0.315 OA 
BRANCH  10  13
HETATM   13  C   UNL     1     -11.344  14.722  68.669  1.00  0.00    -0.285 C  
HETATM   14  O   UNL     1     -10.993  14.422  70.036  1.00  0.00    -0.439 OA 
HETATM   15  H   UNL     1     -11.757  14.020  70.433  1.00  0.00     0.000 HD 
BRANCH  13  16
HETATM   16  C   UNL     1     -11.860  13.447  67.979  1.00  0.00    -0.357 C  
HETATM   17  H   UNL     1     -11.112  11.693  67.523  1.00  0.00     0.000 HD 
HETATM   18  O   UNL     1     -10.793  12.480  67.948  1.00  0.00    -0.210 OA 
BRANCH  16  19
HETATM   19  C   UNL     1     -12.379  13.696  66.559  1.00  0.00    -0.361 C  
BRANCH  19  20
HETATM   20  O   UNL     1     -11.912  12.630  65.721  1.00  0.00    -0.423 OA 
HETATM   21  S   UNL     1     -11.394  13.045  64.236  1.00  0.00    -0.400 S  
HETATM   22  C   UNL     1     -10.946  11.416  63.684  1.00  0.00    -0.363 C  
HETATM   23  O   UNL     1     -10.191  13.840  64.375  1.00  0.00    -0.367 OA 
HETATM   24  O   UNL     1     -12.534  13.498  63.467  1.00  0.00    -0.745 OA 
ENDBRANCH  19  20
ENDBRANCH  16  19
ENDBRANCH  13  16
ENDBRANCH  10  13
ENDBRANCH   7  10
ENDBRANCH   6   7
ENDBRANCH   3   6
TORSDOF 7
ENDMDL
MODEL      165
REMARK 921   NORMALIZED FREE ENERGY PREDICTED BY IDOCK:   -3.99 KCAL/MOL
REMARK 922        TOTAL FREE ENERGY PREDICTED BY IDOCK:   -6.87 KCAL/MOL
REMARK 923 INTER-LIGAND FREE ENERGY PREDICTED BY IDOCK:   -5.67 KCAL/MOL
REMARK 924 INTRA-LIGAND FREE ENERGY PREDICTED BY IDOCK:   -1.20 KCAL/MOL
REMARK 927      BINDING AFFINITY PREDICTED BY RF-SCORE:    0.00 PKD
ROOT
HETATM    1  C   UNL     1     -11.338  12.933  64.966  1.00  0.00    -0.305 C  
HETATM    2  S   UNL     1     -10.035  12.036  65.770  1.00  0.00    -0.243 S  
HETATM    3  O   UNL     1     -10.935  11.074  66.746  1.00  0.00    -0.267 OA 
HETATM    4  O   UNL     1      -9.380  11.199  64.788  1.00  0.00    -0.216 OA 
HETATM    5  O   UNL     1      -9.294  12.955  66.610  1.00  0.00    -0.240 OA 
ENDROOT
BRANCH   3   6
HETATM    6  C   UNL     1     -10.165  10.174  67.549  1.00  0.00    -0.211 C  
BRANCH   6   7
HETATM    7  C   UNL     1     -10.450   8.709  67.209  1.00  0.00    -0.289 C  
HETATM    8  O   UNL     1     -10.093   8.456  65.835  1.00  0.00    -0.432 OA 
HETATM    9  H   UNL     1     -10.270   7.546  65.624  1.00  0.00     0.000 HD 
BRANCH   7  10
HETATM   10  C   UNL     1      -9.614   7.739  68.071  1.00  0.00    -0.150 C  
HETATM   11  H   UNL     1      -8.628   7.843  69.776  1.00  0.00     0.000 HD 
HETATM   12  O   UNL     1      -9.142   8.440  69.246  1.00  0.00    -0.149 OA 
BRANCH  10  13
HETATM   13  C   UNL     1     -10.339   6.476  68.574  1.00  0.00    -0.192 C  
HETATM   14  O   UNL     1     -11.659   6.495  67.991  1.00  0.00    -0.598 OA 
HETATM   15  H   UNL     1     -12.107   5.718  68.302  1.00  0.00     0.000 HD 
BRANCH  13  16
HETATM   16  C   UNL     1     -10.455   6.339  70.103  1.00  0.00    -0.222 C  
HETATM   17  H   UNL     1     -10.214   4.896  71.407  1.00  0.00     0.000 HD 
HETATM   18  O   UNL     1     -10.144   4.980  70.464  1.00  0.00    -0.224 OA 
BRANCH  16  19
HETATM   19  C   UNL     1     -11.840   6.717  70.640  1.00  0.00    -0.383 C  
BRANCH  19  20
HETATM   20  O   UNL     1     -12.013   8.130  70.470  1.00  0.00    -0.114 OA 
HETATM   21  S   UNL     1     -11.893   9.044  71.810  1.00  0.00    -0.387 S  
HETATM   22  C   UNL     1     -12.164  10.622  71.039  1.00  0.00    -0.393 C  
HETATM   23  O   UNL     1     -10.527   8.983  72.288  1.00  0.00    -0.269 OA 
HETATM   24  O   UNL     1     -13.023   8.745  72.666  1.00  0.00    -0.389 OA 
ENDBRANCH  19  20
ENDBRANCH  16  19
ENDBRANCH  13  16
ENDBRANCH  10  13
ENDBRANCH   7  10
ENDBRANCH   6   7
ENDBRANCH   3   6
TORSDOF 7
ENDMDL
MODEL      166
REMARK 921   NORMALIZED FREE ENERGY PREDICTED BY IDOCK:   -3.98 KCAL/MOL
REMARK 922        TOTAL FREE ENERGY PREDICTED BY IDOCK:   -6.86 KCAL/MOL
REMARK 923 INTER-LIGAND FREE ENERGY PREDICTED BY IDOCK:   -5.72 KCAL/MOL
REMARK 924 INTRA-LIGAND FREE ENERGY PREDICTED BY IDOCK:   -1.14 KCAL/MOL
REMARK 927      BINDING AFFINITY PREDICTED BY RF-SCORE:    0.00 PKD
ROOT
HETATM    1  C   UNL     1     -12.786   9.968  71.728  1.00  0.00    -0.446 C  
HETATM    2  S   UNL     1     -12.442   8.227  71.713  1.00  0.00    -0.347 S  
HETATM    3  O   UNL     1     -11.621   8.130  70.297  1.00  0.00    -0.150 OA 
HETATM    4  O   UNL     1     -11.523   7.932  72.791  1.00  0.00    -0.390 OA 
HETATM    5  O   UNL     1     -13.692   7.513  71.554  1.00  0.00    -0.378 OA 
ENDROOT
BRANCH   3   6
HETATM    6  C   UNL     1     -11.163   6.812  69.979  1.00  0.00    -0.328 C  
BRANCH   6   7
HETATM    7  C   UNL     1     -10.498   6.750  68.600  1.00  0.00    -0.206 C  
HETATM    8  O   UNL     1     -11.482   6.396  67.608  1.00  0.00    -0.668 OA 
HETATM    9  H   UNL     1     -11.069   6.358  66.752  1.00  0.00     0.000 HD 
BRANCH   7  10
HETATM   10  C   UNL     1      -9.911   8.114  68.177  1.00  0.00    -0.186 C  
HETATM   11  H   UNL     1      -8.139   8.793  67.640  1.00  0.00     0.000 HD 
HETATM   12  O   UNL     1      -8.500   7.954  67.900  1.00  0.00    -0.125 OA 
BRANCH  10  13
HETATM   13  C   UNL     1     -10.534   8.765  66.927  1.00  0.00    -0.249 C  
HETATM   14  O   UNL     1      -9.935   8.123  65.782  1.00  0.00    -0.377 OA 
HETATM   15  H   UNL     1     -10.318   8.524  65.012  1.00  0.00     0.000 HD 
BRANCH  13  16
HETATM   16  C   UNL     1     -10.357  10.289  66.812  1.00  0.00    -0.227 C  
HETATM   17  H   UNL     1     -11.370  11.869  67.377  1.00  0.00     0.000 HD 
HETATM   18  O   UNL     1     -11.480  10.928  67.448  1.00  0.00    -0.479 OA 
BRANCH  16  19
HETATM   19  C   UNL     1     -10.232  10.775  65.364  1.00  0.00    -0.276 C  
BRANCH  19  20
HETATM   20  O   UNL     1      -8.862  10.636  64.964  1.00  0.00    -0.192 OA 
HETATM   21  S   UNL     1      -8.586  10.417  63.376  1.00  0.00    -0.191 S  
HETATM   22  C   UNL     1      -6.813  10.327  63.460  1.00  0.00    -0.083 C  
HETATM   23  O   UNL     1      -8.963  11.626  62.673  1.00  0.00    -0.307 OA 
HETATM   24  O   UNL     1      -9.099   9.115  63.001  1.00  0.00    -0.115 OA 
ENDBRANCH  19  20
ENDBRANCH  16  19
ENDBRANCH  13  16
ENDBRANCH  10  13
ENDBRANCH   7  10
ENDBRANCH   6   7
ENDBRANCH   3   6
TORSDOF 7
ENDMDL
MODEL      167
REMARK 921   NORMALIZED FREE ENERGY PREDICTED BY IDOCK:   -3.97 KCAL/MOL
REMARK 922        TOTAL FREE ENERGY PREDICTED BY IDOCK:   -6.84 KCAL/MOL
REMARK 923 INTER-LIGAND FREE ENERGY PREDICTED BY IDOCK:   -6.03 KCAL/MOL
REMARK 924 INTRA-LIGAND FREE ENERGY PREDICTED BY IDOCK:   -0.81 KCAL/MOL
REMARK 927      BINDING AFFINITY PREDICTED BY RF-SCORE:    0.00 PKD
ROOT
HETATM    1  C   UNL     1      -7.703   8.100  70.286  1.00  0.00    -0.085 C  
HETATM    2  S   UNL     1      -7.837   8.562  68.578  1.00  0.00    -0.110 S  
HETATM    3  O   UNL     1      -8.838   9.852  68.727  1.00  0.00    -0.126 OA 
HETATM    4  O   UNL     1      -6.547   9.038  68.128  1.00  0.00    -0.059 OA 
HETATM    5  O   UNL     1      -8.557   7.519  67.875  1.00  0.00    -0.122 OA 
ENDROOT
BRANCH   3   6
HETATM    6  C   UNL     1      -9.145  10.498  67.487  1.00  0.00    -0.138 C  
BRANCH   6   7
HETATM    7  C   UNL     1     -10.619  10.336  67.103  1.00  0.00    -0.260 C  
HETATM    8  O   UNL     1     -11.131   9.111  67.664  1.00  0.00    -0.486 OA 
HETATM    9  H   UNL     1     -12.045   9.011  67.426  1.00  0.00     0.000 HD 
BRANCH   7  10
HETATM   10  C   UNL     1     -11.493  11.480  67.661  1.00  0.00    -0.285 C  
HETATM   11  H   UNL     1     -12.594  11.771  69.272  1.00  0.00     0.000 HD 
HETATM   12  O   UNL     1     -12.056  11.067  68.928  1.00  0.00    -0.479 OA 
BRANCH  10  13
HETATM   13  C   UNL     1     -10.779  12.822  67.913  1.00  0.00    -0.219 C  
HETATM   14  O   UNL     1     -10.138  12.715  69.202  1.00  0.00    -0.412 OA 
HETATM   15  H   UNL     1      -9.699  13.542  69.358  1.00  0.00     0.000 HD 
BRANCH  13  16
HETATM   16  C   UNL     1     -11.678  14.070  67.888  1.00  0.00    -0.362 C  
HETATM   17  H   UNL     1     -11.795  15.697  66.802  1.00  0.00     0.000 HD 
HETATM   18  O   UNL     1     -11.240  14.927  66.817  1.00  0.00    -0.335 OA 
BRANCH  16  19
HETATM   19  C   UNL     1     -11.674  14.845  69.211  1.00  0.00    -0.316 C  
BRANCH  19  20
HETATM   20  O   UNL     1     -12.372  14.061  70.188  1.00  0.00    -0.329 OA 
HETATM   21  S   UNL     1     -12.881  14.844  71.520  1.00  0.00    -0.368 S  
HETATM   22  C   UNL     1     -13.649  13.457  72.323  1.00  0.00    -0.605 C  
HETATM   23  O   UNL     1     -13.907  15.790  71.132  1.00  0.00    -0.537 OA 
HETATM   24  O   UNL     1     -11.718  15.238  72.287  1.00  0.00    -0.402 OA 
ENDBRANCH  19  20
ENDBRANCH  16  19
ENDBRANCH  13  16
ENDBRANCH  10  13
ENDBRANCH   7  10
ENDBRANCH   6   7
ENDBRANCH   3   6
TORSDOF 7
ENDMDL
MODEL      168
REMARK 921   NORMALIZED FREE ENERGY PREDICTED BY IDOCK:   -3.97 KCAL/MOL
REMARK 922        TOTAL FREE ENERGY PREDICTED BY IDOCK:   -6.84 KCAL/MOL
REMARK 923 INTER-LIGAND FREE ENERGY PREDICTED BY IDOCK:   -5.94 KCAL/MOL
REMARK 924 INTRA-LIGAND FREE ENERGY PREDICTED BY IDOCK:   -0.90 KCAL/MOL
REMARK 927      BINDING AFFINITY PREDICTED BY RF-SCORE:    0.00 PKD
ROOT
HETATM    1  C   UNL     1     -12.635  14.386  65.948  1.00  0.00    -0.254 C  
HETATM    2  S   UNL     1     -12.387  13.361  64.521  1.00  0.00    -0.335 S  
HETATM    3  O   UNL     1     -10.806  12.983  64.734  1.00  0.00    -0.304 OA 
HETATM    4  O   UNL     1     -13.168  12.153  64.681  1.00  0.00    -0.659 OA 
HETATM    5  O   UNL     1     -12.491  14.190  63.336  1.00  0.00    -0.797 OA 
ENDROOT
BRANCH   3   6
HETATM    6  C   UNL     1     -10.273  12.117  63.727  1.00  0.00    -0.424 C  
BRANCH   6   7
HETATM    7  C   UNL     1     -10.135  10.674  64.222  1.00  0.00    -0.343 C  
HETATM    8  O   UNL     1      -9.844   9.809  63.107  1.00  0.00    -0.477 OA 
HETATM    9  H   UNL     1      -9.758   8.914  63.415  1.00  0.00     0.000 HD 
BRANCH   7  10
HETATM   10  C   UNL     1      -8.972  10.513  65.225  1.00  0.00    -0.189 C  
HETATM   11  H   UNL     1      -8.560  11.165  67.041  1.00  0.00     0.000 HD 
HETATM   12  O   UNL     1      -9.276  11.264  66.424  1.00  0.00    -0.180 OA 
BRANCH  10  13
HETATM   13  C   UNL     1      -8.655   9.075  65.676  1.00  0.00    -0.166 C  
HETATM   14  O   UNL     1      -9.905   8.354  65.673  1.00  0.00    -0.412 OA 
HETATM   15  H   UNL     1      -9.710   7.467  65.951  1.00  0.00     0.000 HD 
BRANCH  13  16
HETATM   16  C   UNL     1      -7.988   8.940  67.056  1.00  0.00    -0.102 C  
HETATM   17  H   UNL     1      -6.209   9.294  67.799  1.00  0.00     0.000 HD 
HETATM   18  O   UNL     1      -6.620   9.376  66.946  1.00  0.00    -0.066 OA 
BRANCH  16  19
HETATM   19  C   UNL     1      -8.037   7.514  67.615  1.00  0.00    -0.118 C  
BRANCH  19  20
HETATM   20  O   UNL     1      -9.190   7.407  68.461  1.00  0.00    -0.143 OA 
HETATM   21  S   UNL     1     -10.043   6.026  68.357  1.00  0.00    -0.181 S  
HETATM   22  C   UNL     1     -11.278   6.425  69.572  1.00  0.00    -0.412 C  
HETATM   23  O   UNL     1      -9.225   4.941  68.858  1.00  0.00    -0.107 OA 
HETATM   24  O   UNL     1     -10.673   5.978  67.054  1.00  0.00    -0.276 OA 
ENDBRANCH  19  20
ENDBRANCH  16  19
ENDBRANCH  13  16
ENDBRANCH  10  13
ENDBRANCH   7  10
ENDBRANCH   6   7
ENDBRANCH   3   6
TORSDOF 7
ENDMDL
MODEL      169
REMARK 921   NORMALIZED FREE ENERGY PREDICTED BY IDOCK:   -3.96 KCAL/MOL
REMARK 922        TOTAL FREE ENERGY PREDICTED BY IDOCK:   -6.83 KCAL/MOL
REMARK 923 INTER-LIGAND FREE ENERGY PREDICTED BY IDOCK:   -6.57 KCAL/MOL
REMARK 924 INTRA-LIGAND FREE ENERGY PREDICTED BY IDOCK:   -0.26 KCAL/MOL
REMARK 927      BINDING AFFINITY PREDICTED BY RF-SCORE:    0.00 PKD
ROOT
HETATM    1  C   UNL     1     -10.313  19.852  66.613  1.00  0.00    -0.485 C  
HETATM    2  S   UNL     1      -9.942  18.161  67.003  1.00  0.00    -0.357 S  
HETATM    3  O   UNL     1     -10.329  17.464  65.571  1.00  0.00    -0.621 OA 
HETATM    4  O   UNL     1      -8.513  18.037  67.196  1.00  0.00    -0.227 OA 
HETATM    5  O   UNL     1     -10.892  17.699  67.995  1.00  0.00    -0.369 OA 
ENDROOT
BRANCH   3   6
HETATM    6  C   UNL     1     -10.120  16.049  65.536  1.00  0.00    -0.304 C  
BRANCH   6   7
HETATM    7  C   UNL     1     -11.376  15.291  65.095  1.00  0.00    -0.321 C  
HETATM    8  O   UNL     1     -11.756  15.718  63.772  1.00  0.00    -1.009 OA 
HETATM    9  H   UNL     1     -12.536  15.247  63.499  1.00  0.00     0.000 HD 
BRANCH   7  10
HETATM   10  C   UNL     1     -11.137  13.767  65.019  1.00  0.00    -0.346 C  
HETATM   11  H   UNL     1     -10.251  12.529  63.764  1.00  0.00     0.000 HD 
HETATM   12  O   UNL     1     -10.398  13.466  63.811  1.00  0.00    -0.160 OA 
BRANCH  10  13
HETATM   13  C   UNL     1     -10.348  13.142  66.185  1.00  0.00    -0.284 C  
HETATM   14  O   UNL     1      -8.986  12.993  65.732  1.00  0.00    -0.311 OA 
HETATM   15  H   UNL     1      -8.500  12.607  66.451  1.00  0.00     0.000 HD 
BRANCH  13  16
HETATM   16  C   UNL     1     -10.872  11.787  66.692  1.00  0.00    -0.276 C  
HETATM   17  H   UNL     1     -12.502  11.150  67.574  1.00  0.00     0.000 HD 
HETATM   18  O   UNL     1     -12.179  11.986  67.262  1.00  0.00    -0.496 OA 
BRANCH  16  19
HETATM   19  C   UNL     1      -9.948  11.131  67.725  1.00  0.00    -0.175 C  
BRANCH  19  20
HETATM   20  O   UNL     1      -8.804  10.613  67.033  1.00  0.00    -0.136 OA 
HETATM   21  S   UNL     1      -9.046   9.298  66.108  1.00  0.00    -0.195 S  
HETATM   22  C   UNL     1      -7.380   9.121  65.516  1.00  0.00    -0.089 C  
HETATM   23  O   UNL     1      -9.902   9.668  64.999  1.00  0.00    -0.268 OA 
HETATM   24  O   UNL     1      -9.350   8.180  66.978  1.00  0.00    -0.140 OA 
ENDBRANCH  19  20
ENDBRANCH  16  19
ENDBRANCH  13  16
ENDBRANCH  10  13
ENDBRANCH   7  10
ENDBRANCH   6   7
ENDBRANCH   3   6
TORSDOF 7
ENDMDL
MODEL      170
REMARK 921   NORMALIZED FREE ENERGY PREDICTED BY IDOCK:   -3.94 KCAL/MOL
REMARK 922        TOTAL FREE ENERGY PREDICTED BY IDOCK:   -6.80 KCAL/MOL
REMARK 923 INTER-LIGAND FREE ENERGY PREDICTED BY IDOCK:   -6.04 KCAL/MOL
REMARK 924 INTRA-LIGAND FREE ENERGY PREDICTED BY IDOCK:   -0.76 KCAL/MOL
REMARK 927      BINDING AFFINITY PREDICTED BY RF-SCORE:    0.00 PKD
ROOT
HETATM    1  C   UNL     1      -7.950   9.399  64.837  1.00  0.00    -0.120 C  
HETATM    2  S   UNL     1      -9.357   9.959  65.763  1.00  0.00    -0.224 S  
HETATM    3  O   UNL     1     -10.185  10.710  64.564  1.00  0.00    -0.336 OA 
HETATM    4  O   UNL     1     -10.119   8.802  66.184  1.00  0.00    -0.269 OA 
HETATM    5  O   UNL     1      -8.917  10.970  66.702  1.00  0.00    -0.159 OA 
ENDROOT
BRANCH   3   6
HETATM    6  C   UNL     1     -11.430  11.278  64.982  1.00  0.00     0.161 C  
BRANCH   6   7
HETATM    7  C   UNL     1     -12.002  12.243  63.940  1.00  0.00    -0.491 C  
HETATM    8  O   UNL     1     -13.442  12.195  63.978  1.00  0.00    -0.603 OA 
HETATM    9  H   UNL     1     -13.797  12.794  63.331  1.00  0.00     0.000 HD 
BRANCH   7  10
HETATM   10  C   UNL     1     -11.599  13.707  64.221  1.00  0.00    -0.382 C  
HETATM   11  H   UNL     1     -12.355  15.488  63.836  1.00  0.00     0.000 HD 
HETATM   12  O   UNL     1     -12.603  14.587  63.662  1.00  0.00    -0.798 OA 
BRANCH  10  13
HETATM   13  C   UNL     1     -11.447  14.099  65.704  1.00  0.00    -0.325 C  
HETATM   14  O   UNL     1     -12.781  14.268  66.228  1.00  0.00    -0.510 OA 
HETATM   15  H   UNL     1     -12.688  14.509  67.141  1.00  0.00     0.000 HD 
BRANCH  13  16
HETATM   16  C   UNL     1     -10.623  15.369  65.976  1.00  0.00    -0.322 C  
HETATM   17  H   UNL     1      -8.740  15.774  66.334  1.00  0.00     0.000 HD 
HETATM   18  O   UNL     1      -9.248  14.989  66.166  1.00  0.00    -0.292 OA 
BRANCH  16  19
HETATM   19  C   UNL     1     -11.118  16.161  67.192  1.00  0.00    -0.053 C  
BRANCH  19  20
HETATM   20  O   UNL     1     -11.562  15.224  68.183  1.00  0.00    -0.337 OA 
HETATM   21  S   UNL     1     -10.838  15.306  69.637  1.00  0.00    -0.305 S  
HETATM   22  C   UNL     1     -11.746  13.996  70.422  1.00  0.00    -0.222 C  
HETATM   23  O   UNL     1     -11.197  16.564  70.259  1.00  0.00    -0.333 OA 
HETATM   24  O   UNL     1      -9.460  14.888  69.483  1.00  0.00    -0.118 OA 
ENDBRANCH  19  20
ENDBRANCH  16  19
ENDBRANCH  13  16
ENDBRANCH  10  13
ENDBRANCH   7  10
ENDBRANCH   6   7
ENDBRANCH   3   6
TORSDOF 7
ENDMDL
MODEL      171
REMARK 921   NORMALIZED FREE ENERGY PREDICTED BY IDOCK:   -3.94 KCAL/MOL
REMARK 922        TOTAL FREE ENERGY PREDICTED BY IDOCK:   -6.80 KCAL/MOL
REMARK 923 INTER-LIGAND FREE ENERGY PREDICTED BY IDOCK:   -5.73 KCAL/MOL
REMARK 924 INTRA-LIGAND FREE ENERGY PREDICTED BY IDOCK:   -1.07 KCAL/MOL
REMARK 927      BINDING AFFINITY PREDICTED BY RF-SCORE:    0.00 PKD
ROOT
HETATM    1  C   UNL     1      -8.980   4.278  64.410  1.00  0.00    -0.148 C  
HETATM    2  S   UNL     1      -9.189   4.996  66.020  1.00  0.00    -0.158 S  
HETATM    3  O   UNL     1      -8.859   6.560  65.660  1.00  0.00    -0.133 OA 
HETATM    4  O   UNL     1     -10.585   4.899  66.387  1.00  0.00    -0.297 OA 
HETATM    5  O   UNL     1      -8.134   4.504  66.882  1.00  0.00    -0.101 OA 
ENDROOT
BRANCH   3   6
HETATM    6  C   UNL     1      -8.961   7.449  66.777  1.00  0.00    -0.141 C  
BRANCH   6   7
HETATM    7  C   UNL     1     -10.325   8.143  66.838  1.00  0.00    -0.331 C  
HETATM    8  O   UNL     1     -11.095   7.596  67.926  1.00  0.00    -0.475 OA 
HETATM    9  H   UNL     1     -11.941   8.027  67.964  1.00  0.00     0.000 HD 
BRANCH   7  10
HETATM   10  C   UNL     1     -10.194   9.659  67.105  1.00  0.00    -0.243 C  
HETATM   11  H   UNL     1     -10.178  11.298  66.008  1.00  0.00     0.000 HD 
HETATM   12  O   UNL     1     -10.258  10.366  65.844  1.00  0.00    -0.254 OA 
BRANCH  10  13
HETATM   13  C   UNL     1     -11.267  10.285  68.015  1.00  0.00    -0.235 C  
HETATM   14  O   UNL     1     -11.870  11.362  67.267  1.00  0.00    -0.594 OA 
HETATM   15  H   UNL     1     -12.531  11.748  67.828  1.00  0.00     0.000 HD 
BRANCH  13  16
HETATM   16  C   UNL     1     -10.764  10.819  69.368  1.00  0.00    -0.233 C  
HETATM   17  H   UNL     1      -9.207  10.499  70.515  1.00  0.00     0.000 HD 
HETATM   18  O   UNL     1      -9.518  10.169  69.680  1.00  0.00    -0.222 OA 
BRANCH  16  19
HETATM   19  C   UNL     1     -11.763  10.605  70.511  1.00  0.00    -0.356 C  
BRANCH  19  20
HETATM   20  O   UNL     1     -11.171   9.706  71.458  1.00  0.00    -0.372 OA 
HETATM   21  S   UNL     1     -12.054   8.407  71.879  1.00  0.00    -0.368 S  
HETATM   22  C   UNL     1     -10.881   7.683  73.001  1.00  0.00    -0.400 C  
HETATM   23  O   UNL     1     -12.189   7.548  70.721  1.00  0.00    -0.236 OA 
HETATM   24  O   UNL     1     -13.200   8.864  72.638  1.00  0.00    -0.427 OA 
ENDBRANCH  19  20
ENDBRANCH  16  19
ENDBRANCH  13  16
ENDBRANCH  10  13
ENDBRANCH   7  10
ENDBRANCH   6   7
ENDBRANCH   3   6
TORSDOF 7
ENDMDL
MODEL      172
REMARK 921   NORMALIZED FREE ENERGY PREDICTED BY IDOCK:   -3.94 KCAL/MOL
REMARK 922        TOTAL FREE ENERGY PREDICTED BY IDOCK:   -6.80 KCAL/MOL
REMARK 923 INTER-LIGAND FREE ENERGY PREDICTED BY IDOCK:   -6.99 KCAL/MOL
REMARK 924 INTRA-LIGAND FREE ENERGY PREDICTED BY IDOCK:    0.19 KCAL/MOL
REMARK 927      BINDING AFFINITY PREDICTED BY RF-SCORE:    0.00 PKD
ROOT
HETATM    1  C   UNL     1     -12.261  16.317  73.119  1.00  0.00    -0.523 C  
HETATM    2  S   UNL     1     -13.034  14.898  72.384  1.00  0.00    -0.386 S  
HETATM    3  O   UNL     1     -11.883  14.506  71.285  1.00  0.00    -0.337 OA 
HETATM    4  O   UNL     1     -13.094  13.844  73.374  1.00  0.00    -0.443 OA 
HETATM    5  O   UNL     1     -14.210  15.339  71.661  1.00  0.00    -0.492 OA 
ENDROOT
BRANCH   3   6
HETATM    6  C   UNL     1     -12.193  13.347  70.505  1.00  0.00    -0.352 C  
BRANCH   6   7
HETATM    7  C   UNL     1     -12.191  13.646  69.002  1.00  0.00    -0.208 C  
HETATM    8  O   UNL     1     -12.265  15.070  68.795  1.00  0.00    -0.569 OA 
HETATM    9  H   UNL     1     -12.263  15.256  67.863  1.00  0.00     0.000 HD 
BRANCH   7  10
HETATM   10  C   UNL     1     -10.894  13.164  68.317  1.00  0.00    -0.253 C  
HETATM   11  H   UNL     1      -8.958  13.434  68.588  1.00  0.00     0.000 HD 
HETATM   12  O   UNL     1      -9.757  13.731  69.010  1.00  0.00    -0.034 OA 
BRANCH  10  13
HETATM   13  C   UNL     1     -10.670  11.640  68.277  1.00  0.00    -0.213 C  
HETATM   14  O   UNL     1      -9.987  11.289  69.499  1.00  0.00    -0.422 OA 
HETATM   15  H   UNL     1      -9.849  10.350  69.475  1.00  0.00     0.000 HD 
BRANCH  13  16
HETATM   16  C   UNL     1      -9.869  11.116  67.073  1.00  0.00    -0.185 C  
HETATM   17  H   UNL     1      -8.076  11.410  66.340  1.00  0.00     0.000 HD 
HETATM   18  O   UNL     1      -8.570  11.734  67.083  1.00  0.00    -0.155 OA 
BRANCH  16  19
HETATM   19  C   UNL     1     -10.560  11.377  65.729  1.00  0.00    -0.260 C  
BRANCH  19  20
HETATM   20  O   UNL     1     -10.795  12.787  65.616  1.00  0.00    -0.267 OA 
HETATM   21  S   UNL     1     -11.976  13.248  64.598  1.00  0.00    -0.419 S  
HETATM   22  C   UNL     1     -11.837  15.000  64.861  1.00  0.00    -0.298 C  
HETATM   23  O   UNL     1     -13.245  12.793  65.128  1.00  0.00    -0.686 OA 
HETATM   24  O   UNL     1     -11.553  12.947  63.246  1.00  0.00    -0.488 OA 
ENDBRANCH  19  20
ENDBRANCH  16  19
ENDBRANCH  13  16
ENDBRANCH  10  13
ENDBRANCH   7  10
ENDBRANCH   6   7
ENDBRANCH   3   6
TORSDOF 7
ENDMDL
MODEL      173
REMARK 921   NORMALIZED FREE ENERGY PREDICTED BY IDOCK:   -3.94 KCAL/MOL
REMARK 922        TOTAL FREE ENERGY PREDICTED BY IDOCK:   -6.80 KCAL/MOL
REMARK 923 INTER-LIGAND FREE ENERGY PREDICTED BY IDOCK:   -5.69 KCAL/MOL
REMARK 924 INTRA-LIGAND FREE ENERGY PREDICTED BY IDOCK:   -1.10 KCAL/MOL
REMARK 927      BINDING AFFINITY PREDICTED BY RF-SCORE:    0.00 PKD
ROOT
HETATM    1  C   UNL     1      -8.851  19.963  67.758  1.00  0.00    -0.321 C  
HETATM    2  S   UNL     1      -9.427  18.420  67.096  1.00  0.00    -0.289 S  
HETATM    3  O   UNL     1     -10.412  17.954  68.320  1.00  0.00    -0.374 OA 
HETATM    4  O   UNL     1     -10.246  18.696  65.935  1.00  0.00    -0.533 OA 
HETATM    5  O   UNL     1      -8.311  17.497  67.045  1.00  0.00    -0.206 OA 
ENDROOT
BRANCH   3   6
HETATM    6  C   UNL     1     -11.078  16.708  68.091  1.00  0.00    -0.285 C  
BRANCH   6   7
HETATM    7  C   UNL     1     -10.767  15.679  69.182  1.00  0.00    -0.243 C  
HETATM    8  O   UNL     1     -11.946  15.450  69.978  1.00  0.00    -0.311 OA 
HETATM    9  H   UNL     1     -11.753  14.812  70.655  1.00  0.00     0.000 HD 
BRANCH   7  10
HETATM   10  C   UNL     1     -10.357  14.313  68.591  1.00  0.00    -0.246 C  
HETATM   11  H   UNL     1      -8.945  12.980  68.939  1.00  0.00     0.000 HD 
HETATM   12  O   UNL     1      -9.197  13.821  69.302  1.00  0.00     0.306 OA 
BRANCH  10  13
HETATM   13  C   UNL     1     -11.418  13.197  68.656  1.00  0.00    -0.305 C  
HETATM   14  O   UNL     1     -11.456  12.739  70.024  1.00  0.00    -0.508 OA 
HETATM   15  H   UNL     1     -12.110  12.052  70.064  1.00  0.00     0.000 HD 
BRANCH  13  16
HETATM   16  C   UNL     1     -11.183  11.999  67.720  1.00  0.00    -0.271 C  
HETATM   17  H   UNL     1     -11.887  11.407  65.989  1.00  0.00     0.000 HD 
HETATM   18  O   UNL     1     -12.033  12.146  66.567  1.00  0.00    -0.618 OA 
BRANCH  16  19
HETATM   19  C   UNL     1     -11.446  10.647  68.392  1.00  0.00    -0.259 C  
BRANCH  19  20
HETATM   20  O   UNL     1     -10.261  10.265  69.103  1.00  0.00    -0.193 OA 
HETATM   21  S   UNL     1     -10.463   9.266  70.371  1.00  0.00    -0.268 S  
HETATM   22  C   UNL     1      -8.752   9.130  70.833  1.00  0.00    -0.221 C  
HETATM   23  O   UNL     1     -10.920   7.983  69.877  1.00  0.00    -0.242 OA 
HETATM   24  O   UNL     1     -11.167   9.988  71.410  1.00  0.00    -0.306 OA 
ENDBRANCH  19  20
ENDBRANCH  16  19
ENDBRANCH  13  16
ENDBRANCH  10  13
ENDBRANCH   7  10
ENDBRANCH   6   7
ENDBRANCH   3   6
TORSDOF 7
ENDMDL
MODEL      174
REMARK 921   NORMALIZED FREE ENERGY PREDICTED BY IDOCK:   -3.93 KCAL/MOL
REMARK 922        TOTAL FREE ENERGY PREDICTED BY IDOCK:   -6.78 KCAL/MOL
REMARK 923 INTER-LIGAND FREE ENERGY PREDICTED BY IDOCK:   -6.02 KCAL/MOL
REMARK 924 INTRA-LIGAND FREE ENERGY PREDICTED BY IDOCK:   -0.76 KCAL/MOL
REMARK 927      BINDING AFFINITY PREDICTED BY RF-SCORE:    0.00 PKD
ROOT
HETATM    1  C   UNL     1     -13.499   9.634  70.749  1.00  0.00     0.018 C  
HETATM    2  S   UNL     1     -12.011  10.599  70.721  1.00  0.00    -0.381 S  
HETATM    3  O   UNL     1     -11.659  10.504  69.123  1.00  0.00    -0.261 OA 
HETATM    4  O   UNL     1     -12.348  11.972  71.031  1.00  0.00    -0.346 OA 
HETATM    5  O   UNL     1     -10.983   9.880  71.447  1.00  0.00    -0.287 OA 
ENDROOT
BRANCH   3   6
HETATM    6  C   UNL     1     -10.480  11.221  68.742  1.00  0.00    -0.208 C  
BRANCH   6   7
HETATM    7  C   UNL     1     -10.803  12.620  68.210  1.00  0.00    -0.239 C  
HETATM    8  O   UNL     1     -10.591  13.592  69.252  1.00  0.00    -0.422 OA 
HETATM    9  H   UNL     1     -10.791  14.460  68.922  1.00  0.00     0.000 HD 
BRANCH   7  10
HETATM   10  C   UNL     1      -9.885  13.021  67.035  1.00  0.00    -0.238 C  
HETATM   11  H   UNL     1      -9.517  12.336  65.222  1.00  0.00     0.000 HD 
HETATM   12  O   UNL     1     -10.082  12.089  65.945  1.00  0.00    -0.224 OA 
BRANCH  10  13
HETATM   13  C   UNL     1     -10.100  14.431  66.453  1.00  0.00    -0.286 C  
HETATM   14  O   UNL     1      -9.871  14.333  65.031  1.00  0.00    -0.555 OA 
HETATM   15  H   UNL     1     -10.003  15.202  64.673  1.00  0.00     0.000 HD 
BRANCH  13  16
HETATM   16  C   UNL     1      -9.207  15.537  67.041  1.00  0.00    -0.225 C  
HETATM   17  H   UNL     1      -9.392  16.899  68.439  1.00  0.00     0.000 HD 
HETATM   18  O   UNL     1      -9.943  16.217  68.075  1.00  0.00    -0.232 OA 
BRANCH  16  19
HETATM   19  C   UNL     1      -8.728  16.548  65.993  1.00  0.00    -0.220 C  
BRANCH  19  20
HETATM   20  O   UNL     1      -9.442  17.774  66.198  1.00  0.00    -0.457 OA 
HETATM   21  S   UNL     1      -8.554  19.075  66.604  1.00  0.00    -0.322 S  
HETATM   22  C   UNL     1      -9.889  20.243  66.710  1.00  0.00    -0.447 C  
HETATM   23  O   UNL     1      -7.711  19.425  65.479  1.00  0.00    -0.423 OA 
HETATM   24  O   UNL     1      -8.018  18.862  67.933  1.00  0.00    -0.260 OA 
ENDBRANCH  19  20
ENDBRANCH  16  19
ENDBRANCH  13  16
ENDBRANCH  10  13
ENDBRANCH   7  10
ENDBRANCH   6   7
ENDBRANCH   3   6
TORSDOF 7
ENDMDL
MODEL      175
REMARK 921   NORMALIZED FREE ENERGY PREDICTED BY IDOCK:   -3.93 KCAL/MOL
REMARK 922        TOTAL FREE ENERGY PREDICTED BY IDOCK:   -6.78 KCAL/MOL
REMARK 923 INTER-LIGAND FREE ENERGY PREDICTED BY IDOCK:   -5.64 KCAL/MOL
REMARK 924 INTRA-LIGAND FREE ENERGY PREDICTED BY IDOCK:   -1.14 KCAL/MOL
REMARK 927      BINDING AFFINITY PREDICTED BY RF-SCORE:    0.00 PKD
ROOT
HETATM    1  C   UNL     1     -12.249  12.124  63.535  1.00  0.00    -0.567 C  
HETATM    2  S   UNL     1     -11.905  13.238  64.873  1.00  0.00    -0.385 S  
HETATM    3  O   UNL     1     -12.179  12.230  66.137  1.00  0.00    -0.647 OA 
HETATM    4  O   UNL     1     -10.495  13.563  64.849  1.00  0.00    -0.360 OA 
HETATM    5  O   UNL     1     -12.929  14.264  64.891  1.00  0.00    -0.682 OA 
ENDROOT
BRANCH   3   6
HETATM    6  C   UNL     1     -11.964  12.831  67.418  1.00  0.00    -0.272 C  
BRANCH   6   7
HETATM    7  C   UNL     1     -10.555  12.558  67.953  1.00  0.00    -0.218 C  
HETATM    8  O   UNL     1     -10.133  13.660  68.781  1.00  0.00    -0.340 OA 
HETATM    9  H   UNL     1      -9.258  13.490  69.113  1.00  0.00     0.000 HD 
BRANCH   7  10
HETATM   10  C   UNL     1     -10.504  11.293  68.837  1.00  0.00    -0.206 C  
HETATM   11  H   UNL     1     -11.813  10.202  69.832  1.00  0.00     0.000 HD 
HETATM   12  O   UNL     1     -11.844  10.980  69.288  1.00  0.00    -0.298 OA 
BRANCH  10  13
HETATM   13  C   UNL     1      -9.956  10.017  68.170  1.00  0.00    -0.153 C  
HETATM   14  O   UNL     1     -11.037   9.453  67.399  1.00  0.00    -0.404 OA 
HETATM   15  H   UNL     1     -10.699   8.667  66.988  1.00  0.00     0.000 HD 
BRANCH  13  16
HETATM   16  C   UNL     1      -9.398   8.951  69.130  1.00  0.00    -0.148 C  
HETATM   17  H   UNL     1      -8.728   8.929  70.971  1.00  0.00     0.000 HD 
HETATM   18  O   UNL     1      -9.071   9.587  70.379  1.00  0.00    -0.238 OA 
BRANCH  16  19
HETATM   19  C   UNL     1      -8.167   8.225  68.577  1.00  0.00    -0.131 C  
BRANCH  19  20
HETATM   20  O   UNL     1      -8.047   8.549  67.185  1.00  0.00    -0.103 OA 
HETATM   21  S   UNL     1      -8.358   7.352  66.129  1.00  0.00    -0.146 S  
HETATM   22  C   UNL     1      -8.083   8.280  64.639  1.00  0.00    -0.150 C  
HETATM   23  O   UNL     1      -9.763   7.013  66.219  1.00  0.00    -0.112 OA 
HETATM   24  O   UNL     1      -7.315   6.355  66.254  1.00  0.00    -0.077 OA 
ENDBRANCH  19  20
ENDBRANCH  16  19
ENDBRANCH  13  16
ENDBRANCH  10  13
ENDBRANCH   7  10
ENDBRANCH   6   7
ENDBRANCH   3   6
TORSDOF 7
ENDMDL
MODEL      176
REMARK 921   NORMALIZED FREE ENERGY PREDICTED BY IDOCK:   -3.92 KCAL/MOL
REMARK 922        TOTAL FREE ENERGY PREDICTED BY IDOCK:   -6.77 KCAL/MOL
REMARK 923 INTER-LIGAND FREE ENERGY PREDICTED BY IDOCK:   -6.06 KCAL/MOL
REMARK 924 INTRA-LIGAND FREE ENERGY PREDICTED BY IDOCK:   -0.71 KCAL/MOL
REMARK 927      BINDING AFFINITY PREDICTED BY RF-SCORE:    0.00 PKD
ROOT
HETATM    1  C   UNL     1      -7.780   7.699  67.361  1.00  0.00    -0.117 C  
HETATM    2  S   UNL     1      -9.279   8.650  67.369  1.00  0.00    -0.138 S  
HETATM    3  O   UNL     1      -8.663  10.117  67.766  1.00  0.00    -0.122 OA 
HETATM    4  O   UNL     1      -9.784   8.721  66.015  1.00  0.00    -0.254 OA 
HETATM    5  O   UNL     1     -10.103   8.199  68.472  1.00  0.00    -0.189 OA 
ENDROOT
BRANCH   3   6
HETATM    6  C   UNL     1      -9.642  11.158  67.840  1.00  0.00    -0.175 C  
BRANCH   6   7
HETATM    7  C   UNL     1      -9.489  12.175  66.704  1.00  0.00    -0.223 C  
HETATM    8  O   UNL     1      -8.834  11.548  65.583  1.00  0.00    -0.360 OA 
HETATM    9  H   UNL     1      -8.740  12.179  64.879  1.00  0.00     0.000 HD 
BRANCH   7  10
HETATM   10  C   UNL     1     -10.854  12.684  66.194  1.00  0.00    -0.273 C  
HETATM   11  H   UNL     1     -12.746  12.198  66.470  1.00  0.00     0.000 HD 
HETATM   12  O   UNL     1     -11.906  11.885  66.784  1.00  0.00    -0.598 OA 
BRANCH  10  13
HETATM   13  C   UNL     1     -11.192  14.155  66.505  1.00  0.00    -0.330 C  
HETATM   14  O   UNL     1     -12.413  14.459  65.798  1.00  0.00    -0.396 OA 
HETATM   15  H   UNL     1     -12.621  15.365  65.990  1.00  0.00     0.000 HD 
BRANCH  13  16
HETATM   16  C   UNL     1     -10.110  15.181  66.127  1.00  0.00    -0.295 C  
HETATM   17  H   UNL     1      -8.702  16.156  67.080  1.00  0.00     0.000 HD 
HETATM   18  O   UNL     1      -9.370  15.522  67.314  1.00  0.00    -0.207 OA 
BRANCH  16  19
HETATM   19  C   UNL     1     -10.680  16.451  65.486  1.00  0.00    -0.287 C  
BRANCH  19  20
HETATM   20  O   UNL     1      -9.744  17.516  65.698  1.00  0.00    -0.532 OA 
HETATM   21  S   UNL     1     -10.326  18.872  66.381  1.00  0.00    -0.457 S  
HETATM   22  C   UNL     1      -8.803  19.788  66.412  1.00  0.00    -0.377 C  
HETATM   23  O   UNL     1     -10.720  18.569  67.741  1.00  0.00    -0.410 OA 
HETATM   24  O   UNL     1     -11.228  19.504  65.440  1.00  0.00    -0.326 OA 
ENDBRANCH  19  20
ENDBRANCH  16  19
ENDBRANCH  13  16
ENDBRANCH  10  13
ENDBRANCH   7  10
ENDBRANCH   6   7
ENDBRANCH   3   6
TORSDOF 7
ENDMDL
MODEL      177
REMARK 921   NORMALIZED FREE ENERGY PREDICTED BY IDOCK:   -3.90 KCAL/MOL
REMARK 922        TOTAL FREE ENERGY PREDICTED BY IDOCK:   -6.75 KCAL/MOL
REMARK 923 INTER-LIGAND FREE ENERGY PREDICTED BY IDOCK:   -6.08 KCAL/MOL
REMARK 924 INTRA-LIGAND FREE ENERGY PREDICTED BY IDOCK:   -0.67 KCAL/MOL
REMARK 927      BINDING AFFINITY PREDICTED BY RF-SCORE:    0.00 PKD
ROOT
HETATM    1  C   UNL     1     -13.444   7.123  71.397  1.00  0.00    -0.291 C  
HETATM    2  S   UNL     1     -12.256   8.205  72.151  1.00  0.00    -0.349 S  
HETATM    3  O   UNL     1     -11.273   8.462  70.865  1.00  0.00    -0.253 OA 
HETATM    4  O   UNL     1     -12.913   9.452  72.477  1.00  0.00    -0.380 OA 
HETATM    5  O   UNL     1     -11.510   7.451  73.138  1.00  0.00    -0.244 OA 
ENDROOT
BRANCH   3   6
HETATM    6  C   UNL     1     -10.178   9.343  71.134  1.00  0.00    -0.291 C  
BRANCH   6   7
HETATM    7  C   UNL     1      -8.957   9.028  70.265  1.00  0.00    -0.198 C  
HETATM    8  O   UNL     1      -9.086   7.701  69.717  1.00  0.00    -0.147 OA 
HETATM    9  H   UNL     1      -8.329   7.506  69.177  1.00  0.00     0.000 HD 
BRANCH   7  10
HETATM   10  C   UNL     1      -8.833   9.994  69.066  1.00  0.00    -0.159 C  
HETATM   11  H   UNL     1      -8.140   9.888  67.222  1.00  0.00     0.000 HD 
HETATM   12  O   UNL     1      -8.216   9.294  67.960  1.00  0.00    -0.114 OA 
BRANCH  10  13
HETATM   13  C   UNL     1     -10.150  10.588  68.531  1.00  0.00    -0.173 C  
HETATM   14  O   UNL     1     -10.956   9.477  68.086  1.00  0.00    -0.438 OA 
HETATM   15  H   UNL     1     -11.768   9.843  67.755  1.00  0.00     0.000 HD 
BRANCH  13  16
HETATM   16  C   UNL     1     -10.005  11.608  67.389  1.00  0.00    -0.183 C  
HETATM   17  H   UNL     1      -9.950  13.562  67.247  1.00  0.00     0.000 HD 
HETATM   18  O   UNL     1     -10.041  12.933  67.952  1.00  0.00    -0.219 OA 
BRANCH  16  19
HETATM   19  C   UNL     1     -11.089  11.470  66.314  1.00  0.00    -0.263 C  
BRANCH  19  20
HETATM   20  O   UNL     1     -11.406  12.782  65.831  1.00  0.00    -0.299 OA 
HETATM   21  S   UNL     1     -12.043  12.873  64.337  1.00  0.00    -0.432 S  
HETATM   22  C   UNL     1     -12.238  14.638  64.275  1.00  0.00    -0.408 C  
HETATM   23  O   UNL     1     -13.354  12.256  64.358  1.00  0.00    -0.786 OA 
HETATM   24  O   UNL     1     -11.024  12.485  63.384  1.00  0.00    -0.452 OA 
ENDBRANCH  19  20
ENDBRANCH  16  19
ENDBRANCH  13  16
ENDBRANCH  10  13
ENDBRANCH   7  10
ENDBRANCH   6   7
ENDBRANCH   3   6
TORSDOF 7
ENDMDL
MODEL      178
REMARK 921   NORMALIZED FREE ENERGY PREDICTED BY IDOCK:   -3.90 KCAL/MOL
REMARK 922        TOTAL FREE ENERGY PREDICTED BY IDOCK:   -6.74 KCAL/MOL
REMARK 923 INTER-LIGAND FREE ENERGY PREDICTED BY IDOCK:   -5.49 KCAL/MOL
REMARK 924 INTRA-LIGAND FREE ENERGY PREDICTED BY IDOCK:   -1.26 KCAL/MOL
REMARK 927      BINDING AFFINITY PREDICTED BY RF-SCORE:    0.00 PKD
ROOT
HETATM    1  C   UNL     1      -6.636  16.541  67.745  1.00  0.00    -0.141 C  
HETATM    2  S   UNL     1      -8.231  17.078  67.182  1.00  0.00    -0.201 S  
HETATM    3  O   UNL     1      -9.121  15.770  67.611  1.00  0.00    -0.190 OA 
HETATM    4  O   UNL     1      -8.651  18.199  67.995  1.00  0.00    -0.253 OA 
HETATM    5  O   UNL     1      -8.208  17.147  65.735  1.00  0.00    -0.515 OA 
ENDROOT
BRANCH   3   6
HETATM    6  C   UNL     1     -10.514  15.887  67.305  1.00  0.00    -0.310 C  
BRANCH   6   7
HETATM    7  C   UNL     1     -11.314  14.673  67.787  1.00  0.00    -0.322 C  
HETATM    8  O   UNL     1     -12.516  14.547  67.002  1.00  0.00    -0.547 OA 
HETATM    9  H   UNL     1     -13.012  13.793  67.301  1.00  0.00     0.000 HD 
BRANCH   7  10
HETATM   10  C   UNL     1     -10.529  13.355  67.612  1.00  0.00    -0.241 C  
HETATM   11  H   UNL     1      -9.873  11.924  68.801  1.00  0.00     0.000 HD 
HETATM   12  O   UNL     1     -10.356  12.735  68.909  1.00  0.00    -0.159 OA 
BRANCH  10  13
HETATM   13  C   UNL     1     -11.174  12.294  66.700  1.00  0.00    -0.316 C  
HETATM   14  O   UNL     1     -12.076  11.528  67.526  1.00  0.00    -0.614 OA 
HETATM   15  H   UNL     1     -12.473  10.874  66.964  1.00  0.00     0.000 HD 
BRANCH  13  16
HETATM   16  C   UNL     1     -10.195  11.343  65.989  1.00  0.00    -0.245 C  
HETATM   17  H   UNL     1      -9.924  10.720  64.151  1.00  0.00     0.000 HD 
HETATM   18  O   UNL     1     -10.528  11.307  64.589  1.00  0.00    -0.289 OA 
BRANCH  16  19
HETATM   19  C   UNL     1     -10.208   9.922  66.565  1.00  0.00    -0.222 C  
BRANCH  19  20
HETATM   20  O   UNL     1      -9.427   9.922  67.768  1.00  0.00    -0.140 OA 
HETATM   21  S   UNL     1      -9.992   9.026  69.002  1.00  0.00    -0.191 S  
HETATM   22  C   UNL     1      -8.686   9.373  70.156  1.00  0.00    -0.221 C  
HETATM   23  O   UNL     1      -9.926   7.630  68.624  1.00  0.00    -0.164 OA 
HETATM   24  O   UNL     1     -11.213   9.637  69.486  1.00  0.00    -0.205 OA 
ENDBRANCH  19  20
ENDBRANCH  16  19
ENDBRANCH  13  16
ENDBRANCH  10  13
ENDBRANCH   7  10
ENDBRANCH   6   7
ENDBRANCH   3   6
TORSDOF 7
ENDMDL
MODEL      179
REMARK 921   NORMALIZED FREE ENERGY PREDICTED BY IDOCK:   -3.90 KCAL/MOL
REMARK 922        TOTAL FREE ENERGY PREDICTED BY IDOCK:   -6.74 KCAL/MOL
REMARK 923 INTER-LIGAND FREE ENERGY PREDICTED BY IDOCK:   -6.06 KCAL/MOL
REMARK 924 INTRA-LIGAND FREE ENERGY PREDICTED BY IDOCK:   -0.68 KCAL/MOL
REMARK 927      BINDING AFFINITY PREDICTED BY RF-SCORE:    0.00 PKD
ROOT
HETATM    1  C   UNL     1     -10.858  10.155  70.157  1.00  0.00    -0.311 C  
HETATM    2  S   UNL     1     -12.387  10.843  70.740  1.00  0.00    -0.414 S  
HETATM    3  O   UNL     1     -11.931  12.409  70.903  1.00  0.00    -0.183 OA 
HETATM    4  O   UNL     1     -13.362  10.763  69.674  1.00  0.00     0.174 OA 
HETATM    5  O   UNL     1     -12.653  10.316  72.064  1.00  0.00    -0.371 OA 
ENDROOT
BRANCH   3   6
HETATM    6  C   UNL     1     -12.976  13.276  71.355  1.00  0.00    -0.311 C  
BRANCH   6   7
HETATM    7  C   UNL     1     -13.116  14.519  70.471  1.00  0.00    -0.174 C  
HETATM    8  O   UNL     1     -14.238  15.305  70.920  1.00  0.00    -0.755 OA 
HETATM    9  H   UNL     1     -14.325  16.076  70.372  1.00  0.00     0.000 HD 
BRANCH   7  10
HETATM   10  C   UNL     1     -11.874  15.432  70.553  1.00  0.00    -0.339 C  
HETATM   11  H   UNL     1     -10.459  15.793  71.880  1.00  0.00     0.000 HD 
HETATM   12  O   UNL     1     -11.224  15.231  71.830  1.00  0.00    -0.416 OA 
BRANCH  10  13
HETATM   13  C   UNL     1     -10.797  15.215  69.473  1.00  0.00    -0.263 C  
HETATM   14  O   UNL     1      -9.518  15.324  70.133  1.00  0.00    -0.421 OA 
HETATM   15  H   UNL     1      -8.854  15.190  69.467  1.00  0.00     0.000 HD 
BRANCH  13  16
HETATM   16  C   UNL     1     -10.844  16.186  68.280  1.00  0.00    -0.326 C  
HETATM   17  H   UNL     1     -10.124  16.210  66.457  1.00  0.00     0.000 HD 
HETATM   18  O   UNL     1     -10.095  15.611  67.193  1.00  0.00    -0.247 OA 
BRANCH  16  19
HETATM   19  C   UNL     1     -10.294  17.578  68.612  1.00  0.00    -0.369 C  
BRANCH  19  20
HETATM   20  O   UNL     1      -9.249  17.878  67.678  1.00  0.00    -0.254 OA 
HETATM   21  S   UNL     1      -7.792  18.237  68.307  1.00  0.00    -0.305 S  
HETATM   22  C   UNL     1      -6.934  18.492  66.772  1.00  0.00    -0.194 C  
HETATM   23  O   UNL     1      -7.264  17.050  68.948  1.00  0.00    -0.219 OA 
HETATM   24  O   UNL     1      -7.895  19.506  68.998  1.00  0.00    -0.363 OA 
ENDBRANCH  19  20
ENDBRANCH  16  19
ENDBRANCH  13  16
ENDBRANCH  10  13
ENDBRANCH   7  10
ENDBRANCH   6   7
ENDBRANCH   3   6
TORSDOF 7
ENDMDL
MODEL      180
REMARK 921   NORMALIZED FREE ENERGY PREDICTED BY IDOCK:   -3.90 KCAL/MOL
REMARK 922        TOTAL FREE ENERGY PREDICTED BY IDOCK:   -6.74 KCAL/MOL
REMARK 923 INTER-LIGAND FREE ENERGY PREDICTED BY IDOCK:   -5.67 KCAL/MOL
REMARK 924 INTRA-LIGAND FREE ENERGY PREDICTED BY IDOCK:   -1.06 KCAL/MOL
REMARK 927      BINDING AFFINITY PREDICTED BY RF-SCORE:    0.00 PKD
ROOT
HETATM    1  C   UNL     1     -12.450  12.674  64.842  1.00  0.00    -0.494 C  
HETATM    2  S   UNL     1     -10.991  12.335  65.795  1.00  0.00    -0.313 S  
HETATM    3  O   UNL     1     -11.583  11.170  66.785  1.00  0.00    -0.381 OA 
HETATM    4  O   UNL     1     -10.004  11.732  64.924  1.00  0.00    -0.245 OA 
HETATM    5  O   UNL     1     -10.691  13.498  66.604  1.00  0.00    -0.280 OA 
ENDROOT
BRANCH   3   6
HETATM    6  C   UNL     1     -10.621  10.642  67.704  1.00  0.00    -0.246 C  
BRANCH   6   7
HETATM    7  C   UNL     1     -11.172  10.557  69.130  1.00  0.00    -0.256 C  
HETATM    8  O   UNL     1     -12.613  10.576  69.091  1.00  0.00    -0.740 OA 
HETATM    9  H   UNL     1     -12.955  10.523  69.976  1.00  0.00     0.000 HD 
BRANCH   7  10
HETATM   10  C   UNL     1     -10.764   9.244  69.833  1.00  0.00    -0.234 C  
HETATM   11  H   UNL     1      -9.205   8.609  70.862  1.00  0.00     0.000 HD 
HETATM   12  O   UNL     1      -9.457   9.417  70.429  1.00  0.00    -0.231 OA 
BRANCH  10  13
HETATM   13  C   UNL     1     -11.698   8.754  70.955  1.00  0.00    -0.282 C  
HETATM   14  O   UNL     1     -11.056   9.084  72.205  1.00  0.00    -0.350 OA 
HETATM   15  H   UNL     1     -11.632   8.781  72.896  1.00  0.00     0.000 HD 
BRANCH  13  16
HETATM   16  C   UNL     1     -12.036   7.252  70.933  1.00  0.00    -0.305 C  
HETATM   17  H   UNL     1     -13.665   6.175  71.093  1.00  0.00     0.000 HD 
HETATM   18  O   UNL     1     -13.457   7.101  71.107  1.00  0.00    -0.316 OA 
BRANCH  16  19
HETATM   19  C   UNL     1     -11.291   6.450  72.005  1.00  0.00    -0.294 C  
BRANCH  19  20
HETATM   20  O   UNL     1      -9.918   6.339  71.605  1.00  0.00    -0.178 OA 
HETATM   21  S   UNL     1      -8.807   6.411  72.790  1.00  0.00    -0.123 S  
HETATM   22  C   UNL     1      -7.366   6.217  71.768  1.00  0.00    -0.093 C  
HETATM   23  O   UNL     1      -8.951   5.237  73.626  1.00  0.00    -0.124 OA 
HETATM   24  O   UNL     1      -8.810   7.752  73.336  1.00  0.00    -0.188 OA 
ENDBRANCH  19  20
ENDBRANCH  16  19
ENDBRANCH  13  16
ENDBRANCH  10  13
ENDBRANCH   7  10
ENDBRANCH   6   7
ENDBRANCH   3   6
TORSDOF 7
ENDMDL
MODEL      181
REMARK 921   NORMALIZED FREE ENERGY PREDICTED BY IDOCK:   -3.89 KCAL/MOL
REMARK 922        TOTAL FREE ENERGY PREDICTED BY IDOCK:   -6.73 KCAL/MOL
REMARK 923 INTER-LIGAND FREE ENERGY PREDICTED BY IDOCK:   -5.64 KCAL/MOL
REMARK 924 INTRA-LIGAND FREE ENERGY PREDICTED BY IDOCK:   -1.09 KCAL/MOL
REMARK 927      BINDING AFFINITY PREDICTED BY RF-SCORE:    0.00 PKD
ROOT
HETATM    1  C   UNL     1     -12.337  14.989  64.594  1.00  0.00    -0.213 C  
HETATM    2  S   UNL     1     -11.628  13.469  65.175  1.00  0.00    -0.329 S  
HETATM    3  O   UNL     1     -11.341  13.886  66.734  1.00  0.00    -0.313 OA 
HETATM    4  O   UNL     1     -12.655  12.449  65.160  1.00  0.00    -0.622 OA 
HETATM    5  O   UNL     1     -10.349  13.279  64.521  1.00  0.00    -0.397 OA 
ENDROOT
BRANCH   3   6
HETATM    6  C   UNL     1     -10.767  12.838  67.522  1.00  0.00    -0.229 C  
BRANCH   6   7
HETATM    7  C   UNL     1     -11.835  11.993  68.223  1.00  0.00    -0.287 C  
HETATM    8  O   UNL     1     -12.033  10.766  67.493  1.00  0.00    -0.497 OA 
HETATM    9  H   UNL     1     -12.696  10.242  67.929  1.00  0.00     0.000 HD 
BRANCH   7  10
HETATM   10  C   UNL     1     -11.413  11.595  69.654  1.00  0.00    -0.288 C  
HETATM   11  H   UNL     1     -11.952  12.094  71.485  1.00  0.00     0.000 HD 
HETATM   12  O   UNL     1     -12.212  12.339  70.604  1.00  0.00    -0.371 OA 
BRANCH  10  13
HETATM   13  C   UNL     1     -11.565  10.107  70.020  1.00  0.00    -0.253 C  
HETATM   14  O   UNL     1     -12.497  10.043  71.121  1.00  0.00    -0.323 OA 
HETATM   15  H   UNL     1     -12.590   9.126  71.347  1.00  0.00     0.000 HD 
BRANCH  13  16
HETATM   16  C   UNL     1     -10.265   9.378  70.404  1.00  0.00    -0.255 C  
HETATM   17  H   UNL     1      -8.352   9.651  70.080  1.00  0.00     0.000 HD 
HETATM   18  O   UNL     1      -9.154  10.101  69.842  1.00  0.00    -0.189 OA 
BRANCH  16  19
HETATM   19  C   UNL     1     -10.229   7.920  69.936  1.00  0.00    -0.210 C  
BRANCH  19  20
HETATM   20  O   UNL     1      -9.319   7.829  68.832  1.00  0.00    -0.147 OA 
HETATM   21  S   UNL     1      -9.938   7.314  67.419  1.00  0.00    -0.194 S  
HETATM   22  C   UNL     1      -8.443   7.409  66.463  1.00  0.00    -0.128 C  
HETATM   23  O   UNL     1     -10.870   8.312  66.934  1.00  0.00    -0.228 OA 
HETATM   24  O   UNL     1     -10.307   5.921  67.565  1.00  0.00    -0.168 OA 
ENDBRANCH  19  20
ENDBRANCH  16  19
ENDBRANCH  13  16
ENDBRANCH  10  13
ENDBRANCH   7  10
ENDBRANCH   6   7
ENDBRANCH   3   6
TORSDOF 7
ENDMDL
MODEL      182
REMARK 921   NORMALIZED FREE ENERGY PREDICTED BY IDOCK:   -3.89 KCAL/MOL
REMARK 922        TOTAL FREE ENERGY PREDICTED BY IDOCK:   -6.73 KCAL/MOL
REMARK 923 INTER-LIGAND FREE ENERGY PREDICTED BY IDOCK:   -6.12 KCAL/MOL
REMARK 924 INTRA-LIGAND FREE ENERGY PREDICTED BY IDOCK:   -0.60 KCAL/MOL
REMARK 927      BINDING AFFINITY PREDICTED BY RF-SCORE:    0.00 PKD
ROOT
HETATM    1  C   UNL     1     -12.574  13.683  65.623  1.00  0.00    -0.484 C  
HETATM    2  S   UNL     1     -11.154  12.826  66.252  1.00  0.00    -0.300 S  
HETATM    3  O   UNL     1     -11.905  11.740  67.223  1.00  0.00    -0.596 OA 
HETATM    4  O   UNL     1     -10.532  12.105  65.161  1.00  0.00    -0.263 OA 
HETATM    5  O   UNL     1     -10.405  13.735  67.095  1.00  0.00    -0.258 OA 
ENDROOT
BRANCH   3   6
HETATM    6  C   UNL     1     -11.014  10.843  67.894  1.00  0.00    -0.271 C  
BRANCH   6   7
HETATM    7  C   UNL     1     -11.380  10.664  69.370  1.00  0.00    -0.284 C  
HETATM    8  O   UNL     1     -12.814  10.628  69.509  1.00  0.00    -0.608 OA 
HETATM    9  H   UNL     1     -13.041  10.517  70.425  1.00  0.00     0.000 HD 
BRANCH   7  10
HETATM   10  C   UNL     1     -10.844   9.334  69.944  1.00  0.00    -0.234 C  
HETATM   11  H   UNL     1      -9.197   8.740  70.853  1.00  0.00     0.000 HD 
HETATM   12  O   UNL     1      -9.527   9.558  70.499  1.00  0.00    -0.252 OA 
BRANCH  10  13
HETATM   13  C   UNL     1     -11.687   8.685  71.059  1.00  0.00    -0.278 C  
HETATM   14  O   UNL     1     -10.841   8.603  72.225  1.00  0.00    -0.354 OA 
HETATM   15  H   UNL     1     -11.360   8.202  72.912  1.00  0.00     0.000 HD 
BRANCH  13  16
HETATM   16  C   UNL     1     -12.256   7.292  70.738  1.00  0.00    -0.217 C  
HETATM   17  H   UNL     1     -13.317   5.951  71.695  1.00  0.00     0.000 HD 
HETATM   18  O   UNL     1     -12.966   6.811  71.894  1.00  0.00    -0.325 OA 
BRANCH  16  19
HETATM   19  C   UNL     1     -11.180   6.279  70.329  1.00  0.00    -0.388 C  
BRANCH  19  20
HETATM   20  O   UNL     1     -11.305   6.041  68.921  1.00  0.00    -0.307 OA 
HETATM   21  S   UNL     1      -9.930   5.724  68.112  1.00  0.00    -0.160 S  
HETATM   22  C   UNL     1     -10.653   5.508  66.502  1.00  0.00    -0.279 C  
HETATM   23  O   UNL     1      -9.412   4.450  68.568  1.00  0.00    -0.139 OA 
HETATM   24  O   UNL     1      -9.122   6.926  68.100  1.00  0.00    -0.126 OA 
ENDBRANCH  19  20
ENDBRANCH  16  19
ENDBRANCH  13  16
ENDBRANCH  10  13
ENDBRANCH   7  10
ENDBRANCH   6   7
ENDBRANCH   3   6
TORSDOF 7
ENDMDL
MODEL      183
REMARK 921   NORMALIZED FREE ENERGY PREDICTED BY IDOCK:   -3.88 KCAL/MOL
REMARK 922        TOTAL FREE ENERGY PREDICTED BY IDOCK:   -6.71 KCAL/MOL
REMARK 923 INTER-LIGAND FREE ENERGY PREDICTED BY IDOCK:   -5.72 KCAL/MOL
REMARK 924 INTRA-LIGAND FREE ENERGY PREDICTED BY IDOCK:   -0.99 KCAL/MOL
REMARK 927      BINDING AFFINITY PREDICTED BY RF-SCORE:    0.00 PKD
ROOT
HETATM    1  C   UNL     1     -12.085  14.318  66.691  1.00  0.00    -0.420 C  
HETATM    2  S   UNL     1     -11.610  13.934  65.025  1.00  0.00    -0.364 S  
HETATM    3  O   UNL     1     -11.740  12.301  65.079  1.00  0.00    -0.352 OA 
HETATM    4  O   UNL     1     -12.628  14.441  64.130  1.00  0.00    -0.692 OA 
HETATM    5  O   UNL     1     -10.209  14.265  64.859  1.00  0.00    -0.413 OA 
ENDROOT
BRANCH   3   6
HETATM    6  C   UNL     1     -11.434  11.651  63.841  1.00  0.00    -0.343 C  
BRANCH   6   7
HETATM    7  C   UNL     1     -10.051  10.993  63.862  1.00  0.00    -0.356 C  
HETATM    8  O   UNL     1      -9.086  11.884  63.269  1.00  0.00    -0.604 OA 
HETATM    9  H   UNL     1      -8.228  11.475  63.282  1.00  0.00     0.000 HD 
BRANCH   7  10
HETATM   10  C   UNL     1      -9.567  10.706  65.300  1.00  0.00    -0.241 C  
HETATM   11  H   UNL     1      -9.629   9.175  66.542  1.00  0.00     0.000 HD 
HETATM   12  O   UNL     1      -9.928   9.351  65.657  1.00  0.00    -0.304 OA 
BRANCH  10  13
HETATM   13  C   UNL     1      -8.052  10.837  65.547  1.00  0.00    -0.084 C  
HETATM   14  O   UNL     1      -7.500   9.507  65.458  1.00  0.00    -0.097 OA 
HETATM   15  H   UNL     1      -6.566   9.588  65.611  1.00  0.00     0.000 HD 
BRANCH  13  16
HETATM   16  C   UNL     1      -7.648  11.473  66.889  1.00  0.00    -0.151 C  
HETATM   17  H   UNL     1      -6.089  12.445  67.572  1.00  0.00     0.000 HD 
HETATM   18  O   UNL     1      -6.338  12.052  66.744  1.00  0.00    -0.119 OA 
BRANCH  16  19
HETATM   19  C   UNL     1      -7.651  10.477  68.054  1.00  0.00    -0.091 C  
BRANCH  19  20
HETATM   20  O   UNL     1      -8.892  10.619  68.758  1.00  0.00    -0.146 OA 
HETATM   21  S   UNL     1      -9.305   9.404  69.756  1.00  0.00    -0.219 S  
HETATM   22  C   UNL     1     -10.839  10.091  70.335  1.00  0.00    -0.318 C  
HETATM   23  O   UNL     1      -8.361   9.370  70.855  1.00  0.00    -0.252 OA 
HETATM   24  O   UNL     1      -9.596   8.234  68.953  1.00  0.00    -0.151 OA 
ENDBRANCH  19  20
ENDBRANCH  16  19
ENDBRANCH  13  16
ENDBRANCH  10  13
ENDBRANCH   7  10
ENDBRANCH   6   7
ENDBRANCH   3   6
TORSDOF 7
ENDMDL
MODEL      184
REMARK 921   NORMALIZED FREE ENERGY PREDICTED BY IDOCK:   -3.87 KCAL/MOL
REMARK 922        TOTAL FREE ENERGY PREDICTED BY IDOCK:   -6.70 KCAL/MOL
REMARK 923 INTER-LIGAND FREE ENERGY PREDICTED BY IDOCK:   -5.43 KCAL/MOL
REMARK 924 INTRA-LIGAND FREE ENERGY PREDICTED BY IDOCK:   -1.27 KCAL/MOL
REMARK 927      BINDING AFFINITY PREDICTED BY RF-SCORE:    0.00 PKD
ROOT
HETATM    1  C   UNL     1     -10.354   5.277  66.936  1.00  0.00    -0.255 C  
HETATM    2  S   UNL     1      -9.790   5.294  68.618  1.00  0.00    -0.161 S  
HETATM    3  O   UNL     1     -11.062   6.053  69.320  1.00  0.00    -0.364 OA 
HETATM    4  O   UNL     1      -9.751   3.931  69.103  1.00  0.00    -0.176 OA 
HETATM    5  O   UNL     1      -8.641   6.173  68.708  1.00  0.00    -0.120 OA 
ENDROOT
BRANCH   3   6
HETATM    6  C   UNL     1     -10.934   6.218  70.736  1.00  0.00    -0.297 C  
BRANCH   6   7
HETATM    7  C   UNL     1     -10.572   7.656  71.119  1.00  0.00    -0.221 C  
HETATM    8  O   UNL     1      -9.140   7.816  71.088  1.00  0.00    -0.140 OA 
HETATM    9  H   UNL     1      -8.916   8.709  71.326  1.00  0.00     0.000 HD 
BRANCH   7  10
HETATM   10  C   UNL     1     -11.156   8.685  70.126  1.00  0.00    -0.192 C  
HETATM   11  H   UNL     1     -12.132  10.394  70.261  1.00  0.00     0.000 HD 
HETATM   12  O   UNL     1     -11.773   9.761  70.872  1.00  0.00    -0.296 OA 
BRANCH  10  13
HETATM   13  C   UNL     1     -10.153   9.341  69.157  1.00  0.00    -0.199 C  
HETATM   14  O   UNL     1      -9.660  10.529  69.811  1.00  0.00    -0.418 OA 
HETATM   15  H   UNL     1      -9.043  10.933  69.213  1.00  0.00     0.000 HD 
BRANCH  13  16
HETATM   16  C   UNL     1     -10.711   9.710  67.771  1.00  0.00    -0.257 C  
HETATM   17  H   UNL     1     -10.942   8.789  66.057  1.00  0.00     0.000 HD 
HETATM   18  O   UNL     1     -10.597   8.561  66.912  1.00  0.00    -0.298 OA 
BRANCH  16  19
HETATM   19  C   UNL     1     -10.000  10.910  67.135  1.00  0.00    -0.189 C  
BRANCH  19  20
HETATM   20  O   UNL     1     -10.703  12.099  67.519  1.00  0.00    -0.221 OA 
HETATM   21  S   UNL     1     -11.264  13.034  66.312  1.00  0.00    -0.312 S  
HETATM   22  C   UNL     1     -12.018  14.287  67.322  1.00  0.00    -0.405 C  
HETATM   23  O   UNL     1     -12.304  12.307  65.612  1.00  0.00    -0.619 OA 
HETATM   24  O   UNL     1     -10.131  13.615  65.622  1.00  0.00    -0.293 OA 
ENDBRANCH  19  20
ENDBRANCH  16  19
ENDBRANCH  13  16
ENDBRANCH  10  13
ENDBRANCH   7  10
ENDBRANCH   6   7
ENDBRANCH   3   6
TORSDOF 7
ENDMDL
MODEL      185
REMARK 921   NORMALIZED FREE ENERGY PREDICTED BY IDOCK:   -3.87 KCAL/MOL
REMARK 922        TOTAL FREE ENERGY PREDICTED BY IDOCK:   -6.69 KCAL/MOL
REMARK 923 INTER-LIGAND FREE ENERGY PREDICTED BY IDOCK:   -5.77 KCAL/MOL
REMARK 924 INTRA-LIGAND FREE ENERGY PREDICTED BY IDOCK:   -0.92 KCAL/MOL
REMARK 927      BINDING AFFINITY PREDICTED BY RF-SCORE:    0.00 PKD
ROOT
HETATM    1  C   UNL     1     -12.432  14.614  64.344  1.00  0.00    -0.288 C  
HETATM    2  S   UNL     1     -12.083  12.874  64.343  1.00  0.00    -0.432 S  
HETATM    3  O   UNL     1     -11.451  12.726  65.848  1.00  0.00    -0.322 OA 
HETATM    4  O   UNL     1     -13.338  12.155  64.305  1.00  0.00    -0.761 OA 
HETATM    5  O   UNL     1     -11.024  12.618  63.388  1.00  0.00    -0.428 OA 
ENDROOT
BRANCH   3   6
HETATM    6  C   UNL     1     -11.069  11.390  66.191  1.00  0.00    -0.198 C  
BRANCH   6   7
HETATM    7  C   UNL     1      -9.560  11.264  66.422  1.00  0.00    -0.198 C  
HETATM    8  O   UNL     1      -8.854  11.755  65.265  1.00  0.00    -0.396 OA 
HETATM    9  H   UNL     1      -7.918  11.677  65.408  1.00  0.00     0.000 HD 
BRANCH   7  10
HETATM   10  C   UNL     1      -9.084  12.107  67.624  1.00  0.00    -0.181 C  
HETATM   11  H   UNL     1      -8.698  11.774  69.530  1.00  0.00     0.000 HD 
HETATM   12  O   UNL     1      -8.991  11.255  68.790  1.00  0.00    -0.170 OA 
BRANCH  10  13
HETATM   13  C   UNL     1      -7.714  12.796  67.473  1.00  0.00    -0.168 C  
HETATM   14  O   UNL     1      -6.892  12.329  68.563  1.00  0.00    -0.069 OA 
HETATM   15  H   UNL     1      -6.048  12.754  68.470  1.00  0.00     0.000 HD 
BRANCH  13  16
HETATM   16  C   UNL     1      -7.739  14.335  67.471  1.00  0.00    -0.191 C  
HETATM   17  H   UNL     1      -6.404  15.762  67.328  1.00  0.00     0.000 HD 
HETATM   18  O   UNL     1      -6.388  14.813  67.330  1.00  0.00    -0.306 OA 
BRANCH  16  19
HETATM   19  C   UNL     1      -8.373  14.930  68.733  1.00  0.00    -0.170 C  
BRANCH  19  20
HETATM   20  O   UNL     1      -8.896  16.223  68.401  1.00  0.00    -0.189 OA 
HETATM   21  S   UNL     1     -10.511  16.396  68.476  1.00  0.00    -0.311 S  
HETATM   22  C   UNL     1     -10.584  18.107  68.003  1.00  0.00    -0.341 C  
HETATM   23  O   UNL     1     -10.923  16.273  69.860  1.00  0.00    -0.337 OA 
HETATM   24  O   UNL     1     -11.103  15.598  67.422  1.00  0.00    -0.316 OA 
ENDBRANCH  19  20
ENDBRANCH  16  19
ENDBRANCH  13  16
ENDBRANCH  10  13
ENDBRANCH   7  10
ENDBRANCH   6   7
ENDBRANCH   3   6
TORSDOF 7
ENDMDL
MODEL      186
REMARK 921   NORMALIZED FREE ENERGY PREDICTED BY IDOCK:   -3.86 KCAL/MOL
REMARK 922        TOTAL FREE ENERGY PREDICTED BY IDOCK:   -6.69 KCAL/MOL
REMARK 923 INTER-LIGAND FREE ENERGY PREDICTED BY IDOCK:   -5.90 KCAL/MOL
REMARK 924 INTRA-LIGAND FREE ENERGY PREDICTED BY IDOCK:   -0.79 KCAL/MOL
REMARK 927      BINDING AFFINITY PREDICTED BY RF-SCORE:    0.00 PKD
ROOT
HETATM    1  C   UNL     1     -13.034  13.915  65.604  1.00  0.00    -0.315 C  
HETATM    2  S   UNL     1     -11.876  13.248  64.436  1.00  0.00    -0.422 S  
HETATM    3  O   UNL     1     -11.434  11.891  65.241  1.00  0.00    -0.321 OA 
HETATM    4  O   UNL     1     -12.600  12.854  63.246  1.00  0.00    -0.685 OA 
HETATM    5  O   UNL     1     -10.726  14.127  64.377  1.00  0.00    -0.352 OA 
ENDROOT
BRANCH   3   6
HETATM    6  C   UNL     1     -10.486  11.079  64.540  1.00  0.00    -0.342 C  
BRANCH   6   7
HETATM    7  C   UNL     1      -9.551  10.331  65.494  1.00  0.00    -0.242 C  
HETATM    8  O   UNL     1      -8.404  11.153  65.787  1.00  0.00    -0.293 OA 
HETATM    9  H   UNL     1      -7.824  10.688  66.379  1.00  0.00     0.000 HD 
BRANCH   7  10
HETATM   10  C   UNL     1     -10.230  10.017  66.845  1.00  0.00    -0.238 C  
HETATM   11  H   UNL     1     -10.934   8.407  67.742  1.00  0.00     0.000 HD 
HETATM   12  O   UNL     1     -10.516   8.600  66.910  1.00  0.00    -0.294 OA 
BRANCH  10  13
HETATM   13  C   UNL     1      -9.421  10.361  68.110  1.00  0.00    -0.145 C  
HETATM   14  O   UNL     1      -9.264   9.132  68.850  1.00  0.00    -0.138 OA 
HETATM   15  H   UNL     1      -8.766   9.344  69.630  1.00  0.00     0.000 HD 
BRANCH  13  16
HETATM   16  C   UNL     1     -10.036  11.436  69.023  1.00  0.00    -0.090 C  
HETATM   17  H   UNL     1     -11.626  11.572  70.161  1.00  0.00     0.000 HD 
HETATM   18  O   UNL     1     -11.246  10.908  69.597  1.00  0.00    -0.243 OA 
BRANCH  16  19
HETATM   19  C   UNL     1     -10.335  12.749  68.293  1.00  0.00    -0.243 C  
BRANCH  19  20
HETATM   20  O   UNL     1     -11.209  13.529  69.120  1.00  0.00    -0.260 OA 
HETATM   21  S   UNL     1     -10.951  15.135  69.140  1.00  0.00    -0.275 S  
HETATM   22  C   UNL     1     -12.264  15.566  70.257  1.00  0.00    -0.400 C  
HETATM   23  O   UNL     1     -11.257  15.666  67.827  1.00  0.00    -0.329 OA 
HETATM   24  O   UNL     1      -9.684  15.383  69.796  1.00  0.00    -0.272 OA 
ENDBRANCH  19  20
ENDBRANCH  16  19
ENDBRANCH  13  16
ENDBRANCH  10  13
ENDBRANCH   7  10
ENDBRANCH   6   7
ENDBRANCH   3   6
TORSDOF 7
ENDMDL
MODEL      187
REMARK 921   NORMALIZED FREE ENERGY PREDICTED BY IDOCK:   -3.85 KCAL/MOL
REMARK 922        TOTAL FREE ENERGY PREDICTED BY IDOCK:   -6.67 KCAL/MOL
REMARK 923 INTER-LIGAND FREE ENERGY PREDICTED BY IDOCK:   -5.70 KCAL/MOL
REMARK 924 INTRA-LIGAND FREE ENERGY PREDICTED BY IDOCK:   -0.97 KCAL/MOL
REMARK 927      BINDING AFFINITY PREDICTED BY RF-SCORE:    0.00 PKD
ROOT
HETATM    1  C   UNL     1     -12.281  14.190  70.589  1.00  0.00    -0.362 C  
HETATM    2  S   UNL     1     -11.563  14.882  69.121  1.00  0.00    -0.325 S  
HETATM    3  O   UNL     1     -12.337  13.980  67.993  1.00  0.00    -0.239 OA 
HETATM    4  O   UNL     1     -12.013  16.252  68.993  1.00  0.00    -0.223 OA 
HETATM    5  O   UNL     1     -10.158  14.530  69.087  1.00  0.00    -0.214 OA 
ENDROOT
BRANCH   3   6
HETATM    6  C   UNL     1     -11.989  14.309  66.644  1.00  0.00    -0.430 C  
BRANCH   6   7
HETATM    7  C   UNL     1     -11.811  13.061  65.774  1.00  0.00    -0.404 C  
HETATM    8  O   UNL     1     -12.835  13.032  64.760  1.00  0.00    -0.708 OA 
HETATM    9  H   UNL     1     -12.724  12.257  64.220  1.00  0.00     0.000 HD 
BRANCH   7  10
HETATM   10  C   UNL     1     -10.455  13.056  65.037  1.00  0.00    -0.328 C  
HETATM   11  H   UNL     1      -8.638  13.735  65.398  1.00  0.00     0.000 HD 
HETATM   12  O   UNL     1      -9.473  13.738  65.852  1.00  0.00    -0.177 OA 
BRANCH  10  13
HETATM   13  C   UNL     1      -9.866  11.672  64.704  1.00  0.00    -0.227 C  
HETATM   14  O   UNL     1     -10.948  10.875  64.178  1.00  0.00    -0.397 OA 
HETATM   15  H   UNL     1     -10.585  10.022  63.973  1.00  0.00     0.000 HD 
BRANCH  13  16
HETATM   16  C   UNL     1      -9.204  10.930  65.878  1.00  0.00    -0.191 C  
HETATM   17  H   UNL     1      -7.440  10.152  66.236  1.00  0.00     0.000 HD 
HETATM   18  O   UNL     1      -7.849  10.610  65.511  1.00  0.00    -0.154 OA 
BRANCH  16  19
HETATM   19  C   UNL     1      -9.949   9.653  66.282  1.00  0.00    -0.264 C  
BRANCH  19  20
HETATM   20  O   UNL     1     -10.770   9.957  67.417  1.00  0.00    -0.266 OA 
HETATM   21  S   UNL     1     -10.205   9.491  68.869  1.00  0.00    -0.206 S  
HETATM   22  C   UNL     1     -11.552  10.108  69.851  1.00  0.00    -0.223 C  
HETATM   23  O   UNL     1      -9.015  10.260  69.169  1.00  0.00    -0.160 OA 
HETATM   24  O   UNL     1     -10.220   8.043  68.919  1.00  0.00    -0.201 OA 
ENDBRANCH  19  20
ENDBRANCH  16  19
ENDBRANCH  13  16
ENDBRANCH  10  13
ENDBRANCH   7  10
ENDBRANCH   6   7
ENDBRANCH   3   6
TORSDOF 7
ENDMDL
MODEL      188
REMARK 921   NORMALIZED FREE ENERGY PREDICTED BY IDOCK:   -3.85 KCAL/MOL
REMARK 922        TOTAL FREE ENERGY PREDICTED BY IDOCK:   -6.67 KCAL/MOL
REMARK 923 INTER-LIGAND FREE ENERGY PREDICTED BY IDOCK:   -5.67 KCAL/MOL
REMARK 924 INTRA-LIGAND FREE ENERGY PREDICTED BY IDOCK:   -0.99 KCAL/MOL
REMARK 927      BINDING AFFINITY PREDICTED BY RF-SCORE:    0.00 PKD
ROOT
HETATM    1  C   UNL     1      -6.946  10.076  63.592  1.00  0.00    -0.128 C  
HETATM    2  S   UNL     1      -8.136   9.985  64.905  1.00  0.00    -0.158 S  
HETATM    3  O   UNL     1      -9.369  10.811  64.208  1.00  0.00    -0.215 OA 
HETATM    4  O   UNL     1      -8.544   8.605  65.060  1.00  0.00    -0.182 OA 
HETATM    5  O   UNL     1      -7.649  10.770  66.021  1.00  0.00    -0.149 OA 
ENDROOT
BRANCH   3   6
HETATM    6  C   UNL     1     -10.540  10.910  65.025  1.00  0.00    -0.217 C  
BRANCH   6   7
HETATM    7  C   UNL     1     -10.660  12.282  65.694  1.00  0.00    -0.260 C  
HETATM    8  O   UNL     1     -11.827  12.962  65.190  1.00  0.00    -0.338 OA 
HETATM    9  H   UNL     1     -11.902  13.813  65.606  1.00  0.00     0.000 HD 
BRANCH   7  10
HETATM   10  C   UNL     1     -10.839  12.168  67.224  1.00  0.00    -0.244 C  
HETATM   11  H   UNL     1     -12.099  12.880  68.565  1.00  0.00     0.000 HD 
HETATM   12  O   UNL     1     -11.989  12.951  67.623  1.00  0.00    -0.352 OA 
BRANCH  10  13
HETATM   13  C   UNL     1     -11.058  10.748  67.780  1.00  0.00    -0.318 C  
HETATM   14  O   UNL     1     -12.321  10.766  68.479  1.00  0.00    -0.825 OA 
HETATM   15  H   UNL     1     -12.456   9.892  68.822  1.00  0.00     0.000 HD 
BRANCH  13  16
HETATM   16  C   UNL     1      -9.959  10.223  68.720  1.00  0.00    -0.179 C  
HETATM   17  H   UNL     1      -8.834   8.621  68.811  1.00  0.00     0.000 HD 
HETATM   18  O   UNL     1      -9.514   8.944  68.232  1.00  0.00    -0.139 OA 
BRANCH  16  19
HETATM   19  C   UNL     1     -10.419  10.094  70.176  1.00  0.00    -0.255 C  
BRANCH  19  20
HETATM   20  O   UNL     1     -11.239   8.922  70.281  1.00  0.00    -0.248 OA 
HETATM   21  S   UNL     1     -11.857   8.595  71.750  1.00  0.00    -0.365 S  
HETATM   22  C   UNL     1     -12.747   7.123  71.304  1.00  0.00    -0.366 C  
HETATM   23  O   UNL     1     -12.807   9.634  72.089  1.00  0.00    -0.390 OA 
HETATM   24  O   UNL     1     -10.767   8.229  72.630  1.00  0.00    -0.343 OA 
ENDBRANCH  19  20
ENDBRANCH  16  19
ENDBRANCH  13  16
ENDBRANCH  10  13
ENDBRANCH   7  10
ENDBRANCH   6   7
ENDBRANCH   3   6
TORSDOF 7
ENDMDL
MODEL      189
REMARK 921   NORMALIZED FREE ENERGY PREDICTED BY IDOCK:   -3.83 KCAL/MOL
REMARK 922        TOTAL FREE ENERGY PREDICTED BY IDOCK:   -6.64 KCAL/MOL
REMARK 923 INTER-LIGAND FREE ENERGY PREDICTED BY IDOCK:   -5.28 KCAL/MOL
REMARK 924 INTRA-LIGAND FREE ENERGY PREDICTED BY IDOCK:   -1.36 KCAL/MOL
REMARK 927      BINDING AFFINITY PREDICTED BY RF-SCORE:    0.00 PKD
ROOT
HETATM    1  C   UNL     1     -12.635  13.829  64.786  1.00  0.00    -0.290 C  
HETATM    2  S   UNL     1     -10.881  13.834  65.057  1.00  0.00    -0.394 S  
HETATM    3  O   UNL     1     -10.801  12.782  66.311  1.00  0.00    -0.269 OA 
HETATM    4  O   UNL     1     -10.239  13.225  63.912  1.00  0.00    -0.322 OA 
HETATM    5  O   UNL     1     -10.496  15.142  65.546  1.00  0.00    -0.321 OA 
ENDROOT
BRANCH   3   6
HETATM    6  C   UNL     1      -9.471  12.535  66.780  1.00  0.00    -0.231 C  
BRANCH   6   7
HETATM    7  C   UNL     1      -9.237  13.113  68.179  1.00  0.00    -0.215 C  
HETATM    8  O   UNL     1      -9.278  12.051  69.152  1.00  0.00    -0.343 OA 
HETATM    9  H   UNL     1      -9.132  12.410  70.020  1.00  0.00     0.000 HD 
BRANCH   7  10
HETATM   10  C   UNL     1      -7.850  13.780  68.306  1.00  0.00    -0.144 C  
HETATM   11  H   UNL     1      -6.643  14.787  67.115  1.00  0.00     0.000 HD 
HETATM   12  O   UNL     1      -7.496  14.377  67.036  1.00  0.00    -0.035 OA 
BRANCH  10  13
HETATM   13  C   UNL     1      -7.723  14.891  69.366  1.00  0.00    -0.150 C  
HETATM   14  O   UNL     1      -9.058  15.174  69.833  1.00  0.00    -0.450 OA 
HETATM   15  H   UNL     1      -8.980  15.859  70.486  1.00  0.00     0.000 HD 
BRANCH  13  16
HETATM   16  C   UNL     1      -7.058  16.194  68.888  1.00  0.00    -0.166 C  
HETATM   17  H   UNL     1      -5.365  17.118  69.234  1.00  0.00     0.000 HD 
HETATM   18  O   UNL     1      -5.775  16.314  69.529  1.00  0.00    -0.130 OA 
BRANCH  16  19
HETATM   19  C   UNL     1      -7.902  17.441  69.173  1.00  0.00    -0.024 C  
BRANCH  19  20
HETATM   20  O   UNL     1      -8.604  17.788  67.972  1.00  0.00    -0.238 OA 
HETATM   21  S   UNL     1     -10.170  18.197  68.136  1.00  0.00    -0.391 S  
HETATM   22  C   UNL     1     -10.504  18.524  66.422  1.00  0.00    -0.406 C  
HETATM   23  O   UNL     1     -10.245  19.440  68.875  1.00  0.00    -0.410 OA 
HETATM   24  O   UNL     1     -10.908  17.016  68.535  1.00  0.00    -0.354 OA 
ENDBRANCH  19  20
ENDBRANCH  16  19
ENDBRANCH  13  16
ENDBRANCH  10  13
ENDBRANCH   7  10
ENDBRANCH   6   7
ENDBRANCH   3   6
TORSDOF 7
ENDMDL
MODEL      190
REMARK 921   NORMALIZED FREE ENERGY PREDICTED BY IDOCK:   -3.83 KCAL/MOL
REMARK 922        TOTAL FREE ENERGY PREDICTED BY IDOCK:   -6.64 KCAL/MOL
REMARK 923 INTER-LIGAND FREE ENERGY PREDICTED BY IDOCK:   -5.61 KCAL/MOL
REMARK 924 INTRA-LIGAND FREE ENERGY PREDICTED BY IDOCK:   -1.03 KCAL/MOL
REMARK 927      BINDING AFFINITY PREDICTED BY RF-SCORE:    0.00 PKD
ROOT
HETATM    1  C   UNL     1     -11.800  14.780  64.670  1.00  0.00    -0.436 C  
HETATM    2  S   UNL     1     -11.856  13.011  64.554  1.00  0.00    -0.404 S  
HETATM    3  O   UNL     1     -11.207  12.626  66.009  1.00  0.00    -0.283 OA 
HETATM    4  O   UNL     1     -13.243  12.595  64.551  1.00  0.00    -0.783 OA 
HETATM    5  O   UNL     1     -10.927  12.587  63.525  1.00  0.00    -0.445 OA 
ENDROOT
BRANCH   3   6
HETATM    6  C   UNL     1     -11.124  11.219  66.256  1.00  0.00    -0.166 C  
BRANCH   6   7
HETATM    7  C   UNL     1      -9.728  10.798  66.728  1.00  0.00    -0.187 C  
HETATM    8  O   UNL     1      -9.012  11.956  67.203  1.00  0.00    -0.166 OA 
HETATM    9  H   UNL     1      -8.147  11.694  67.495  1.00  0.00     0.000 HD 
BRANCH   7  10
HETATM   10  C   UNL     1      -9.789   9.800  67.904  1.00  0.00    -0.149 C  
HETATM   11  H   UNL     1     -11.093   9.340  69.311  1.00  0.00     0.000 HD 
HETATM   12  O   UNL     1     -11.055   9.954  68.587  1.00  0.00    -0.209 OA 
BRANCH  10  13
HETATM   13  C   UNL     1      -9.666   8.308  67.538  1.00  0.00    -0.165 C  
HETATM   14  O   UNL     1     -10.970   7.723  67.735  1.00  0.00    -0.489 OA 
HETATM   15  H   UNL     1     -10.895   6.804  67.510  1.00  0.00     0.000 HD 
BRANCH  13  16
HETATM   16  C   UNL     1      -8.619   7.511  68.335  1.00  0.00    -0.124 C  
HETATM   17  H   UNL     1      -7.178   6.256  67.900  1.00  0.00     0.000 HD 
HETATM   18  O   UNL     1      -7.824   6.748  67.408  1.00  0.00    -0.107 OA 
BRANCH  16  19
HETATM   19  C   UNL     1      -9.239   6.578  69.381  1.00  0.00    -0.144 C  
BRANCH  19  20
HETATM   20  O   UNL     1      -9.839   7.388  70.400  1.00  0.00    -0.183 OA 
HETATM   21  S   UNL     1     -11.116   6.749  71.180  1.00  0.00    -0.285 S  
HETATM   22  C   UNL     1     -11.422   8.113  72.278  1.00  0.00    -0.371 C  
HETATM   23  O   UNL     1     -10.660   5.614  71.956  1.00  0.00    -0.215 OA 
HETATM   24  O   UNL     1     -12.217   6.651  70.244  1.00  0.00    -0.294 OA 
ENDBRANCH  19  20
ENDBRANCH  16  19
ENDBRANCH  13  16
ENDBRANCH  10  13
ENDBRANCH   7  10
ENDBRANCH   6   7
ENDBRANCH   3   6
TORSDOF 7
ENDMDL
MODEL      191
REMARK 921   NORMALIZED FREE ENERGY PREDICTED BY IDOCK:   -3.82 KCAL/MOL
REMARK 922        TOTAL FREE ENERGY PREDICTED BY IDOCK:   -6.63 KCAL/MOL
REMARK 923 INTER-LIGAND FREE ENERGY PREDICTED BY IDOCK:   -5.90 KCAL/MOL
REMARK 924 INTRA-LIGAND FREE ENERGY PREDICTED BY IDOCK:   -0.73 KCAL/MOL
REMARK 927      BINDING AFFINITY PREDICTED BY RF-SCORE:    0.00 PKD
ROOT
HETATM    1  C   UNL     1      -6.475   8.155  66.745  1.00  0.00    -0.056 C  
HETATM    2  S   UNL     1      -7.321   9.406  65.813  1.00  0.00    -0.097 S  
HETATM    3  O   UNL     1      -8.013  10.236  67.046  1.00  0.00    -0.109 OA 
HETATM    4  O   UNL     1      -6.333  10.261  65.190  1.00  0.00    -0.114 OA 
HETATM    5  O   UNL     1      -8.379   8.775  65.051  1.00  0.00    -0.152 OA 
ENDROOT
BRANCH   3   6
HETATM    6  C   UNL     1      -8.783  11.367  66.627  1.00  0.00    -0.178 C  
BRANCH   6   7
HETATM    7  C   UNL     1      -9.724  11.864  67.729  1.00  0.00    -0.189 C  
HETATM    8  O   UNL     1      -9.058  12.876  68.510  1.00  0.00    -0.331 OA 
HETATM    9  H   UNL     1      -9.643  13.184  69.194  1.00  0.00     0.000 HD 
BRANCH   7  10
HETATM   10  C   UNL     1     -11.000  12.515  67.152  1.00  0.00    -0.263 C  
HETATM   11  H   UNL     1     -12.926  12.485  67.577  1.00  0.00     0.000 HD 
HETATM   12  O   UNL     1     -12.141  12.085  67.932  1.00  0.00    -0.531 OA 
BRANCH  10  13
HETATM   13  C   UNL     1     -11.032  14.055  67.139  1.00  0.00    -0.296 C  
HETATM   14  O   UNL     1     -12.302  14.449  67.700  1.00  0.00    -0.619 OA 
HETATM   15  H   UNL     1     -12.322  15.398  67.692  1.00  0.00     0.000 HD 
BRANCH  13  16
HETATM   16  C   UNL     1     -10.853  14.714  65.760  1.00  0.00    -0.323 C  
HETATM   17  H   UNL     1     -10.633  14.081  63.918  1.00  0.00     0.000 HD 
HETATM   18  O   UNL     1     -10.742  13.675  64.769  1.00  0.00    -0.363 OA 
BRANCH  16  19
HETATM   19  C   UNL     1      -9.633  15.638  65.685  1.00  0.00    -0.284 C  
BRANCH  19  20
HETATM   20  O   UNL     1     -10.103  16.989  65.585  1.00  0.00    -0.554 OA 
HETATM   21  S   UNL     1      -9.934  17.918  66.909  1.00  0.00    -0.352 S  
HETATM   22  C   UNL     1     -10.634  19.407  66.239  1.00  0.00    -0.475 C  
HETATM   23  O   UNL     1      -8.520  18.129  67.145  1.00  0.00    -0.234 OA 
HETATM   24  O   UNL     1     -10.819  17.411  67.937  1.00  0.00    -0.375 OA 
ENDBRANCH  19  20
ENDBRANCH  16  19
ENDBRANCH  13  16
ENDBRANCH  10  13
ENDBRANCH   7  10
ENDBRANCH   6   7
ENDBRANCH   3   6
TORSDOF 7
ENDMDL
MODEL      192
REMARK 921   NORMALIZED FREE ENERGY PREDICTED BY IDOCK:   -3.81 KCAL/MOL
REMARK 922        TOTAL FREE ENERGY PREDICTED BY IDOCK:   -6.61 KCAL/MOL
REMARK 923 INTER-LIGAND FREE ENERGY PREDICTED BY IDOCK:   -5.07 KCAL/MOL
REMARK 924 INTRA-LIGAND FREE ENERGY PREDICTED BY IDOCK:   -1.55 KCAL/MOL
REMARK 927      BINDING AFFINITY PREDICTED BY RF-SCORE:    0.00 PKD
ROOT
HETATM    1  C   UNL     1      -6.409   8.328  66.919  1.00  0.00    -0.056 C  
HETATM    2  S   UNL     1      -7.482   9.163  68.059  1.00  0.00    -0.084 S  
HETATM    3  O   UNL     1      -7.609  10.609  67.297  1.00  0.00    -0.096 OA 
HETATM    4  O   UNL     1      -8.777   8.517  68.027  1.00  0.00    -0.140 OA 
HETATM    5  O   UNL     1      -6.761   9.374  69.298  1.00  0.00    -0.048 OA 
ENDROOT
BRANCH   3   6
HETATM    6  C   UNL     1      -8.455  11.548  67.967  1.00  0.00    -0.148 C  
BRANCH   6   7
HETATM    7  C   UNL     1      -9.691  11.906  67.136  1.00  0.00    -0.185 C  
HETATM    8  O   UNL     1      -9.941  10.863  66.173  1.00  0.00    -0.216 OA 
HETATM    9  H   UNL     1     -10.708  11.086  65.658  1.00  0.00     0.000 HD 
BRANCH   7  10
HETATM   10  C   UNL     1     -10.962  12.022  68.006  1.00  0.00    -0.223 C  
HETATM   11  H   UNL     1     -12.896  12.226  67.676  1.00  0.00     0.000 HD 
HETATM   12  O   UNL     1     -12.114  12.155  67.140  1.00  0.00    -0.575 OA 
BRANCH  10  13
HETATM   13  C   UNL     1     -11.254  10.837  68.947  1.00  0.00    -0.268 C  
HETATM   14  O   UNL     1     -11.620   9.721  68.108  1.00  0.00    -0.527 OA 
HETATM   15  H   UNL     1     -11.801   8.991  68.688  1.00  0.00     0.000 HD 
BRANCH  13  16
HETATM   16  C   UNL     1     -12.354  11.075  69.996  1.00  0.00    -0.305 C  
HETATM   17  H   UNL     1     -12.872  12.546  71.182  1.00  0.00     0.000 HD 
HETATM   18  O   UNL     1     -12.192  12.400  70.535  1.00  0.00    -0.361 OA 
BRANCH  16  19
HETATM   19  C   UNL     1     -12.339  10.045  71.131  1.00  0.00    -0.377 C  
BRANCH  19  20
HETATM   20  O   UNL     1     -11.393   9.022  70.791  1.00  0.00    -0.261 OA 
HETATM   21  S   UNL     1     -11.608   7.570  71.493  1.00  0.00    -0.283 S  
HETATM   22  C   UNL     1     -10.231   6.741  70.734  1.00  0.00    -0.195 C  
HETATM   23  O   UNL     1     -12.838   6.994  70.990  1.00  0.00    -0.349 OA 
HETATM   24  O   UNL     1     -11.343   7.707  72.910  1.00  0.00    -0.369 OA 
ENDBRANCH  19  20
ENDBRANCH  16  19
ENDBRANCH  13  16
ENDBRANCH  10  13
ENDBRANCH   7  10
ENDBRANCH   6   7
ENDBRANCH   3   6
TORSDOF 7
ENDMDL
MODEL      193
REMARK 921   NORMALIZED FREE ENERGY PREDICTED BY IDOCK:   -3.80 KCAL/MOL
REMARK 922        TOTAL FREE ENERGY PREDICTED BY IDOCK:   -6.60 KCAL/MOL
REMARK 923 INTER-LIGAND FREE ENERGY PREDICTED BY IDOCK:   -5.81 KCAL/MOL
REMARK 924 INTRA-LIGAND FREE ENERGY PREDICTED BY IDOCK:   -0.79 KCAL/MOL
REMARK 927      BINDING AFFINITY PREDICTED BY RF-SCORE:    0.00 PKD
ROOT
HETATM    1  C   UNL     1      -9.926  12.659  68.250  1.00  0.00    -0.229 C  
HETATM    2  S   UNL     1     -11.614  12.298  68.661  1.00  0.00    -0.343 S  
HETATM    3  O   UNL     1     -11.378  11.459  70.050  1.00  0.00    -0.260 OA 
HETATM    4  O   UNL     1     -12.282  13.539  68.989  1.00  0.00    -0.320 OA 
HETATM    5  O   UNL     1     -12.143  11.382  67.671  1.00  0.00    -0.630 OA 
ENDROOT
BRANCH   3   6
HETATM    6  C   UNL     1     -12.586  11.020  70.678  1.00  0.00    -0.338 C  
BRANCH   6   7
HETATM    7  C   UNL     1     -12.314  10.081  71.857  1.00  0.00    -0.261 C  
HETATM    8  O   UNL     1     -13.562   9.559  72.355  1.00  0.00    -0.573 OA 
HETATM    9  H   UNL     1     -13.393   8.976  73.086  1.00  0.00     0.000 HD 
BRANCH   7  10
HETATM   10  C   UNL     1     -11.457   8.865  71.445  1.00  0.00    -0.311 C  
HETATM   11  H   UNL     1     -10.004   7.808  72.260  1.00  0.00     0.000 HD 
HETATM   12  O   UNL     1     -10.532   8.557  72.514  1.00  0.00    -0.317 OA 
BRANCH  10  13
HETATM   13  C   UNL     1     -12.223   7.564  71.138  1.00  0.00    -0.301 C  
HETATM   14  O   UNL     1     -12.564   6.972  72.409  1.00  0.00    -0.509 OA 
HETATM   15  H   UNL     1     -13.036   6.171  72.220  1.00  0.00     0.000 HD 
BRANCH  13  16
HETATM   16  C   UNL     1     -11.471   6.534  70.277  1.00  0.00    -0.411 C  
HETATM   17  H   UNL     1     -10.252   5.038  70.619  1.00  0.00     0.000 HD 
HETATM   18  O   UNL     1     -10.716   5.673  71.151  1.00  0.00    -0.251 OA 
BRANCH  16  19
HETATM   19  C   UNL     1     -10.537   7.177  69.246  1.00  0.00    -0.221 C  
BRANCH  19  20
HETATM   20  O   UNL     1      -9.294   6.461  69.263  1.00  0.00    -0.137 OA 
HETATM   21  S   UNL     1      -7.981   7.270  68.746  1.00  0.00    -0.125 S  
HETATM   22  C   UNL     1      -6.797   5.968  68.990  1.00  0.00    -0.062 C  
HETATM   23  O   UNL     1      -7.703   8.340  69.683  1.00  0.00    -0.095 OA 
HETATM   24  O   UNL     1      -8.124   7.507  67.325  1.00  0.00    -0.112 OA 
ENDBRANCH  19  20
ENDBRANCH  16  19
ENDBRANCH  13  16
ENDBRANCH  10  13
ENDBRANCH   7  10
ENDBRANCH   6   7
ENDBRANCH   3   6
TORSDOF 7
ENDMDL
MODEL      194
REMARK 921   NORMALIZED FREE ENERGY PREDICTED BY IDOCK:   -3.80 KCAL/MOL
REMARK 922        TOTAL FREE ENERGY PREDICTED BY IDOCK:   -6.60 KCAL/MOL
REMARK 923 INTER-LIGAND FREE ENERGY PREDICTED BY IDOCK:   -5.99 KCAL/MOL
REMARK 924 INTRA-LIGAND FREE ENERGY PREDICTED BY IDOCK:   -0.60 KCAL/MOL
REMARK 927      BINDING AFFINITY PREDICTED BY RF-SCORE:    0.00 PKD
ROOT
HETATM    1  C   UNL     1     -12.081  13.116  63.300  1.00  0.00    -0.386 C  
HETATM    2  S   UNL     1     -11.478  12.287  64.748  1.00  0.00    -0.330 S  
HETATM    3  O   UNL     1     -10.367  13.386  65.243  1.00  0.00    -0.303 OA 
HETATM    4  O   UNL     1     -12.542  12.243  65.728  1.00  0.00    -0.455 OA 
HETATM    5  O   UNL     1     -10.769  11.093  64.333  1.00  0.00    -0.350 OA 
ENDROOT
BRANCH   3   6
HETATM    6  C   UNL     1      -9.683  13.022  66.447  1.00  0.00    -0.268 C  
BRANCH   6   7
HETATM    7  C   UNL     1      -8.912  14.200  67.050  1.00  0.00    -0.237 C  
HETATM    8  O   UNL     1      -7.500  13.912  67.027  1.00  0.00    -0.337 OA 
HETATM    9  H   UNL     1      -7.021  14.643  67.401  1.00  0.00     0.000 HD 
BRANCH   7  10
HETATM   10  C   UNL     1      -9.113  15.500  66.241  1.00  0.00    -0.334 C  
HETATM   11  H   UNL     1     -10.585  16.783  65.956  1.00  0.00     0.000 HD 
HETATM   12  O   UNL     1     -10.461  15.982  66.453  1.00  0.00    -0.301 OA 
BRANCH  10  13
HETATM   13  C   UNL     1      -8.169  16.669  66.585  1.00  0.00    -0.266 C  
HETATM   14  O   UNL     1      -7.617  16.387  67.888  1.00  0.00    -0.142 OA 
HETATM   15  H   UNL     1      -7.035  17.107  68.100  1.00  0.00     0.000 HD 
BRANCH  13  16
HETATM   16  C   UNL     1      -8.813  18.066  66.590  1.00  0.00    -0.266 C  
HETATM   17  H   UNL     1      -8.540  19.744  65.616  1.00  0.00     0.000 HD 
HETATM   18  O   UNL     1      -8.142  18.882  65.613  1.00  0.00    -0.419 OA 
BRANCH  16  19
HETATM   19  C   UNL     1      -8.763  18.748  67.962  1.00  0.00    -0.297 C  
BRANCH  19  20
HETATM   20  O   UNL     1      -7.824  19.829  67.887  1.00  0.00    -0.283 OA 
HETATM   21  S   UNL     1      -6.378  19.587  68.592  1.00  0.00    -0.265 S  
HETATM   22  C   UNL     1      -5.660  21.164  68.195  1.00  0.00    -0.327 C  
HETATM   23  O   UNL     1      -5.677  18.554  67.858  1.00  0.00    -0.166 OA 
HETATM   24  O   UNL     1      -6.577  19.516  70.024  1.00  0.00    -0.263 OA 
ENDBRANCH  19  20
ENDBRANCH  16  19
ENDBRANCH  13  16
ENDBRANCH  10  13
ENDBRANCH   7  10
ENDBRANCH   6   7
ENDBRANCH   3   6
TORSDOF 7
ENDMDL
MODEL      195
REMARK 921   NORMALIZED FREE ENERGY PREDICTED BY IDOCK:   -3.79 KCAL/MOL
REMARK 922        TOTAL FREE ENERGY PREDICTED BY IDOCK:   -6.59 KCAL/MOL
REMARK 923 INTER-LIGAND FREE ENERGY PREDICTED BY IDOCK:   -5.47 KCAL/MOL
REMARK 924 INTRA-LIGAND FREE ENERGY PREDICTED BY IDOCK:   -1.12 KCAL/MOL
REMARK 927      BINDING AFFINITY PREDICTED BY RF-SCORE:    0.00 PKD
ROOT
HETATM    1  C   UNL     1     -10.311   5.971  66.547  1.00  0.00    -0.149 C  
HETATM    2  S   UNL     1      -9.906   6.690  68.119  1.00  0.00    -0.136 S  
HETATM    3  O   UNL     1      -9.951   8.276  67.707  1.00  0.00    -0.166 OA 
HETATM    4  O   UNL     1     -10.994   6.429  69.037  1.00  0.00    -0.289 OA 
HETATM    5  O   UNL     1      -8.535   6.351  68.439  1.00  0.00    -0.115 OA 
ENDROOT
BRANCH   3   6
HETATM    6  C   UNL     1      -9.679   9.168  68.792  1.00  0.00    -0.162 C  
BRANCH   6   7
HETATM    7  C   UNL     1     -10.963   9.704  69.433  1.00  0.00    -0.190 C  
HETATM    8  O   UNL     1     -11.293   8.906  70.588  1.00  0.00    -0.261 OA 
HETATM    9  H   UNL     1     -12.089   9.239  70.985  1.00  0.00     0.000 HD 
BRANCH   7  10
HETATM   10  C   UNL     1     -10.801  11.157  69.929  1.00  0.00    -0.006 C  
HETATM   11  H   UNL     1      -9.965  12.808  69.244  1.00  0.00     0.000 HD 
HETATM   12  O   UNL     1     -10.064  11.913  68.939  1.00  0.00    -0.158 OA 
BRANCH  10  13
HETATM   13  C   UNL     1     -12.105  11.935  70.195  1.00  0.00    -0.302 C  
HETATM   14  O   UNL     1     -11.826  13.322  69.911  1.00  0.00    -0.312 OA 
HETATM   15  H   UNL     1     -12.629  13.801  70.076  1.00  0.00     0.000 HD 
BRANCH  13  16
HETATM   16  C   UNL     1     -12.678  11.807  71.617  1.00  0.00    -0.251 C  
HETATM   17  H   UNL     1     -13.693  10.453  72.607  1.00  0.00     0.000 HD 
HETATM   18  O   UNL     1     -13.339  10.533  71.729  1.00  0.00    -0.394 OA 
BRANCH  16  19
HETATM   19  C   UNL     1     -13.653  12.933  71.979  1.00  0.00    -0.408 C  
BRANCH  19  20
HETATM   20  O   UNL     1     -13.029  13.760  72.971  1.00  0.00    -0.362 OA 
HETATM   21  S   UNL     1     -13.011  15.359  72.678  1.00  0.00    -0.474 S  
HETATM   22  C   UNL     1     -12.173  15.857  74.164  1.00  0.00    -0.534 C  
HETATM   23  O   UNL     1     -14.374  15.849  72.720  1.00  0.00    -0.454 OA 
HETATM   24  O   UNL     1     -12.138  15.605  71.549  1.00  0.00    -0.347 OA 
ENDBRANCH  19  20
ENDBRANCH  16  19
ENDBRANCH  13  16
ENDBRANCH  10  13
ENDBRANCH   7  10
ENDBRANCH   6   7
ENDBRANCH   3   6
TORSDOF 7
ENDMDL
MODEL      196
REMARK 921   NORMALIZED FREE ENERGY PREDICTED BY IDOCK:   -3.79 KCAL/MOL
REMARK 922        TOTAL FREE ENERGY PREDICTED BY IDOCK:   -6.59 KCAL/MOL
REMARK 923 INTER-LIGAND FREE ENERGY PREDICTED BY IDOCK:   -5.65 KCAL/MOL
REMARK 924 INTRA-LIGAND FREE ENERGY PREDICTED BY IDOCK:   -0.94 KCAL/MOL
REMARK 927      BINDING AFFINITY PREDICTED BY RF-SCORE:    0.00 PKD
ROOT
HETATM    1  C   UNL     1     -11.311  15.481  64.463  1.00  0.00    -0.314 C  
HETATM    2  S   UNL     1     -12.126  13.912  64.624  1.00  0.00    -0.437 S  
HETATM    3  O   UNL     1     -11.081  13.171  65.647  1.00  0.00    -0.275 OA 
HETATM    4  O   UNL     1     -13.377  14.115  65.323  1.00  0.00    -0.715 OA 
HETATM    5  O   UNL     1     -12.063  13.229  63.348  1.00  0.00    -0.561 OA 
ENDROOT
BRANCH   3   6
HETATM    6  C   UNL     1     -11.467  11.842  66.012  1.00  0.00    -0.215 C  
BRANCH   6   7
HETATM    7  C   UNL     1     -11.089  11.509  67.458  1.00  0.00    -0.272 C  
HETATM    8  O   UNL     1     -12.206  10.877  68.114  1.00  0.00    -0.781 OA 
HETATM    9  H   UNL     1     -11.971  10.671  69.011  1.00  0.00     0.000 HD 
BRANCH   7  10
HETATM   10  C   UNL     1      -9.909  10.517  67.536  1.00  0.00    -0.168 C  
HETATM   11  H   UNL     1      -9.060   9.426  68.944  1.00  0.00     0.000 HD 
HETATM   12  O   UNL     1      -9.787  10.036  68.896  1.00  0.00    -0.168 OA 
BRANCH  10  13
HETATM   13  C   UNL     1     -10.006   9.270  66.636  1.00  0.00    -0.264 C  
HETATM   14  O   UNL     1     -10.990   8.401  67.236  1.00  0.00    -0.460 OA 
HETATM   15  H   UNL     1     -11.051   7.632  66.682  1.00  0.00     0.000 HD 
BRANCH  13  16
HETATM   16  C   UNL     1      -8.694   8.493  66.429  1.00  0.00    -0.133 C  
HETATM   17  H   UNL     1      -7.705   7.790  64.890  1.00  0.00     0.000 HD 
HETATM   18  O   UNL     1      -8.515   8.269  65.018  1.00  0.00    -0.166 OA 
BRANCH  16  19
HETATM   19  C   UNL     1      -8.658   7.157  67.178  1.00  0.00    -0.121 C  
BRANCH  19  20
HETATM   20  O   UNL     1      -9.222   6.152  66.323  1.00  0.00    -0.153 OA 
HETATM   21  S   UNL     1      -8.334   4.809  66.096  1.00  0.00    -0.111 S  
HETATM   22  C   UNL     1      -9.469   3.960  65.024  1.00  0.00    -0.170 C  
HETATM   23  O   UNL     1      -8.251   4.094  67.353  1.00  0.00    -0.098 OA 
HETATM   24  O   UNL     1      -7.155   5.167  65.333  1.00  0.00    -0.064 OA 
ENDBRANCH  19  20
ENDBRANCH  16  19
ENDBRANCH  13  16
ENDBRANCH  10  13
ENDBRANCH   7  10
ENDBRANCH   6   7
ENDBRANCH   3   6
TORSDOF 7
ENDMDL
MODEL      197
REMARK 921   NORMALIZED FREE ENERGY PREDICTED BY IDOCK:   -3.78 KCAL/MOL
REMARK 922        TOTAL FREE ENERGY PREDICTED BY IDOCK:   -6.57 KCAL/MOL
REMARK 923 INTER-LIGAND FREE ENERGY PREDICTED BY IDOCK:   -5.75 KCAL/MOL
REMARK 924 INTRA-LIGAND FREE ENERGY PREDICTED BY IDOCK:   -0.82 KCAL/MOL
REMARK 927      BINDING AFFINITY PREDICTED BY RF-SCORE:    0.00 PKD
ROOT
HETATM    1  C   UNL     1      -8.496   7.510  67.130  1.00  0.00    -0.121 C  
HETATM    2  S   UNL     1      -9.982   8.455  66.912  1.00  0.00    -0.297 S  
HETATM    3  O   UNL     1     -10.005   9.253  68.344  1.00  0.00    -0.164 OA 
HETATM    4  O   UNL     1      -9.761   9.421  65.858  1.00  0.00    -0.253 OA 
HETATM    5  O   UNL     1     -11.108   7.543  66.892  1.00  0.00    -0.184 OA 
ENDROOT
BRANCH   3   6
HETATM    6  C   UNL     1     -11.108  10.152  68.493  1.00  0.00    -0.214 C  
BRANCH   6   7
HETATM    7  C   UNL     1     -10.658  11.548  68.935  1.00  0.00    -0.204 C  
HETATM    8  O   UNL     1      -9.218  11.599  68.975  1.00  0.00    -0.393 OA 
HETATM    9  H   UNL     1      -8.939  12.465  69.249  1.00  0.00     0.000 HD 
BRANCH   7  10
HETATM   10  C   UNL     1     -11.114  12.645  67.948  1.00  0.00    -0.247 C  
HETATM   11  H   UNL     1     -12.197  12.713  66.301  1.00  0.00     0.000 HD 
HETATM   12  O   UNL     1     -11.917  12.038  66.908  1.00  0.00    -0.612 OA 
BRANCH  10  13
HETATM   13  C   UNL     1     -11.957  13.788  68.543  1.00  0.00    -0.367 C  
HETATM   14  O   UNL     1     -12.645  14.415  67.440  1.00  0.00    -0.532 OA 
HETATM   15  H   UNL     1     -13.165  15.120  67.807  1.00  0.00     0.000 HD 
BRANCH  13  16
HETATM   16  C   UNL     1     -11.174  14.853  69.331  1.00  0.00    -0.283 C  
HETATM   17  H   UNL     1     -10.938  15.312  71.222  1.00  0.00     0.000 HD 
HETATM   18  O   UNL     1     -11.422  14.655  70.736  1.00  0.00    -0.259 OA 
BRANCH  16  19
HETATM   19  C   UNL     1     -11.539  16.288  68.935  1.00  0.00    -0.230 C  
BRANCH  19  20
HETATM   20  O   UNL     1     -10.825  16.614  67.735  1.00  0.00    -0.340 OA 
HETATM   21  S   UNL     1      -9.667  17.749  67.863  1.00  0.00    -0.307 S  
HETATM   22  C   UNL     1      -9.139  17.732  66.166  1.00  0.00    -0.102 C  
HETATM   23  O   UNL     1      -8.601  17.225  68.692  1.00  0.00    -0.269 OA 
HETATM   24  O   UNL     1     -10.305  19.020  68.138  1.00  0.00    -0.376 OA 
ENDBRANCH  19  20
ENDBRANCH  16  19
ENDBRANCH  13  16
ENDBRANCH  10  13
ENDBRANCH   7  10
ENDBRANCH   6   7
ENDBRANCH   3   6
TORSDOF 7
ENDMDL
MODEL      198
REMARK 921   NORMALIZED FREE ENERGY PREDICTED BY IDOCK:   -3.78 KCAL/MOL
REMARK 922        TOTAL FREE ENERGY PREDICTED BY IDOCK:   -6.57 KCAL/MOL
REMARK 923 INTER-LIGAND FREE ENERGY PREDICTED BY IDOCK:   -6.23 KCAL/MOL
REMARK 924 INTRA-LIGAND FREE ENERGY PREDICTED BY IDOCK:   -0.34 KCAL/MOL
REMARK 927      BINDING AFFINITY PREDICTED BY RF-SCORE:    0.00 PKD
ROOT
HETATM    1  C   UNL     1      -6.679  20.234  68.101  1.00  0.00    -0.295 C  
HETATM    2  S   UNL     1      -7.432  18.660  68.425  1.00  0.00    -0.306 S  
HETATM    3  O   UNL     1      -7.537  18.092  66.891  1.00  0.00    -0.205 OA 
HETATM    4  O   UNL     1      -6.485  17.839  69.149  1.00  0.00    -0.222 OA 
HETATM    5  O   UNL     1      -8.779  18.886  68.910  1.00  0.00    -0.314 OA 
ENDROOT
BRANCH   3   6
HETATM    6  C   UNL     1      -8.104  16.782  66.792  1.00  0.00    -0.238 C  
BRANCH   6   7
HETATM    7  C   UNL     1      -9.633  16.807  66.878  1.00  0.00    -0.245 C  
HETATM    8  O   UNL     1     -10.165  17.540  65.757  1.00  0.00    -0.561 OA 
HETATM    9  H   UNL     1     -11.114  17.555  65.810  1.00  0.00     0.000 HD 
BRANCH   7  10
HETATM   10  C   UNL     1     -10.241  15.390  66.812  1.00  0.00    -0.271 C  
HETATM   11  H   UNL     1      -9.589  13.549  67.090  1.00  0.00     0.000 HD 
HETATM   12  O   UNL     1      -9.214  14.421  67.131  1.00  0.00    -0.203 OA 
BRANCH  10  13
HETATM   13  C   UNL     1     -11.421  15.110  67.763  1.00  0.00    -0.318 C  
HETATM   14  O   UNL     1     -10.866  14.993  69.090  1.00  0.00    -0.232 OA 
HETATM   15  H   UNL     1     -11.593  14.821  69.676  1.00  0.00     0.000 HD 
BRANCH  13  16
HETATM   16  C   UNL     1     -12.252  13.856  67.441  1.00  0.00    -0.256 C  
HETATM   17  H   UNL     1     -12.250  11.982  68.016  1.00  0.00     0.000 HD 
HETATM   18  O   UNL     1     -11.736  12.756  68.214  1.00  0.00    -0.309 OA 
BRANCH  16  19
HETATM   19  C   UNL     1     -12.249  13.494  65.952  1.00  0.00    -0.460 C  
BRANCH  19  20
HETATM   20  O   UNL     1     -11.421  12.336  65.777  1.00  0.00    -0.338 OA 
HETATM   21  S   UNL     1     -10.845  12.073  64.279  1.00  0.00    -0.373 S  
HETATM   22  C   UNL     1      -9.925  10.596  64.641  1.00  0.00    -0.337 C  
HETATM   23  O   UNL     1      -9.917  13.136  63.950  1.00  0.00    -0.270 OA 
HETATM   24  O   UNL     1     -11.958  11.728  63.419  1.00  0.00    -0.474 OA 
ENDBRANCH  19  20
ENDBRANCH  16  19
ENDBRANCH  13  16
ENDBRANCH  10  13
ENDBRANCH   7  10
ENDBRANCH   6   7
ENDBRANCH   3   6
TORSDOF 7
ENDMDL
MODEL      199
REMARK 921   NORMALIZED FREE ENERGY PREDICTED BY IDOCK:   -3.76 KCAL/MOL
REMARK 922        TOTAL FREE ENERGY PREDICTED BY IDOCK:   -6.55 KCAL/MOL
REMARK 923 INTER-LIGAND FREE ENERGY PREDICTED BY IDOCK:   -5.81 KCAL/MOL
REMARK 924 INTRA-LIGAND FREE ENERGY PREDICTED BY IDOCK:   -0.74 KCAL/MOL
REMARK 927      BINDING AFFINITY PREDICTED BY RF-SCORE:    0.00 PKD
ROOT
HETATM    1  C   UNL     1      -9.664  12.072  68.015  1.00  0.00    -0.198 C  
HETATM    2  S   UNL     1     -11.189  11.172  68.148  1.00  0.00    -0.316 S  
HETATM    3  O   UNL     1     -11.431  11.293  69.764  1.00  0.00    -0.274 OA 
HETATM    4  O   UNL     1     -12.226  11.925  67.475  1.00  0.00    -0.510 OA 
HETATM    5  O   UNL     1     -10.929   9.781  67.839  1.00  0.00    -0.262 OA 
ENDROOT
BRANCH   3   6
HETATM    6  C   UNL     1     -12.634  10.667  70.222  1.00  0.00    -0.260 C  
BRANCH   6   7
HETATM    7  C   UNL     1     -12.664  10.523  71.746  1.00  0.00    -0.402 C  
HETATM    8  O   UNL     1     -13.675  11.393  72.292  1.00  0.00    -0.444 OA 
HETATM    9  H   UNL     1     -13.694  11.303  73.238  1.00  0.00     0.000 HD 
BRANCH   7  10
HETATM   10  C   UNL     1     -13.028   9.088  72.186  1.00  0.00    -0.424 C  
HETATM   11  H   UNL     1     -14.604   8.200  72.975  1.00  0.00     0.000 HD 
HETATM   12  O   UNL     1     -14.380   9.083  72.704  1.00  0.00    -0.603 OA 
BRANCH  10  13
HETATM   13  C   UNL     1     -12.972   8.005  71.092  1.00  0.00    -0.080 C  
HETATM   14  O   UNL     1     -14.236   7.310  71.130  1.00  0.00    -0.572 OA 
HETATM   15  H   UNL     1     -14.202   6.642  70.456  1.00  0.00     0.000 HD 
BRANCH  13  16
HETATM   16  C   UNL     1     -11.823   6.989  71.218  1.00  0.00    -0.330 C  
HETATM   17  H   UNL     1     -10.845   6.149  72.694  1.00  0.00     0.000 HD 
HETATM   18  O   UNL     1     -11.553   6.776  72.616  1.00  0.00    -0.232 OA 
BRANCH  16  19
HETATM   19  C   UNL     1     -10.543   7.433  70.502  1.00  0.00    -0.224 C  
BRANCH  19  20
HETATM   20  O   UNL     1      -9.467   6.601  70.956  1.00  0.00    -0.164 OA 
HETATM   21  S   UNL     1      -8.849   5.556  69.874  1.00  0.00    -0.128 S  
HETATM   22  C   UNL     1      -7.609   4.840  70.927  1.00  0.00    -0.069 C  
HETATM   23  O   UNL     1      -8.196   6.312  68.826  1.00  0.00    -0.117 OA 
HETATM   24  O   UNL     1      -9.852   4.550  69.589  1.00  0.00    -0.205 OA 
ENDBRANCH  19  20
ENDBRANCH  16  19
ENDBRANCH  13  16
ENDBRANCH  10  13
ENDBRANCH   7  10
ENDBRANCH   6   7
ENDBRANCH   3   6
TORSDOF 7
ENDMDL
MODEL      200
REMARK 921   NORMALIZED FREE ENERGY PREDICTED BY IDOCK:   -3.76 KCAL/MOL
REMARK 922        TOTAL FREE ENERGY PREDICTED BY IDOCK:   -6.55 KCAL/MOL
REMARK 923 INTER-LIGAND FREE ENERGY PREDICTED BY IDOCK:   -5.67 KCAL/MOL
REMARK 924 INTRA-LIGAND FREE ENERGY PREDICTED BY IDOCK:   -0.88 KCAL/MOL
REMARK 927      BINDING AFFINITY PREDICTED BY RF-SCORE:    0.00 PKD
ROOT
HETATM    1  C   UNL     1     -11.832   7.273  71.761  1.00  0.00    -0.295 C  
HETATM    2  S   UNL     1     -11.074   8.867  71.578  1.00  0.00    -0.354 S  
HETATM    3  O   UNL     1     -10.698   8.803  69.983  1.00  0.00    -0.224 OA 
HETATM    4  O   UNL     1     -12.088   9.882  71.765  1.00  0.00    -0.389 OA 
HETATM    5  O   UNL     1      -9.834   8.875  72.328  1.00  0.00    -0.284 OA 
ENDROOT
BRANCH   3   6
HETATM    6  C   UNL     1     -10.066   9.987  69.485  1.00  0.00    -0.227 C  
BRANCH   6   7
HETATM    7  C   UNL     1     -10.275  10.161  67.978  1.00  0.00    -0.173 C  
HETATM    8  O   UNL     1     -11.142   9.119  67.489  1.00  0.00    -0.455 OA 
HETATM    9  H   UNL     1     -11.271   9.227  66.554  1.00  0.00     0.000 HD 
BRANCH   7  10
HETATM   10  C   UNL     1     -10.959  11.503  67.638  1.00  0.00    -0.242 C  
HETATM   11  H   UNL     1     -12.654  12.395  68.113  1.00  0.00     0.000 HD 
HETATM   12  O   UNL     1     -12.233  11.569  68.322  1.00  0.00    -0.561 OA 
BRANCH  10  13
HETATM   13  C   UNL     1     -10.186  12.779  68.024  1.00  0.00    -0.228 C  
HETATM   14  O   UNL     1     -11.064  13.559  68.862  1.00  0.00    -0.252 OA 
HETATM   15  H   UNL     1     -10.588  14.346  69.100  1.00  0.00     0.000 HD 
BRANCH  13  16
HETATM   16  C   UNL     1      -9.695  13.642  66.849  1.00  0.00    -0.262 C  
HETATM   17  H   UNL     1      -7.995  14.459  66.318  1.00  0.00     0.000 HD 
HETATM   18  O   UNL     1      -8.297  13.927  67.044  1.00  0.00    -0.178 OA 
BRANCH  16  19
HETATM   19  C   UNL     1     -10.477  14.952  66.694  1.00  0.00    -0.292 C  
BRANCH  19  20
HETATM   20  O   UNL     1      -9.582  16.039  66.968  1.00  0.00    -0.215 OA 
HETATM   21  S   UNL     1      -9.933  16.962  68.260  1.00  0.00    -0.299 S  
HETATM   22  C   UNL     1      -8.556  18.078  68.128  1.00  0.00    -0.273 C  
HETATM   23  O   UNL     1      -9.774  16.159  69.455  1.00  0.00    -0.244 OA 
HETATM   24  O   UNL     1     -11.151  17.693  67.979  1.00  0.00    -0.219 OA 
ENDBRANCH  19  20
ENDBRANCH  16  19
ENDBRANCH  13  16
ENDBRANCH  10  13
ENDBRANCH   7  10
ENDBRANCH   6   7
ENDBRANCH   3   6
TORSDOF 7
ENDMDL
MODEL      201
REMARK 921   NORMALIZED FREE ENERGY PREDICTED BY IDOCK:   -3.76 KCAL/MOL
REMARK 922        TOTAL FREE ENERGY PREDICTED BY IDOCK:   -6.54 KCAL/MOL
REMARK 923 INTER-LIGAND FREE ENERGY PREDICTED BY IDOCK:   -5.54 KCAL/MOL
REMARK 924 INTRA-LIGAND FREE ENERGY PREDICTED BY IDOCK:   -1.00 KCAL/MOL
REMARK 927      BINDING AFFINITY PREDICTED BY RF-SCORE:    0.00 PKD
ROOT
HETATM    1  C   UNL     1     -13.185  15.791  73.587  1.00  0.00    -0.390 C  
HETATM    2  S   UNL     1     -13.393  14.709  72.196  1.00  0.00    -0.417 S  
HETATM    3  O   UNL     1     -11.939  14.924  71.470  1.00  0.00    -0.317 OA 
HETATM    4  O   UNL     1     -13.462  13.347  72.680  1.00  0.00    -0.568 OA 
HETATM    5  O   UNL     1     -14.410  15.267  71.328  1.00  0.00    -0.481 OA 
ENDROOT
BRANCH   3   6
HETATM    6  C   UNL     1     -11.761  14.148  70.281  1.00  0.00    -0.258 C  
BRANCH   6   7
HETATM    7  C   UNL     1     -11.731  15.021  69.023  1.00  0.00    -0.325 C  
HETATM    8  O   UNL     1     -12.336  16.298  69.309  1.00  0.00    -0.302 OA 
HETATM    9  H   UNL     1     -12.317  16.839  68.528  1.00  0.00     0.000 HD 
BRANCH   7  10
HETATM   10  C   UNL     1     -10.289  15.309  68.550  1.00  0.00    -0.231 C  
HETATM   11  H   UNL     1      -8.881  16.616  68.998  1.00  0.00     0.000 HD 
HETATM   12  O   UNL     1      -9.768  16.439  69.289  1.00  0.00    -0.256 OA 
BRANCH  10  13
HETATM   13  C   UNL     1      -9.274  14.164  68.725  1.00  0.00    -0.080 C  
HETATM   14  O   UNL     1      -8.127  14.724  69.398  1.00  0.00    -0.323 OA 
HETATM   15  H   UNL     1      -7.501  14.018  69.506  1.00  0.00     0.000 HD 
BRANCH  13  16
HETATM   16  C   UNL     1      -8.820  13.472  67.427  1.00  0.00    -0.221 C  
HETATM   17  H   UNL     1      -8.828  13.918  65.519  1.00  0.00     0.000 HD 
HETATM   18  O   UNL     1      -9.109  14.345  66.319  1.00  0.00    -0.213 OA 
BRANCH  16  19
HETATM   19  C   UNL     1      -9.486  12.109  67.205  1.00  0.00    -0.190 C  
BRANCH  19  20
HETATM   20  O   UNL     1      -9.983  11.645  68.467  1.00  0.00    -0.193 OA 
HETATM   21  S   UNL     1      -9.745  10.073  68.809  1.00  0.00    -0.180 S  
HETATM   22  C   UNL     1     -10.510  10.067  70.413  1.00  0.00    -0.240 C  
HETATM   23  O   UNL     1      -8.323   9.847  68.967  1.00  0.00    -0.114 OA 
HETATM   24  O   UNL     1     -10.556   9.284  67.906  1.00  0.00    -0.244 OA 
ENDBRANCH  19  20
ENDBRANCH  16  19
ENDBRANCH  13  16
ENDBRANCH  10  13
ENDBRANCH   7  10
ENDBRANCH   6   7
ENDBRANCH   3   6
TORSDOF 7
ENDMDL
MODEL      202
REMARK 921   NORMALIZED FREE ENERGY PREDICTED BY IDOCK:   -3.76 KCAL/MOL
REMARK 922        TOTAL FREE ENERGY PREDICTED BY IDOCK:   -6.54 KCAL/MOL
REMARK 923 INTER-LIGAND FREE ENERGY PREDICTED BY IDOCK:   -5.67 KCAL/MOL
REMARK 924 INTRA-LIGAND FREE ENERGY PREDICTED BY IDOCK:   -0.87 KCAL/MOL
REMARK 927      BINDING AFFINITY PREDICTED BY RF-SCORE:    0.00 PKD
ROOT
HETATM    1  C   UNL     1      -9.592   5.155  71.949  1.00  0.00    -0.150 C  
HETATM    2  S   UNL     1     -11.020   6.081  71.446  1.00  0.00    -0.266 S  
HETATM    3  O   UNL     1     -10.474   7.597  71.744  1.00  0.00    -0.202 OA 
HETATM    4  O   UNL     1     -11.184   5.931  70.016  1.00  0.00    -0.364 OA 
HETATM    5  O   UNL     1     -12.097   5.804  72.374  1.00  0.00    -0.249 OA 
ENDROOT
BRANCH   3   6
HETATM    6  C   UNL     1     -11.410   8.629  71.416  1.00  0.00    -0.284 C  
BRANCH   6   7
HETATM    7  C   UNL     1     -10.761   9.762  70.615  1.00  0.00    -0.326 C  
HETATM    8  O   UNL     1     -10.087   9.214  69.466  1.00  0.00    -0.184 OA 
HETATM    9  H   UNL     1      -9.685   9.918  68.969  1.00  0.00     0.000 HD 
BRANCH   7  10
HETATM   10  C   UNL     1     -11.805  10.767  70.081  1.00  0.00    -0.343 C  
HETATM   11  H   UNL     1     -13.170  11.952  70.870  1.00  0.00     0.000 HD 
HETATM   12  O   UNL     1     -12.528  11.334  71.199  1.00  0.00    -0.379 OA 
BRANCH  10  13
HETATM   13  C   UNL     1     -11.255  11.952  69.266  1.00  0.00    -0.242 C  
HETATM   14  O   UNL     1     -11.503  13.142  70.043  1.00  0.00    -0.499 OA 
HETATM   15  H   UNL     1     -11.164  13.873  69.541  1.00  0.00     0.000 HD 
BRANCH  13  16
HETATM   16  C   UNL     1     -11.849  12.125  67.857  1.00  0.00    -0.269 C  
HETATM   17  H   UNL     1     -11.371  11.545  66.047  1.00  0.00     0.000 HD 
HETATM   18  O   UNL     1     -11.003  11.438  66.916  1.00  0.00    -0.275 OA 
BRANCH  16  19
HETATM   19  C   UNL     1     -12.004  13.593  67.443  1.00  0.00    -0.376 C  
BRANCH  19  20
HETATM   20  O   UNL     1     -10.759  14.031  66.881  1.00  0.00    -0.282 OA 
HETATM   21  S   UNL     1     -10.072  15.337  67.565  1.00  0.00    -0.233 S  
HETATM   22  C   UNL     1      -8.629  15.407  66.530  1.00  0.00    -0.259 C  
HETATM   23  O   UNL     1      -9.667  14.990  68.912  1.00  0.00    -0.210 OA 
HETATM   24  O   UNL     1     -10.903  16.488  67.282  1.00  0.00    -0.280 OA 
ENDBRANCH  19  20
ENDBRANCH  16  19
ENDBRANCH  13  16
ENDBRANCH  10  13
ENDBRANCH   7  10
ENDBRANCH   6   7
ENDBRANCH   3   6
TORSDOF 7
ENDMDL
MODEL      203
REMARK 921   NORMALIZED FREE ENERGY PREDICTED BY IDOCK:   -3.74 KCAL/MOL
REMARK 922        TOTAL FREE ENERGY PREDICTED BY IDOCK:   -6.52 KCAL/MOL
REMARK 923 INTER-LIGAND FREE ENERGY PREDICTED BY IDOCK:   -5.46 KCAL/MOL
REMARK 924 INTRA-LIGAND FREE ENERGY PREDICTED BY IDOCK:   -1.06 KCAL/MOL
REMARK 927      BINDING AFFINITY PREDICTED BY RF-SCORE:    0.00 PKD
ROOT
HETATM    1  C   UNL     1      -8.757  17.994  66.989  1.00  0.00    -0.247 C  
HETATM    2  S   UNL     1      -9.571  16.544  66.370  1.00  0.00    -0.304 S  
HETATM    3  O   UNL     1     -10.498  16.180  67.672  1.00  0.00    -0.278 OA 
HETATM    4  O   UNL     1     -10.445  16.936  65.285  1.00  0.00    -0.638 OA 
HETATM    5  O   UNL     1      -8.585  15.493  66.218  1.00  0.00    -0.291 OA 
ENDROOT
BRANCH   3   6
HETATM    6  C   UNL     1     -11.328  15.028  67.494  1.00  0.00    -0.333 C  
BRANCH   6   7
HETATM    7  C   UNL     1     -10.836  13.832  68.313  1.00  0.00    -0.250 C  
HETATM    8  O   UNL     1     -10.968  14.124  69.719  1.00  0.00    -0.432 OA 
HETATM    9  H   UNL     1     -10.663  13.382  70.227  1.00  0.00     0.000 HD 
BRANCH   7  10
HETATM   10  C   UNL     1     -11.672  12.561  68.044  1.00  0.00    -0.355 C  
HETATM   11  H   UNL     1     -12.621  11.785  66.498  1.00  0.00     0.000 HD 
HETATM   12  O   UNL     1     -12.106  12.567  66.664  1.00  0.00    -0.562 OA 
BRANCH  10  13
HETATM   13  C   UNL     1     -10.959  11.215  68.275  1.00  0.00    -0.226 C  
HETATM   14  O   UNL     1     -10.302  11.307  69.557  1.00  0.00    -0.437 OA 
HETATM   15  H   UNL     1      -9.862  10.478  69.699  1.00  0.00     0.000 HD 
BRANCH  13  16
HETATM   16  C   UNL     1      -9.933  10.812  67.201  1.00  0.00    -0.194 C  
HETATM   17  H   UNL     1      -9.835   9.455  65.790  1.00  0.00     0.000 HD 
HETATM   18  O   UNL     1     -10.468   9.703  66.453  1.00  0.00    -0.202 OA 
BRANCH  16  19
HETATM   19  C   UNL     1      -8.565  10.438  67.782  1.00  0.00    -0.122 C  
BRANCH  19  20
HETATM   20  O   UNL     1      -7.927  11.642  68.227  1.00  0.00    -0.128 OA 
HETATM   21  S   UNL     1      -6.522  11.467  69.028  1.00  0.00    -0.084 S  
HETATM   22  C   UNL     1      -6.199  13.192  69.307  1.00  0.00    -0.102 C  
HETATM   23  O   UNL     1      -5.531  10.946  68.110  1.00  0.00    -0.040 OA 
HETATM   24  O   UNL     1      -6.801  10.836  70.302  1.00  0.00    -0.234 OA 
ENDBRANCH  19  20
ENDBRANCH  16  19
ENDBRANCH  13  16
ENDBRANCH  10  13
ENDBRANCH   7  10
ENDBRANCH   6   7
ENDBRANCH   3   6
TORSDOF 7
ENDMDL
MODEL      204
REMARK 921   NORMALIZED FREE ENERGY PREDICTED BY IDOCK:   -3.74 KCAL/MOL
REMARK 922        TOTAL FREE ENERGY PREDICTED BY IDOCK:   -6.52 KCAL/MOL
REMARK 923 INTER-LIGAND FREE ENERGY PREDICTED BY IDOCK:   -5.83 KCAL/MOL
REMARK 924 INTRA-LIGAND FREE ENERGY PREDICTED BY IDOCK:   -0.69 KCAL/MOL
REMARK 927      BINDING AFFINITY PREDICTED BY RF-SCORE:    0.00 PKD
ROOT
HETATM    1  C   UNL     1      -7.864  17.181  68.129  1.00  0.00    -0.206 C  
HETATM    2  S   UNL     1      -9.292  17.115  67.078  1.00  0.00    -0.250 S  
HETATM    3  O   UNL     1      -9.613  15.510  67.162  1.00  0.00    -0.217 OA 
HETATM    4  O   UNL     1     -10.372  17.829  67.725  1.00  0.00    -0.346 OA 
HETATM    5  O   UNL     1      -8.879  17.417  65.722  1.00  0.00    -0.522 OA 
ENDROOT
BRANCH   3   6
HETATM    6  C   UNL     1     -10.763  15.105  66.412  1.00  0.00    -0.317 C  
BRANCH   6   7
HETATM    7  C   UNL     1     -11.786  14.368  67.280  1.00  0.00    -0.405 C  
HETATM    8  O   UNL     1     -12.877  13.911  66.456  1.00  0.00    -0.403 OA 
HETATM    9  H   UNL     1     -13.512  13.453  66.995  1.00  0.00     0.000 HD 
BRANCH   7  10
HETATM   10  C   UNL     1     -11.183  13.115  67.952  1.00  0.00    -0.270 C  
HETATM   11  H   UNL     1     -11.356  12.217  69.700  1.00  0.00     0.000 HD 
HETATM   12  O   UNL     1     -11.727  12.988  69.287  1.00  0.00    -0.286 OA 
BRANCH  10  13
HETATM   13  C   UNL     1     -11.439  11.772  67.242  1.00  0.00    -0.303 C  
HETATM   14  O   UNL     1     -12.259  10.983  68.130  1.00  0.00    -0.765 OA 
HETATM   15  H   UNL     1     -12.417  10.155  67.693  1.00  0.00     0.000 HD 
BRANCH  13  16
HETATM   16  C   UNL     1     -10.182  10.971  66.857  1.00  0.00    -0.222 C  
HETATM   17  H   UNL     1      -8.251  11.308  66.839  1.00  0.00     0.000 HD 
HETATM   18  O   UNL     1      -9.027  11.802  67.076  1.00  0.00    -0.174 OA 
BRANCH  16  19
HETATM   19  C   UNL     1     -10.201  10.478  65.406  1.00  0.00    -0.270 C  
BRANCH  19  20
HETATM   20  O   UNL     1      -9.514   9.221  65.354  1.00  0.00    -0.254 OA 
HETATM   21  S   UNL     1      -8.284   9.107  64.296  1.00  0.00    -0.169 S  
HETATM   22  C   UNL     1      -7.821   7.430  64.658  1.00  0.00    -0.123 C  
HETATM   23  O   UNL     1      -7.221   9.992  64.730  1.00  0.00    -0.129 OA 
HETATM   24  O   UNL     1      -8.831   9.159  62.956  1.00  0.00    -0.201 OA 
ENDBRANCH  19  20
ENDBRANCH  16  19
ENDBRANCH  13  16
ENDBRANCH  10  13
ENDBRANCH   7  10
ENDBRANCH   6   7
ENDBRANCH   3   6
TORSDOF 7
ENDMDL
MODEL      205
REMARK 921   NORMALIZED FREE ENERGY PREDICTED BY IDOCK:   -3.74 KCAL/MOL
REMARK 922        TOTAL FREE ENERGY PREDICTED BY IDOCK:   -6.52 KCAL/MOL
REMARK 923 INTER-LIGAND FREE ENERGY PREDICTED BY IDOCK:   -5.12 KCAL/MOL
REMARK 924 INTRA-LIGAND FREE ENERGY PREDICTED BY IDOCK:   -1.40 KCAL/MOL
REMARK 927      BINDING AFFINITY PREDICTED BY RF-SCORE:    0.00 PKD
ROOT
HETATM    1  C   UNL     1     -12.977  11.618  71.931  1.00  0.00    -0.337 C  
HETATM    2  S   UNL     1     -12.552  10.217  70.928  1.00  0.00    -0.383 S  
HETATM    3  O   UNL     1     -10.976  10.563  70.638  1.00  0.00    -0.237 OA 
HETATM    4  O   UNL     1     -12.613   9.028  71.750  1.00  0.00    -0.322 OA 
HETATM    5  O   UNL     1     -13.269  10.318  69.672  1.00  0.00     0.201 OA 
ENDROOT
BRANCH   3   6
HETATM    6  C   UNL     1     -10.302   9.584  69.842  1.00  0.00    -0.236 C  
BRANCH   6   7
HETATM    7  C   UNL     1      -9.145  10.190  69.041  1.00  0.00    -0.173 C  
HETATM    8  O   UNL     1      -8.118   9.197  68.853  1.00  0.00    -0.097 OA 
HETATM    9  H   UNL     1      -7.400   9.573  68.356  1.00  0.00     0.000 HD 
BRANCH   7  10
HETATM   10  C   UNL     1      -9.588  10.644  67.633  1.00  0.00    -0.161 C  
HETATM   11  H   UNL     1     -10.987  10.118  66.346  1.00  0.00     0.000 HD 
HETATM   12  O   UNL     1     -10.714   9.838  67.212  1.00  0.00    -0.264 OA 
BRANCH  10  13
HETATM   13  C   UNL     1     -10.024  12.115  67.498  1.00  0.00    -0.197 C  
HETATM   14  O   UNL     1      -9.399  12.835  68.580  1.00  0.00    -0.383 OA 
HETATM   15  H   UNL     1      -9.668  13.742  68.497  1.00  0.00     0.000 HD 
BRANCH  13  16
HETATM   16  C   UNL     1     -11.542  12.365  67.524  1.00  0.00    -0.365 C  
HETATM   17  H   UNL     1     -12.886  12.996  66.245  1.00  0.00     0.000 HD 
HETATM   18  O   UNL     1     -11.949  12.843  66.228  1.00  0.00    -0.397 OA 
BRANCH  16  19
HETATM   19  C   UNL     1     -11.971  13.363  68.605  1.00  0.00    -0.327 C  
BRANCH  19  20
HETATM   20  O   UNL     1     -11.569  14.674  68.186  1.00  0.00    -0.305 OA 
HETATM   21  S   UNL     1     -11.282  15.758  69.363  1.00  0.00    -0.354 S  
HETATM   22  C   UNL     1     -10.830  17.122  68.317  1.00  0.00    -0.314 C  
HETATM   23  O   UNL     1     -10.114  15.330  70.107  1.00  0.00    -0.238 OA 
HETATM   24  O   UNL     1     -12.538  16.068  70.013  1.00  0.00    -0.226 OA 
ENDBRANCH  19  20
ENDBRANCH  16  19
ENDBRANCH  13  16
ENDBRANCH  10  13
ENDBRANCH   7  10
ENDBRANCH   6   7
ENDBRANCH   3   6
TORSDOF 7
ENDMDL
MODEL      206
REMARK 921   NORMALIZED FREE ENERGY PREDICTED BY IDOCK:   -3.74 KCAL/MOL
REMARK 922        TOTAL FREE ENERGY PREDICTED BY IDOCK:   -6.51 KCAL/MOL
REMARK 923 INTER-LIGAND FREE ENERGY PREDICTED BY IDOCK:   -5.37 KCAL/MOL
REMARK 924 INTRA-LIGAND FREE ENERGY PREDICTED BY IDOCK:   -1.14 KCAL/MOL
REMARK 927      BINDING AFFINITY PREDICTED BY RF-SCORE:    0.00 PKD
ROOT
HETATM    1  C   UNL     1     -11.586   9.378  71.400  1.00  0.00    -0.381 C  
HETATM    2  S   UNL     1     -12.213  10.858  70.647  1.00  0.00    -0.404 S  
HETATM    3  O   UNL     1     -10.838  11.404  69.943  1.00  0.00    -0.073 OA 
HETATM    4  O   UNL     1     -13.141  10.483  69.601  1.00  0.00    -0.020 OA 
HETATM    5  O   UNL     1     -12.577  11.788  71.696  1.00  0.00    -0.256 OA 
ENDROOT
BRANCH   3   6
HETATM    6  C   UNL     1     -11.003  12.620  69.206  1.00  0.00    -0.066 C  
BRANCH   6   7
HETATM    7  C   UNL     1     -10.834  12.408  67.699  1.00  0.00    -0.225 C  
HETATM    8  O   UNL     1     -11.989  11.722  67.177  1.00  0.00    -0.617 OA 
HETATM    9  H   UNL     1     -11.884  11.590  66.242  1.00  0.00     0.000 HD 
BRANCH   7  10
HETATM   10  C   UNL     1     -10.728  13.744  66.933  1.00  0.00    -0.280 C  
HETATM   11  H   UNL     1     -11.978  14.948  65.996  1.00  0.00     0.000 HD 
HETATM   12  O   UNL     1     -12.044  14.126  66.467  1.00  0.00    -0.428 OA 
BRANCH  10  13
HETATM   13  C   UNL     1     -10.178  14.944  67.729  1.00  0.00    -0.236 C  
HETATM   14  O   UNL     1     -11.003  16.079  67.392  1.00  0.00    -0.315 OA 
HETATM   15  H   UNL     1     -10.665  16.818  67.883  1.00  0.00     0.000 HD 
BRANCH  13  16
HETATM   16  C   UNL     1      -8.700  15.290  67.476  1.00  0.00    -0.178 C  
HETATM   17  H   UNL     1      -6.995  14.330  67.571  1.00  0.00     0.000 HD 
HETATM   18  O   UNL     1      -7.907  14.116  67.727  1.00  0.00    -0.139 OA 
BRANCH  16  19
HETATM   19  C   UNL     1      -8.197  16.453  68.338  1.00  0.00    -0.190 C  
BRANCH  19  20
HETATM   20  O   UNL     1      -8.263  17.651  67.552  1.00  0.00    -0.212 OA 
HETATM   21  S   UNL     1      -8.774  18.994  68.313  1.00  0.00    -0.341 S  
HETATM   22  C   UNL     1      -8.646  20.105  66.932  1.00  0.00    -0.324 C  
HETATM   23  O   UNL     1      -7.786  19.363  69.306  1.00  0.00    -0.310 OA 
HETATM   24  O   UNL     1     -10.174  18.824  68.644  1.00  0.00    -0.381 OA 
ENDBRANCH  19  20
ENDBRANCH  16  19
ENDBRANCH  13  16
ENDBRANCH  10  13
ENDBRANCH   7  10
ENDBRANCH   6   7
ENDBRANCH   3   6
TORSDOF 7
ENDMDL
MODEL      207
REMARK 921   NORMALIZED FREE ENERGY PREDICTED BY IDOCK:   -3.73 KCAL/MOL
REMARK 922        TOTAL FREE ENERGY PREDICTED BY IDOCK:   -6.50 KCAL/MOL
REMARK 923 INTER-LIGAND FREE ENERGY PREDICTED BY IDOCK:   -5.28 KCAL/MOL
REMARK 924 INTRA-LIGAND FREE ENERGY PREDICTED BY IDOCK:   -1.22 KCAL/MOL
REMARK 927      BINDING AFFINITY PREDICTED BY RF-SCORE:    0.00 PKD
ROOT
HETATM    1  C   UNL     1     -12.505  11.860  63.543  1.00  0.00    -0.492 C  
HETATM    2  S   UNL     1     -11.540  12.761  64.729  1.00  0.00    -0.345 S  
HETATM    3  O   UNL     1     -10.929  11.505  65.587  1.00  0.00    -0.288 OA 
HETATM    4  O   UNL     1     -10.449  13.410  64.034  1.00  0.00    -0.323 OA 
HETATM    5  O   UNL     1     -12.443  13.494  65.593  1.00  0.00    -0.454 OA 
ENDROOT
BRANCH   3   6
HETATM    6  C   UNL     1     -10.056  11.897  66.651  1.00  0.00    -0.200 C  
BRANCH   6   7
HETATM    7  C   UNL     1     -10.646  11.577  68.027  1.00  0.00    -0.190 C  
HETATM    8  O   UNL     1     -11.948  12.184  68.145  1.00  0.00    -0.430 OA 
HETATM    9  H   UNL     1     -12.314  11.985  68.999  1.00  0.00     0.000 HD 
BRANCH   7  10
HETATM   10  C   UNL     1     -10.843  10.060  68.237  1.00  0.00    -0.241 C  
HETATM   11  H   UNL     1      -9.717   8.447  68.084  1.00  0.00     0.000 HD 
HETATM   12  O   UNL     1      -9.596   9.380  67.955  1.00  0.00    -0.136 OA 
BRANCH  10  13
HETATM   13  C   UNL     1     -11.276   9.618  69.648  1.00  0.00    -0.141 C  
HETATM   14  O   UNL     1     -11.039  10.738  70.526  1.00  0.00    -0.448 OA 
HETATM   15  H   UNL     1     -11.306  10.465  71.395  1.00  0.00     0.000 HD 
BRANCH  13  16
HETATM   16  C   UNL     1     -10.566   8.371  70.202  1.00  0.00    -0.233 C  
HETATM   17  H   UNL     1     -11.099   6.549  70.692  1.00  0.00     0.000 HD 
HETATM   18  O   UNL     1     -11.538   7.319  70.350  1.00  0.00    -0.279 OA 
BRANCH  16  19
HETATM   19  C   UNL     1      -9.862   8.622  71.541  1.00  0.00    -0.272 C  
BRANCH  19  20
HETATM   20  O   UNL     1      -8.595   9.235  71.270  1.00  0.00    -0.310 OA 
HETATM   21  S   UNL     1      -7.276   8.443  71.796  1.00  0.00    -0.096 S  
HETATM   22  C   UNL     1      -6.061   9.595  71.200  1.00  0.00    -0.060 C  
HETATM   23  O   UNL     1      -7.155   7.206  71.051  1.00  0.00    -0.066 OA 
HETATM   24  O   UNL     1      -7.274   8.474  73.244  1.00  0.00    -0.276 OA 
ENDBRANCH  19  20
ENDBRANCH  16  19
ENDBRANCH  13  16
ENDBRANCH  10  13
ENDBRANCH   7  10
ENDBRANCH   6   7
ENDBRANCH   3   6
TORSDOF 7
ENDMDL
MODEL      208
REMARK 921   NORMALIZED FREE ENERGY PREDICTED BY IDOCK:   -3.72 KCAL/MOL
REMARK 922        TOTAL FREE ENERGY PREDICTED BY IDOCK:   -6.49 KCAL/MOL
REMARK 923 INTER-LIGAND FREE ENERGY PREDICTED BY IDOCK:   -6.21 KCAL/MOL
REMARK 924 INTRA-LIGAND FREE ENERGY PREDICTED BY IDOCK:   -0.28 KCAL/MOL
REMARK 927      BINDING AFFINITY PREDICTED BY RF-SCORE:    0.00 PKD
ROOT
HETATM    1  C   UNL     1      -9.866  10.594  69.083  1.00  0.00    -0.200 C  
HETATM    2  S   UNL     1     -11.467  11.115  69.644  1.00  0.00    -0.333 S  
HETATM    3  O   UNL     1     -11.099  12.637  70.127  1.00  0.00     0.275 OA 
HETATM    4  O   UNL     1     -12.348  11.203  68.499  1.00  0.00    -0.561 OA 
HETATM    5  O   UNL     1     -11.815  10.345  70.821  1.00  0.00    -0.312 OA 
ENDROOT
BRANCH   3   6
HETATM    6  C   UNL     1     -12.216  13.374  70.635  1.00  0.00    -0.350 C  
BRANCH   6   7
HETATM    7  C   UNL     1     -12.535  14.601  69.776  1.00  0.00    -0.205 C  
HETATM    8  O   UNL     1     -13.607  15.349  70.384  1.00  0.00    -0.751 OA 
HETATM    9  H   UNL     1     -13.804  16.111  69.851  1.00  0.00     0.000 HD 
BRANCH   7  10
HETATM   10  C   UNL     1     -11.330  15.561  69.666  1.00  0.00    -0.315 C  
HETATM   11  H   UNL     1     -10.161  16.525  70.929  1.00  0.00     0.000 HD 
HETATM   12  O   UNL     1     -10.902  15.934  70.997  1.00  0.00    -0.208 OA 
BRANCH  10  13
HETATM   13  C   UNL     1     -10.086  15.013  68.941  1.00  0.00    -0.234 C  
HETATM   14  O   UNL     1      -8.964  15.803  69.386  1.00  0.00    -0.255 OA 
HETATM   15  H   UNL     1      -8.198  15.466  68.939  1.00  0.00     0.000 HD 
BRANCH  13  16
HETATM   16  C   UNL     1     -10.149  15.030  67.404  1.00  0.00    -0.228 C  
HETATM   17  H   UNL     1      -9.772  13.752  65.966  1.00  0.00     0.000 HD 
HETATM   18  O   UNL     1      -9.733  13.741  66.915  1.00  0.00    -0.248 OA 
BRANCH  16  19
HETATM   19  C   UNL     1      -9.285  16.129  66.776  1.00  0.00    -0.231 C  
BRANCH  19  20
HETATM   20  O   UNL     1      -9.664  17.382  67.362  1.00  0.00    -0.259 OA 
HETATM   21  S   UNL     1      -9.766  18.655  66.355  1.00  0.00    -0.330 S  
HETATM   22  C   UNL     1     -10.260  19.864  67.560  1.00  0.00    -0.422 C  
HETATM   23  O   UNL     1     -10.865  18.430  65.438  1.00  0.00    -0.577 OA 
HETATM   24  O   UNL     1      -8.431  18.978  65.894  1.00  0.00    -0.464 OA 
ENDBRANCH  19  20
ENDBRANCH  16  19
ENDBRANCH  13  16
ENDBRANCH  10  13
ENDBRANCH   7  10
ENDBRANCH   6   7
ENDBRANCH   3   6
TORSDOF 7
ENDMDL
MODEL      209
REMARK 921   NORMALIZED FREE ENERGY PREDICTED BY IDOCK:   -3.72 KCAL/MOL
REMARK 922        TOTAL FREE ENERGY PREDICTED BY IDOCK:   -6.49 KCAL/MOL
REMARK 923 INTER-LIGAND FREE ENERGY PREDICTED BY IDOCK:   -5.80 KCAL/MOL
REMARK 924 INTRA-LIGAND FREE ENERGY PREDICTED BY IDOCK:   -0.69 KCAL/MOL
REMARK 927      BINDING AFFINITY PREDICTED BY RF-SCORE:    0.00 PKD
ROOT
HETATM    1  C   UNL     1      -8.200   8.952  70.117  1.00  0.00    -0.125 C  
HETATM    2  S   UNL     1      -8.582   9.299  68.419  1.00  0.00    -0.125 S  
HETATM    3  O   UNL     1      -9.427  10.690  68.613  1.00  0.00    -0.161 OA 
HETATM    4  O   UNL     1      -7.350   9.609  67.725  1.00  0.00    -0.085 OA 
HETATM    5  O   UNL     1      -9.498   8.284  67.938  1.00  0.00    -0.143 OA 
ENDROOT
BRANCH   3   6
HETATM    6  C   UNL     1      -9.884  11.270  67.387  1.00  0.00    -0.181 C  
BRANCH   6   7
HETATM    7  C   UNL     1     -11.382  11.586  67.422  1.00  0.00    -0.298 C  
HETATM    8  O   UNL     1     -12.012  10.817  68.465  1.00  0.00    -0.722 OA 
HETATM    9  H   UNL     1     -12.941  11.013  68.487  1.00  0.00     0.000 HD 
BRANCH   7  10
HETATM   10  C   UNL     1     -11.655  13.072  67.740  1.00  0.00    -0.340 C  
HETATM   11  H   UNL     1     -12.131  14.118  69.344  1.00  0.00     0.000 HD 
HETATM   12  O   UNL     1     -11.963  13.204  69.148  1.00  0.00    -0.305 OA 
BRANCH  10  13
HETATM   13  C   UNL     1     -10.503  14.054  67.449  1.00  0.00    -0.263 C  
HETATM   14  O   UNL     1      -9.956  14.444  68.726  1.00  0.00    -0.233 OA 
HETATM   15  H   UNL     1      -9.247  15.049  68.546  1.00  0.00     0.000 HD 
BRANCH  13  16
HETATM   16  C   UNL     1     -10.886  15.311  66.648  1.00  0.00    -0.310 C  
HETATM   17  H   UNL     1     -10.163  16.264  65.095  1.00  0.00     0.000 HD 
HETATM   18  O   UNL     1      -9.926  15.488  65.590  1.00  0.00    -0.328 OA 
BRANCH  16  19
HETATM   19  C   UNL     1     -10.952  16.578  67.508  1.00  0.00    -0.166 C  
BRANCH  19  20
HETATM   20  O   UNL     1      -9.823  17.399  67.180  1.00  0.00    -0.262 OA 
HETATM   21  S   UNL     1     -10.147  18.890  66.618  1.00  0.00    -0.416 S  
HETATM   22  C   UNL     1      -8.466  19.427  66.405  1.00  0.00    -0.346 C  
HETATM   23  O   UNL     1     -10.755  19.661  67.684  1.00  0.00    -0.445 OA 
HETATM   24  O   UNL     1     -10.761  18.761  65.313  1.00  0.00    -0.541 OA 
ENDBRANCH  19  20
ENDBRANCH  16  19
ENDBRANCH  13  16
ENDBRANCH  10  13
ENDBRANCH   7  10
ENDBRANCH   6   7
ENDBRANCH   3   6
TORSDOF 7
ENDMDL
MODEL      210
REMARK 921   NORMALIZED FREE ENERGY PREDICTED BY IDOCK:   -3.72 KCAL/MOL
REMARK 922        TOTAL FREE ENERGY PREDICTED BY IDOCK:   -6.48 KCAL/MOL
REMARK 923 INTER-LIGAND FREE ENERGY PREDICTED BY IDOCK:   -5.21 KCAL/MOL
REMARK 924 INTRA-LIGAND FREE ENERGY PREDICTED BY IDOCK:   -1.27 KCAL/MOL
REMARK 927      BINDING AFFINITY PREDICTED BY RF-SCORE:    0.00 PKD
ROOT
HETATM    1  C   UNL     1      -9.243   4.973  65.982  1.00  0.00    -0.153 C  
HETATM    2  S   UNL     1     -10.085   5.858  67.269  1.00  0.00    -0.199 S  
HETATM    3  O   UNL     1      -8.982   7.038  67.548  1.00  0.00    -0.118 OA 
HETATM    4  O   UNL     1     -11.270   6.469  66.707  1.00  0.00    -0.334 OA 
HETATM    5  O   UNL     1     -10.142   5.014  68.445  1.00  0.00    -0.157 OA 
ENDROOT
BRANCH   3   6
HETATM    6  C   UNL     1      -9.373   7.974  68.557  1.00  0.00    -0.142 C  
BRANCH   6   7
HETATM    7  C   UNL     1      -9.642   9.367  67.978  1.00  0.00    -0.138 C  
HETATM    8  O   UNL     1     -11.000   9.435  67.501  1.00  0.00    -0.445 OA 
HETATM    9  H   UNL     1     -11.166  10.299  67.142  1.00  0.00     0.000 HD 
BRANCH   7  10
HETATM   10  C   UNL     1      -9.487  10.477  69.041  1.00  0.00    -0.201 C  
HETATM   11  H   UNL     1      -8.329  10.795  70.606  1.00  0.00     0.000 HD 
HETATM   12  O   UNL     1      -8.424  10.112  69.952  1.00  0.00    -0.176 OA 
BRANCH  10  13
HETATM   13  C   UNL     1      -9.150  11.884  68.511  1.00  0.00    -0.123 C  
HETATM   14  O   UNL     1     -10.272  12.730  68.837  1.00  0.00    -0.409 OA 
HETATM   15  H   UNL     1     -10.064  13.597  68.511  1.00  0.00     0.000 HD 
BRANCH  13  16
HETATM   16  C   UNL     1      -8.857  11.976  67.004  1.00  0.00    -0.197 C  
HETATM   17  H   UNL     1      -7.256  11.912  65.875  1.00  0.00     0.000 HD 
HETATM   18  O   UNL     1      -7.436  11.855  66.806  1.00  0.00    -0.113 OA 
BRANCH  16  19
HETATM   19  C   UNL     1      -9.363  13.276  66.369  1.00  0.00    -0.174 C  
BRANCH  19  20
HETATM   20  O   UNL     1     -10.350  12.936  65.385  1.00  0.00    -0.288 OA 
HETATM   21  S   UNL     1     -11.905  13.046  65.847  1.00  0.00    -0.437 S  
HETATM   22  C   UNL     1     -12.639  12.550  64.306  1.00  0.00    -0.396 C  
HETATM   23  O   UNL     1     -12.216  14.441  66.087  1.00  0.00    -0.403 OA 
HETATM   24  O   UNL     1     -12.160  12.018  66.835  1.00  0.00    -0.608 OA 
ENDBRANCH  19  20
ENDBRANCH  16  19
ENDBRANCH  13  16
ENDBRANCH  10  13
ENDBRANCH   7  10
ENDBRANCH   6   7
ENDBRANCH   3   6
TORSDOF 7
ENDMDL
MODEL      211
REMARK 921   NORMALIZED FREE ENERGY PREDICTED BY IDOCK:   -3.70 KCAL/MOL
REMARK 922        TOTAL FREE ENERGY PREDICTED BY IDOCK:   -6.47 KCAL/MOL
REMARK 923 INTER-LIGAND FREE ENERGY PREDICTED BY IDOCK:   -5.47 KCAL/MOL
REMARK 924 INTRA-LIGAND FREE ENERGY PREDICTED BY IDOCK:   -1.00 KCAL/MOL
REMARK 927      BINDING AFFINITY PREDICTED BY RF-SCORE:    0.00 PKD
ROOT
HETATM    1  C   UNL     1      -9.854  10.952  66.092  1.00  0.00    -0.222 C  
HETATM    2  S   UNL     1     -10.916  11.981  67.073  1.00  0.00    -0.291 S  
HETATM    3  O   UNL     1     -11.385  10.885  68.199  1.00  0.00    -0.282 OA 
HETATM    4  O   UNL     1     -10.105  12.985  67.728  1.00  0.00    -0.219 OA 
HETATM    5  O   UNL     1     -12.077  12.331  66.281  1.00  0.00    -0.626 OA 
ENDROOT
BRANCH   3   6
HETATM    6  C   UNL     1     -12.266  11.413  69.195  1.00  0.00    -0.175 C  
BRANCH   6   7
HETATM    7  C   UNL     1     -12.248  10.580  70.480  1.00  0.00    -0.344 C  
HETATM    8  O   UNL     1     -13.547   9.993  70.691  1.00  0.00    -0.526 OA 
HETATM    9  H   UNL     1     -13.536   9.476  71.489  1.00  0.00     0.000 HD 
BRANCH   7  10
HETATM   10  C   UNL     1     -11.240   9.413  70.401  1.00  0.00    -0.262 C  
HETATM   11  H   UNL     1      -9.523   8.958  71.260  1.00  0.00     0.000 HD 
HETATM   12  O   UNL     1     -10.144   9.676  71.308  1.00  0.00    -0.218 OA 
BRANCH  10  13
HETATM   13  C   UNL     1     -11.784   8.018  70.762  1.00  0.00    -0.206 C  
HETATM   14  O   UNL     1     -12.155   8.064  72.156  1.00  0.00    -0.313 OA 
HETATM   15  H   UNL     1     -12.490   7.204  72.379  1.00  0.00     0.000 HD 
BRANCH  13  16
HETATM   16  C   UNL     1     -10.818   6.844  70.526  1.00  0.00    -0.253 C  
HETATM   17  H   UNL     1     -10.347   5.693  69.011  1.00  0.00     0.000 HD 
HETATM   18  O   UNL     1     -10.944   6.417  69.157  1.00  0.00    -0.290 OA 
BRANCH  16  19
HETATM   19  C   UNL     1     -11.065   5.659  71.466  1.00  0.00    -0.165 C  
BRANCH  19  20
HETATM   20  O   UNL     1      -9.893   5.479  72.273  1.00  0.00    -0.158 OA 
HETATM   21  S   UNL     1     -10.118   5.434  73.883  1.00  0.00    -0.237 S  
HETATM   22  C   UNL     1      -8.420   5.191  74.347  1.00  0.00    -0.107 C  
HETATM   23  O   UNL     1     -10.871   4.240  74.209  1.00  0.00    -0.238 OA 
HETATM   24  O   UNL     1     -10.534   6.751  74.321  1.00  0.00    -0.338 OA 
ENDBRANCH  19  20
ENDBRANCH  16  19
ENDBRANCH  13  16
ENDBRANCH  10  13
ENDBRANCH   7  10
ENDBRANCH   6   7
ENDBRANCH   3   6
TORSDOF 7
ENDMDL
MODEL      212
REMARK 921   NORMALIZED FREE ENERGY PREDICTED BY IDOCK:   -3.70 KCAL/MOL
REMARK 922        TOTAL FREE ENERGY PREDICTED BY IDOCK:   -6.46 KCAL/MOL
REMARK 923 INTER-LIGAND FREE ENERGY PREDICTED BY IDOCK:   -5.29 KCAL/MOL
REMARK 924 INTRA-LIGAND FREE ENERGY PREDICTED BY IDOCK:   -1.17 KCAL/MOL
REMARK 927      BINDING AFFINITY PREDICTED BY RF-SCORE:    0.00 PKD
ROOT
HETATM    1  C   UNL     1      -6.486  10.052  64.144  1.00  0.00    -0.131 C  
HETATM    2  S   UNL     1      -8.172   9.498  64.148  1.00  0.00    -0.173 S  
HETATM    3  O   UNL     1      -8.480   9.593  65.756  1.00  0.00    -0.127 OA 
HETATM    4  O   UNL     1      -8.982  10.488  63.472  1.00  0.00    -0.187 OA 
HETATM    5  O   UNL     1      -8.197   8.100  63.771  1.00  0.00    -0.145 OA 
ENDROOT
BRANCH   3   6
HETATM    6  C   UNL     1      -9.814   9.220  66.116  1.00  0.00    -0.293 C  
BRANCH   6   7
HETATM    7  C   UNL     1     -10.074   9.388  67.616  1.00  0.00    -0.211 C  
HETATM    8  O   UNL     1      -8.848   9.756  68.278  1.00  0.00    -0.119 OA 
HETATM    9  H   UNL     1      -9.010   9.861  69.209  1.00  0.00     0.000 HD 
BRANCH   7  10
HETATM   10  C   UNL     1     -11.091  10.513  67.906  1.00  0.00    -0.304 C  
HETATM   11  H   UNL     1     -11.913  11.305  69.516  1.00  0.00     0.000 HD 
HETATM   12  O   UNL     1     -11.287  10.612  69.337  1.00  0.00    -0.244 OA 
BRANCH  10  13
HETATM   13  C   UNL     1     -10.707  11.922  67.416  1.00  0.00    -0.232 C  
HETATM   14  O   UNL     1      -9.906  12.520  68.457  1.00  0.00    -0.291 OA 
HETATM   15  H   UNL     1      -9.670  13.389  68.155  1.00  0.00     0.000 HD 
BRANCH  13  16
HETATM   16  C   UNL     1     -11.884  12.853  67.075  1.00  0.00    -0.374 C  
HETATM   17  H   UNL     1     -12.998  13.192  65.499  1.00  0.00     0.000 HD 
HETATM   18  O   UNL     1     -12.271  12.618  65.709  1.00  0.00    -0.532 OA 
BRANCH  16  19
HETATM   19  C   UNL     1     -11.559  14.337  67.277  1.00  0.00    -0.377 C  
BRANCH  19  20
HETATM   20  O   UNL     1     -11.889  14.686  68.628  1.00  0.00    -0.319 OA 
HETATM   21  S   UNL     1     -10.942  15.796  69.345  1.00  0.00    -0.326 S  
HETATM   22  C   UNL     1     -11.783  15.842  70.910  1.00  0.00    -0.420 C  
HETATM   23  O   UNL     1     -11.132  17.065  68.673  1.00  0.00    -0.272 OA 
HETATM   24  O   UNL     1      -9.629  15.216  69.541  1.00  0.00    -0.212 OA 
ENDBRANCH  19  20
ENDBRANCH  16  19
ENDBRANCH  13  16
ENDBRANCH  10  13
ENDBRANCH   7  10
ENDBRANCH   6   7
ENDBRANCH   3   6
TORSDOF 7
ENDMDL
MODEL      213
REMARK 921   NORMALIZED FREE ENERGY PREDICTED BY IDOCK:   -3.69 KCAL/MOL
REMARK 922        TOTAL FREE ENERGY PREDICTED BY IDOCK:   -6.45 KCAL/MOL
REMARK 923 INTER-LIGAND FREE ENERGY PREDICTED BY IDOCK:   -5.67 KCAL/MOL
REMARK 924 INTRA-LIGAND FREE ENERGY PREDICTED BY IDOCK:   -0.77 KCAL/MOL
REMARK 927      BINDING AFFINITY PREDICTED BY RF-SCORE:    0.00 PKD
ROOT
HETATM    1  C   UNL     1      -6.676  20.237  68.097  1.00  0.00    -0.295 C  
HETATM    2  S   UNL     1      -7.427  18.644  68.316  1.00  0.00    -0.290 S  
HETATM    3  O   UNL     1      -7.496  18.163  66.751  1.00  0.00    -0.200 OA 
HETATM    4  O   UNL     1      -6.492  17.788  69.014  1.00  0.00    -0.213 OA 
HETATM    5  O   UNL     1      -8.785  18.837  68.784  1.00  0.00    -0.331 OA 
ENDROOT
BRANCH   3   6
HETATM    6  C   UNL     1      -8.053  16.858  66.566  1.00  0.00    -0.291 C  
BRANCH   6   7
HETATM    7  C   UNL     1      -9.584  16.874  66.610  1.00  0.00    -0.267 C  
HETATM    8  O   UNL     1     -10.106  16.621  65.290  1.00  0.00    -0.575 OA 
HETATM    9  H   UNL     1     -11.056  16.631  65.318  1.00  0.00     0.000 HD 
BRANCH   7  10
HETATM   10  C   UNL     1     -10.150  15.770  67.530  1.00  0.00    -0.245 C  
HETATM   11  H   UNL     1      -9.455  14.646  68.994  1.00  0.00     0.000 HD 
HETATM   12  O   UNL     1      -9.106  15.325  68.428  1.00  0.00    -0.179 OA 
BRANCH  10  13
HETATM   13  C   UNL     1     -11.349  16.168  68.412  1.00  0.00    -0.345 C  
HETATM   14  O   UNL     1     -10.830  17.004  69.467  1.00  0.00    -0.373 OA 
HETATM   15  H   UNL     1     -11.569  17.249  70.011  1.00  0.00     0.000 HD 
BRANCH  13  16
HETATM   16  C   UNL     1     -12.141  14.999  69.025  1.00  0.00    -0.208 C  
HETATM   17  H   UNL     1     -12.103  14.008  70.715  1.00  0.00     0.000 HD 
HETATM   18  O   UNL     1     -11.613  14.729  70.337  1.00  0.00    -0.263 OA 
BRANCH  16  19
HETATM   19  C   UNL     1     -12.097  13.726  68.173  1.00  0.00    -0.281 C  
BRANCH  19  20
HETATM   20  O   UNL     1     -11.225  12.789  68.818  1.00  0.00    -0.251 OA 
HETATM   21  S   UNL     1     -10.610  11.606  67.885  1.00  0.00    -0.203 S  
HETATM   22  C   UNL     1      -9.646  10.799  69.141  1.00  0.00    -0.151 C  
HETATM   23  O   UNL     1      -9.714  12.204  66.916  1.00  0.00    -0.199 OA 
HETATM   24  O   UNL     1     -11.692  10.727  67.495  1.00  0.00    -0.510 OA 
ENDBRANCH  19  20
ENDBRANCH  16  19
ENDBRANCH  13  16
ENDBRANCH  10  13
ENDBRANCH   7  10
ENDBRANCH   6   7
ENDBRANCH   3   6
TORSDOF 7
ENDMDL
MODEL      214
REMARK 921   NORMALIZED FREE ENERGY PREDICTED BY IDOCK:   -3.69 KCAL/MOL
REMARK 922        TOTAL FREE ENERGY PREDICTED BY IDOCK:   -6.44 KCAL/MOL
REMARK 923 INTER-LIGAND FREE ENERGY PREDICTED BY IDOCK:   -5.41 KCAL/MOL
REMARK 924 INTRA-LIGAND FREE ENERGY PREDICTED BY IDOCK:   -1.03 KCAL/MOL
REMARK 927      BINDING AFFINITY PREDICTED BY RF-SCORE:    0.00 PKD
ROOT
HETATM    1  C   UNL     1     -10.118   4.585  65.814  1.00  0.00    -0.255 C  
HETATM    2  S   UNL     1      -9.987   5.613  67.255  1.00  0.00    -0.179 S  
HETATM    3  O   UNL     1      -8.825   6.648  66.742  1.00  0.00    -0.122 OA 
HETATM    4  O   UNL     1     -11.221   6.354  67.404  1.00  0.00    -0.352 OA 
HETATM    5  O   UNL     1      -9.434   4.821  68.335  1.00  0.00    -0.129 OA 
ENDROOT
BRANCH   3   6
HETATM    6  C   UNL     1      -8.482   7.659  67.695  1.00  0.00    -0.117 C  
BRANCH   6   7
HETATM    7  C   UNL     1      -8.329   9.037  67.044  1.00  0.00    -0.116 C  
HETATM    8  O   UNL     1      -7.010   9.157  66.476  1.00  0.00    -0.079 OA 
HETATM    9  H   UNL     1      -6.916  10.012  66.072  1.00  0.00     0.000 HD 
BRANCH   7  10
HETATM   10  C   UNL     1      -9.331   9.247  65.888  1.00  0.00    -0.236 C  
HETATM   11  H   UNL     1     -11.232   9.749  65.729  1.00  0.00     0.000 HD 
HETATM   12  O   UNL     1     -10.616   9.620  66.441  1.00  0.00    -0.150 OA 
BRANCH  10  13
HETATM   13  C   UNL     1      -8.964  10.331  64.857  1.00  0.00    -0.201 C  
HETATM   14  O   UNL     1      -8.401  11.434  65.597  1.00  0.00    -0.371 OA 
HETATM   15  H   UNL     1      -8.175  12.103  64.961  1.00  0.00     0.000 HD 
BRANCH  13  16
HETATM   16  C   UNL     1     -10.124  10.838  63.982  1.00  0.00    -0.345 C  
HETATM   17  H   UNL     1     -10.580  10.776  62.077  1.00  0.00     0.000 HD 
HETATM   18  O   UNL     1      -9.863  10.464  62.616  1.00  0.00    -0.249 OA 
BRANCH  16  19
HETATM   19  C   UNL     1     -10.334  12.354  64.076  1.00  0.00    -0.409 C  
BRANCH  19  20
HETATM   20  O   UNL     1     -10.822  12.655  65.390  1.00  0.00    -0.276 OA 
HETATM   21  S   UNL     1     -11.909  13.859  65.503  1.00  0.00    -0.382 S  
HETATM   22  C   UNL     1     -12.157  13.782  67.262  1.00  0.00    -0.357 C  
HETATM   23  O   UNL     1     -13.127  13.443  64.839  1.00  0.00    -0.723 OA 
HETATM   24  O   UNL     1     -11.243  15.105  65.183  1.00  0.00    -0.366 OA 
ENDBRANCH  19  20
ENDBRANCH  16  19
ENDBRANCH  13  16
ENDBRANCH  10  13
ENDBRANCH   7  10
ENDBRANCH   6   7
ENDBRANCH   3   6
TORSDOF 7
ENDMDL
MODEL      215
REMARK 921   NORMALIZED FREE ENERGY PREDICTED BY IDOCK:   -3.68 KCAL/MOL
REMARK 922        TOTAL FREE ENERGY PREDICTED BY IDOCK:   -6.43 KCAL/MOL
REMARK 923 INTER-LIGAND FREE ENERGY PREDICTED BY IDOCK:   -5.52 KCAL/MOL
REMARK 924 INTRA-LIGAND FREE ENERGY PREDICTED BY IDOCK:   -0.92 KCAL/MOL
REMARK 927      BINDING AFFINITY PREDICTED BY RF-SCORE:    0.00 PKD
ROOT
HETATM    1  C   UNL     1     -11.661  15.019  68.810  1.00  0.00    -0.335 C  
HETATM    2  S   UNL     1     -11.352  13.960  67.419  1.00  0.00    -0.344 S  
HETATM    3  O   UNL     1     -11.439  12.504  68.167  1.00  0.00    -0.273 OA 
HETATM    4  O   UNL     1     -12.468  14.067  66.504  1.00  0.00    -0.442 OA 
HETATM    5  O   UNL     1      -9.984  14.158  66.986  1.00  0.00    -0.250 OA 
ENDROOT
BRANCH   3   6
HETATM    6  C   UNL     1     -11.249  11.387  67.293  1.00  0.00    -0.304 C  
BRANCH   6   7
HETATM    7  C   UNL     1     -10.004  10.573  67.661  1.00  0.00    -0.173 C  
HETATM    8  O   UNL     1      -9.034  11.435  68.288  1.00  0.00    -0.162 OA 
HETATM    9  H   UNL     1      -8.262  10.930  68.516  1.00  0.00     0.000 HD 
BRANCH   7  10
HETATM   10  C   UNL     1     -10.322   9.452  68.673  1.00  0.00    -0.203 C  
HETATM   11  H   UNL     1      -9.587   7.671  69.099  1.00  0.00     0.000 HD 
HETATM   12  O   UNL     1      -9.391   8.362  68.476  1.00  0.00    -0.139 OA 
BRANCH  10  13
HETATM   13  C   UNL     1     -10.241   9.835  70.163  1.00  0.00    -0.275 C  
HETATM   14  O   UNL     1      -8.910   9.499  70.606  1.00  0.00    -0.230 OA 
HETATM   15  H   UNL     1      -8.860   9.736  71.525  1.00  0.00     0.000 HD 
BRANCH  13  16
HETATM   16  C   UNL     1     -11.275   9.161  71.082  1.00  0.00    -0.325 C  
HETATM   17  H   UNL     1     -12.812   9.754  72.142  1.00  0.00     0.000 HD 
HETATM   18  O   UNL     1     -12.174  10.171  71.576  1.00  0.00    -0.373 OA 
BRANCH  16  19
HETATM   19  C   UNL     1     -10.639   8.410  72.257  1.00  0.00    -0.342 C  
BRANCH  19  20
HETATM   20  O   UNL     1     -10.072   7.193  71.753  1.00  0.00    -0.184 OA 
HETATM   21  S   UNL     1     -11.118   6.007  71.373  1.00  0.00    -0.251 S  
HETATM   22  C   UNL     1      -9.922   4.814  70.819  1.00  0.00    -0.221 C  
HETATM   23  O   UNL     1     -11.910   6.438  70.240  1.00  0.00    -0.396 OA 
HETATM   24  O   UNL     1     -11.722   5.524  72.597  1.00  0.00    -0.293 OA 
ENDBRANCH  19  20
ENDBRANCH  16  19
ENDBRANCH  13  16
ENDBRANCH  10  13
ENDBRANCH   7  10
ENDBRANCH   6   7
ENDBRANCH   3   6
TORSDOF 7
ENDMDL
MODEL      216
REMARK 921   NORMALIZED FREE ENERGY PREDICTED BY IDOCK:   -3.67 KCAL/MOL
REMARK 922        TOTAL FREE ENERGY PREDICTED BY IDOCK:   -6.42 KCAL/MOL
REMARK 923 INTER-LIGAND FREE ENERGY PREDICTED BY IDOCK:   -5.70 KCAL/MOL
REMARK 924 INTRA-LIGAND FREE ENERGY PREDICTED BY IDOCK:   -0.73 KCAL/MOL
REMARK 927      BINDING AFFINITY PREDICTED BY RF-SCORE:    0.00 PKD
ROOT
HETATM    1  C   UNL     1      -6.253  10.575  65.881  1.00  0.00    -0.128 C  
HETATM    2  S   UNL     1      -7.809   9.724  65.862  1.00  0.00    -0.112 S  
HETATM    3  O   UNL     1      -8.813  11.005  65.664  1.00  0.00    -0.189 OA 
HETATM    4  O   UNL     1      -7.872   8.910  64.667  1.00  0.00    -0.111 OA 
HETATM    5  O   UNL     1      -8.047   9.171  67.180  1.00  0.00    -0.108 OA 
ENDROOT
BRANCH   3   6
HETATM    6  C   UNL     1     -10.198  10.654  65.585  1.00  0.00    -0.253 C  
BRANCH   6   7
HETATM    7  C   UNL     1     -11.010  11.246  66.741  1.00  0.00    -0.281 C  
HETATM    8  O   UNL     1     -10.450  10.808  67.995  1.00  0.00    -0.175 OA 
HETATM    9  H   UNL     1     -10.954  11.175  68.712  1.00  0.00     0.000 HD 
BRANCH   7  10
HETATM   10  C   UNL     1     -10.967  12.789  66.750  1.00  0.00    -0.270 C  
HETATM   11  H   UNL     1     -10.981  14.219  65.391  1.00  0.00     0.000 HD 
HETATM   12  O   UNL     1     -11.007  13.269  65.385  1.00  0.00    -0.279 OA 
BRANCH  10  13
HETATM   13  C   UNL     1     -12.112  13.498  67.499  1.00  0.00    -0.300 C  
HETATM   14  O   UNL     1     -12.781  14.339  66.536  1.00  0.00    -0.521 OA 
HETATM   15  H   UNL     1     -13.486  14.776  66.998  1.00  0.00     0.000 HD 
BRANCH  13  16
HETATM   16  C   UNL     1     -11.690  14.343  68.714  1.00  0.00    -0.337 C  
HETATM   17  H   UNL     1      -9.994  14.841  69.560  1.00  0.00     0.000 HD 
HETATM   18  O   UNL     1     -10.254  14.319  68.811  1.00  0.00    -0.231 OA 
BRANCH  16  19
HETATM   19  C   UNL     1     -12.309  13.859  70.030  1.00  0.00    -0.316 C  
BRANCH  19  20
HETATM   20  O   UNL     1     -12.028  14.838  71.040  1.00  0.00    -0.297 OA 
HETATM   21  S   UNL     1     -13.240  15.195  72.064  1.00  0.00    -0.421 S  
HETATM   22  C   UNL     1     -12.366  16.386  73.051  1.00  0.00    -0.398 C  
HETATM   23  O   UNL     1     -13.517  14.026  72.874  1.00  0.00    -0.647 OA 
HETATM   24  O   UNL     1     -14.276  15.880  71.320  1.00  0.00    -0.322 OA 
ENDBRANCH  19  20
ENDBRANCH  16  19
ENDBRANCH  13  16
ENDBRANCH  10  13
ENDBRANCH   7  10
ENDBRANCH   6   7
ENDBRANCH   3   6
TORSDOF 7
ENDMDL
MODEL      217
REMARK 921   NORMALIZED FREE ENERGY PREDICTED BY IDOCK:   -3.67 KCAL/MOL
REMARK 922        TOTAL FREE ENERGY PREDICTED BY IDOCK:   -6.42 KCAL/MOL
REMARK 923 INTER-LIGAND FREE ENERGY PREDICTED BY IDOCK:   -6.17 KCAL/MOL
REMARK 924 INTRA-LIGAND FREE ENERGY PREDICTED BY IDOCK:   -0.24 KCAL/MOL
REMARK 927      BINDING AFFINITY PREDICTED BY RF-SCORE:    0.00 PKD
ROOT
HETATM    1  C   UNL     1     -12.425  12.074  63.413  1.00  0.00    -0.509 C  
HETATM    2  S   UNL     1     -12.032  13.297  64.637  1.00  0.00    -0.419 S  
HETATM    3  O   UNL     1     -12.084  12.358  65.980  1.00  0.00    -0.600 OA 
HETATM    4  O   UNL     1     -10.664  13.725  64.436  1.00  0.00    -0.407 OA 
HETATM    5  O   UNL     1     -13.128  14.242  64.711  1.00  0.00    -0.599 OA 
ENDROOT
BRANCH   3   6
HETATM    6  C   UNL     1     -11.783  13.056  67.192  1.00  0.00    -0.382 C  
BRANCH   6   7
HETATM    7  C   UNL     1     -10.536  12.497  67.884  1.00  0.00    -0.218 C  
HETATM    8  O   UNL     1     -10.313  13.205  69.120  1.00  0.00    -0.434 OA 
HETATM    9  H   UNL     1      -9.540  12.858  69.549  1.00  0.00     0.000 HD 
BRANCH   7  10
HETATM   10  C   UNL     1     -10.695  11.005  68.250  1.00  0.00    -0.196 C  
HETATM   11  H   UNL     1     -12.176   9.702  68.288  1.00  0.00     0.000 HD 
HETATM   12  O   UNL     1     -12.078  10.620  68.063  1.00  0.00    -0.366 OA 
BRANCH  10  13
HETATM   13  C   UNL     1      -9.848  10.010  67.435  1.00  0.00    -0.185 C  
HETATM   14  O   UNL     1     -10.366  10.028  66.088  1.00  0.00    -0.224 OA 
HETATM   15  H   UNL     1      -9.843   9.415  65.586  1.00  0.00     0.000 HD 
BRANCH  13  16
HETATM   16  C   UNL     1      -9.831   8.563  67.959  1.00  0.00    -0.169 C  
HETATM   17  H   UNL     1     -10.739   6.889  67.497  1.00  0.00     0.000 HD 
HETATM   18  O   UNL     1     -10.750   7.782  67.173  1.00  0.00    -0.333 OA 
BRANCH  16  19
HETATM   19  C   UNL     1     -10.194   8.455  69.445  1.00  0.00    -0.208 C  
BRANCH  19  20
HETATM   20  O   UNL     1      -9.238   7.591  70.074  1.00  0.00    -0.151 OA 
HETATM   21  S   UNL     1      -8.735   8.023  71.559  1.00  0.00    -0.147 S  
HETATM   22  C   UNL     1      -7.634   6.655  71.837  1.00  0.00    -0.096 C  
HETATM   23  O   UNL     1      -9.854   7.917  72.473  1.00  0.00    -0.193 OA 
HETATM   24  O   UNL     1      -7.949   9.233  71.439  1.00  0.00    -0.335 OA 
ENDBRANCH  19  20
ENDBRANCH  16  19
ENDBRANCH  13  16
ENDBRANCH  10  13
ENDBRANCH   7  10
ENDBRANCH   6   7
ENDBRANCH   3   6
TORSDOF 7
ENDMDL
MODEL      218
REMARK 921   NORMALIZED FREE ENERGY PREDICTED BY IDOCK:   -3.67 KCAL/MOL
REMARK 922        TOTAL FREE ENERGY PREDICTED BY IDOCK:   -6.41 KCAL/MOL
REMARK 923 INTER-LIGAND FREE ENERGY PREDICTED BY IDOCK:   -5.63 KCAL/MOL
REMARK 924 INTRA-LIGAND FREE ENERGY PREDICTED BY IDOCK:   -0.78 KCAL/MOL
REMARK 927      BINDING AFFINITY PREDICTED BY RF-SCORE:    0.00 PKD
ROOT
HETATM    1  C   UNL     1     -10.780   9.846  70.646  1.00  0.00    -0.303 C  
HETATM    2  S   UNL     1     -12.119  10.796  69.971  1.00  0.00    -0.347 S  
HETATM    3  O   UNL     1     -11.622  12.299  70.398  1.00  0.00    -0.151 OA 
HETATM    4  O   UNL     1     -12.071  10.695  68.528  1.00  0.00    -0.420 OA 
HETATM    5  O   UNL     1     -13.321  10.494  70.722  1.00  0.00    -0.273 OA 
ENDROOT
BRANCH   3   6
HETATM    6  C   UNL     1     -12.499  13.346  69.971  1.00  0.00    -0.137 C  
BRANCH   6   7
HETATM    7  C   UNL     1     -11.770  14.408  69.143  1.00  0.00    -0.317 C  
HETATM    8  O   UNL     1     -12.492  14.643  67.918  1.00  0.00    -0.586 OA 
HETATM    9  H   UNL     1     -12.039  15.302  67.404  1.00  0.00     0.000 HD 
BRANCH   7  10
HETATM   10  C   UNL     1     -11.689  15.763  69.878  1.00  0.00    -0.357 C  
HETATM   11  H   UNL     1     -11.768  16.369  71.754  1.00  0.00     0.000 HD 
HETATM   12  O   UNL     1     -11.818  15.535  71.302  1.00  0.00    -0.321 OA 
BRANCH  10  13
HETATM   13  C   UNL     1     -10.393  16.571  69.677  1.00  0.00    -0.221 C  
HETATM   14  O   UNL     1     -10.788  17.895  69.260  1.00  0.00    -0.222 OA 
HETATM   15  H   UNL     1      -9.989  18.393  69.136  1.00  0.00     0.000 HD 
BRANCH  13  16
HETATM   16  C   UNL     1      -9.395  15.989  68.661  1.00  0.00    -0.214 C  
HETATM   17  H   UNL     1      -7.524  15.408  68.701  1.00  0.00     0.000 HD 
HETATM   18  O   UNL     1      -8.139  15.768  69.328  1.00  0.00    -0.222 OA 
BRANCH  16  19
HETATM   19  C   UNL     1      -9.184  16.889  67.438  1.00  0.00    -0.222 C  
BRANCH  19  20
HETATM   20  O   UNL     1      -8.493  18.069  67.869  1.00  0.00    -0.243 OA 
HETATM   21  S   UNL     1      -7.208  18.524  66.981  1.00  0.00    -0.205 S  
HETATM   22  C   UNL     1      -6.780  19.972  67.919  1.00  0.00    -0.260 C  
HETATM   23  O   UNL     1      -7.675  18.933  65.672  1.00  0.00    -0.478 OA 
HETATM   24  O   UNL     1      -6.164  17.535  67.152  1.00  0.00    -0.135 OA 
ENDBRANCH  19  20
ENDBRANCH  16  19
ENDBRANCH  13  16
ENDBRANCH  10  13
ENDBRANCH   7  10
ENDBRANCH   6   7
ENDBRANCH   3   6
TORSDOF 7
ENDMDL
MODEL      219
REMARK 921   NORMALIZED FREE ENERGY PREDICTED BY IDOCK:   -3.66 KCAL/MOL
REMARK 922        TOTAL FREE ENERGY PREDICTED BY IDOCK:   -6.40 KCAL/MOL
REMARK 923 INTER-LIGAND FREE ENERGY PREDICTED BY IDOCK:   -5.52 KCAL/MOL
REMARK 924 INTRA-LIGAND FREE ENERGY PREDICTED BY IDOCK:   -0.88 KCAL/MOL
REMARK 927      BINDING AFFINITY PREDICTED BY RF-SCORE:    0.00 PKD
ROOT
HETATM    1  C   UNL     1      -7.036  20.983  67.269  1.00  0.00    -0.364 C  
HETATM    2  S   UNL     1      -6.916  19.246  67.616  1.00  0.00    -0.218 S  
HETATM    3  O   UNL     1      -8.231  18.717  66.794  1.00  0.00    -0.260 OA 
HETATM    4  O   UNL     1      -5.733  18.729  66.962  1.00  0.00    -0.148 OA 
HETATM    5  O   UNL     1      -7.161  19.042  69.029  1.00  0.00    -0.322 OA 
ENDROOT
BRANCH   3   6
HETATM    6  C   UNL     1      -8.424  17.300  66.852  1.00  0.00    -0.226 C  
BRANCH   6   7
HETATM    7  C   UNL     1      -9.725  16.924  67.568  1.00  0.00    -0.249 C  
HETATM    8  O   UNL     1     -10.384  18.121  68.027  1.00  0.00    -0.363 OA 
HETATM    9  H   UNL     1     -11.192  17.888  68.471  1.00  0.00     0.000 HD 
BRANCH   7  10
HETATM   10  C   UNL     1     -10.716  16.203  66.629  1.00  0.00    -0.226 C  
HETATM   11  H   UNL     1     -10.974  16.053  64.679  1.00  0.00     0.000 HD 
HETATM   12  O   UNL     1     -10.364  16.497  65.257  1.00  0.00    -0.596 OA 
BRANCH  10  13
HETATM   13  C   UNL     1     -10.775  14.669  66.749  1.00  0.00    -0.301 C  
HETATM   14  O   UNL     1     -12.167  14.315  66.883  1.00  0.00    -0.501 OA 
HETATM   15  H   UNL     1     -12.203  13.369  66.958  1.00  0.00     0.000 HD 
BRANCH  13  16
HETATM   16  C   UNL     1      -9.976  14.061  67.915  1.00  0.00    -0.237 C  
HETATM   17  H   UNL     1      -8.333  13.007  68.097  1.00  0.00     0.000 HD 
HETATM   18  O   UNL     1      -8.826  13.382  67.377  1.00  0.00    -0.193 OA 
BRANCH  16  19
HETATM   19  C   UNL     1     -10.799  13.092  68.771  1.00  0.00    -0.244 C  
BRANCH  19  20
HETATM   20  O   UNL     1     -10.883  11.842  68.073  1.00  0.00    -0.198 OA 
HETATM   21  S   UNL     1     -10.475  10.511  68.912  1.00  0.00    -0.220 S  
HETATM   22  C   UNL     1     -10.767   9.324  67.622  1.00  0.00    -0.209 C  
HETATM   23  O   UNL     1     -11.451  10.312  69.963  1.00  0.00    -0.260 OA 
HETATM   24  O   UNL     1      -9.052  10.562  69.181  1.00  0.00    -0.178 OA 
ENDBRANCH  19  20
ENDBRANCH  16  19
ENDBRANCH  13  16
ENDBRANCH  10  13
ENDBRANCH   7  10
ENDBRANCH   6   7
ENDBRANCH   3   6
TORSDOF 7
ENDMDL
MODEL      220
REMARK 921   NORMALIZED FREE ENERGY PREDICTED BY IDOCK:   -3.66 KCAL/MOL
REMARK 922        TOTAL FREE ENERGY PREDICTED BY IDOCK:   -6.40 KCAL/MOL
REMARK 923 INTER-LIGAND FREE ENERGY PREDICTED BY IDOCK:   -6.28 KCAL/MOL
REMARK 924 INTRA-LIGAND FREE ENERGY PREDICTED BY IDOCK:   -0.12 KCAL/MOL
REMARK 927      BINDING AFFINITY PREDICTED BY RF-SCORE:    0.00 PKD
ROOT
HETATM    1  C   UNL     1     -12.255  15.999  72.917  1.00  0.00    -0.517 C  
HETATM    2  S   UNL     1     -13.199  14.875  71.920  1.00  0.00    -0.387 S  
HETATM    3  O   UNL     1     -11.980  14.180  71.073  1.00  0.00    -0.333 OA 
HETATM    4  O   UNL     1     -13.781  13.871  72.785  1.00  0.00    -0.686 OA 
HETATM    5  O   UNL     1     -14.003  15.647  70.993  1.00  0.00    -0.534 OA 
ENDROOT
BRANCH   3   6
HETATM    6  C   UNL     1     -12.411  13.170  70.154  1.00  0.00    -0.213 C  
BRANCH   6   7
HETATM    7  C   UNL     1     -11.539  13.128  68.895  1.00  0.00    -0.311 C  
HETATM    8  O   UNL     1     -10.149  13.073  69.274  1.00  0.00    -0.364 OA 
HETATM    9  H   UNL     1      -9.608  13.046  68.493  1.00  0.00     0.000 HD 
BRANCH   7  10
HETATM   10  C   UNL     1     -11.816  11.873  68.039  1.00  0.00    -0.253 C  
HETATM   11  H   UNL     1     -11.085  11.094  66.381  1.00  0.00     0.000 HD 
HETATM   12  O   UNL     1     -10.914  11.867  66.907  1.00  0.00    -0.259 OA 
BRANCH  10  13
HETATM   13  C   UNL     1     -11.644  10.515  68.746  1.00  0.00    -0.182 C  
HETATM   14  O   UNL     1     -11.823  10.755  70.158  1.00  0.00    -0.282 OA 
HETATM   15  H   UNL     1     -11.716   9.918  70.593  1.00  0.00     0.000 HD 
BRANCH  13  16
HETATM   16  C   UNL     1     -10.297   9.808  68.512  1.00  0.00    -0.202 C  
HETATM   17  H   UNL     1      -9.727   8.033  67.908  1.00  0.00     0.000 HD 
HETATM   18  O   UNL     1     -10.558   8.469  68.052  1.00  0.00    -0.207 OA 
BRANCH  16  19
HETATM   19  C   UNL     1      -9.412   9.766  69.763  1.00  0.00    -0.228 C  
BRANCH  19  20
HETATM   20  O   UNL     1      -9.472   8.440  70.307  1.00  0.00    -0.161 OA 
HETATM   21  S   UNL     1      -9.647   8.323  71.919  1.00  0.00    -0.248 S  
HETATM   22  C   UNL     1      -9.674   6.549  72.020  1.00  0.00    -0.149 C  
HETATM   23  O   UNL     1     -10.955   8.833  72.278  1.00  0.00    -0.359 OA 
HETATM   24  O   UNL     1      -8.433   8.804  72.545  1.00  0.00    -0.403 OA 
ENDBRANCH  19  20
ENDBRANCH  16  19
ENDBRANCH  13  16
ENDBRANCH  10  13
ENDBRANCH   7  10
ENDBRANCH   6   7
ENDBRANCH   3   6
TORSDOF 7
ENDMDL
MODEL      221
REMARK 921   NORMALIZED FREE ENERGY PREDICTED BY IDOCK:   -3.65 KCAL/MOL
REMARK 922        TOTAL FREE ENERGY PREDICTED BY IDOCK:   -6.40 KCAL/MOL
REMARK 923 INTER-LIGAND FREE ENERGY PREDICTED BY IDOCK:   -5.61 KCAL/MOL
REMARK 924 INTRA-LIGAND FREE ENERGY PREDICTED BY IDOCK:   -0.78 KCAL/MOL
REMARK 927      BINDING AFFINITY PREDICTED BY RF-SCORE:    0.00 PKD
ROOT
HETATM    1  C   UNL     1     -10.467  17.779  68.429  1.00  0.00    -0.347 C  
HETATM    2  S   UNL     1     -10.549  16.203  69.239  1.00  0.00    -0.304 S  
HETATM    3  O   UNL     1     -11.444  15.382  68.139  1.00  0.00    -0.335 OA 
HETATM    4  O   UNL     1      -9.220  15.629  69.262  1.00  0.00    -0.237 OA 
HETATM    5  O   UNL     1     -11.342  16.345  70.443  1.00  0.00    -0.349 OA 
ENDROOT
BRANCH   3   6
HETATM    6  C   UNL     1     -11.688  14.016  68.488  1.00  0.00    -0.352 C  
BRANCH   6   7
HETATM    7  C   UNL     1     -11.777  13.113  67.254  1.00  0.00    -0.374 C  
HETATM    8  O   UNL     1     -11.673  13.916  66.062  1.00  0.00    -0.338 OA 
HETATM    9  H   UNL     1     -11.728  13.355  65.296  1.00  0.00     0.000 HD 
BRANCH   7  10
HETATM   10  C   UNL     1     -10.623  12.088  67.201  1.00  0.00    -0.224 C  
HETATM   11  H   UNL     1      -8.976  11.747  68.232  1.00  0.00     0.000 HD 
HETATM   12  O   UNL     1      -9.686  12.378  68.265  1.00  0.00    -0.215 OA 
BRANCH  10  13
HETATM   13  C   UNL     1     -11.019  10.607  67.355  1.00  0.00    -0.298 C  
HETATM   14  O   UNL     1     -12.050  10.556  68.364  1.00  0.00    -0.804 OA 
HETATM   15  H   UNL     1     -12.294   9.643  68.459  1.00  0.00     0.000 HD 
BRANCH  13  16
HETATM   16  C   UNL     1      -9.878   9.648  67.737  1.00  0.00    -0.159 C  
HETATM   17  H   UNL     1      -8.435   8.728  66.782  1.00  0.00     0.000 HD 
HETATM   18  O   UNL     1      -9.140   9.319  66.546  1.00  0.00    -0.142 OA 
BRANCH  16  19
HETATM   19  C   UNL     1     -10.369   8.365  68.417  1.00  0.00    -0.200 C  
BRANCH  19  20
HETATM   20  O   UNL     1     -10.335   8.572  69.835  1.00  0.00    -0.200 OA 
HETATM   21  S   UNL     1      -9.313   7.632  70.683  1.00  0.00    -0.162 S  
HETATM   22  C   UNL     1      -9.664   8.301  72.291  1.00  0.00    -0.292 C  
HETATM   23  O   UNL     1      -7.956   7.981  70.315  1.00  0.00    -0.099 OA 
HETATM   24  O   UNL     1      -9.801   6.269  70.631  1.00  0.00    -0.181 OA 
ENDBRANCH  19  20
ENDBRANCH  16  19
ENDBRANCH  13  16
ENDBRANCH  10  13
ENDBRANCH   7  10
ENDBRANCH   6   7
ENDBRANCH   3   6
TORSDOF 7
ENDMDL
MODEL      222
REMARK 921   NORMALIZED FREE ENERGY PREDICTED BY IDOCK:   -3.65 KCAL/MOL
REMARK 922        TOTAL FREE ENERGY PREDICTED BY IDOCK:   -6.40 KCAL/MOL
REMARK 923 INTER-LIGAND FREE ENERGY PREDICTED BY IDOCK:   -5.74 KCAL/MOL
REMARK 924 INTRA-LIGAND FREE ENERGY PREDICTED BY IDOCK:   -0.66 KCAL/MOL
REMARK 927      BINDING AFFINITY PREDICTED BY RF-SCORE:    0.00 PKD
ROOT
HETATM    1  C   UNL     1      -6.128   9.878  65.005  1.00  0.00    -0.100 C  
HETATM    2  S   UNL     1      -7.774   9.297  64.687  1.00  0.00    -0.122 S  
HETATM    3  O   UNL     1      -8.543  10.737  64.537  1.00  0.00    -0.147 OA 
HETATM    4  O   UNL     1      -7.787   8.639  63.398  1.00  0.00    -0.135 OA 
HETATM    5  O   UNL     1      -8.272   8.648  65.883  1.00  0.00    -0.111 OA 
ENDROOT
BRANCH   3   6
HETATM    6  C   UNL     1      -9.939  10.625  64.246  1.00  0.00    -0.349 C  
BRANCH   6   7
HETATM    7  C   UNL     1     -10.506  11.911  63.637  1.00  0.00    -0.447 C  
HETATM    8  O   UNL     1     -11.674  11.599  62.853  1.00  0.00    -0.791 OA 
HETATM    9  H   UNL     1     -12.025  12.397  62.476  1.00  0.00     0.000 HD 
BRANCH   7  10
HETATM   10  C   UNL     1     -10.953  12.917  64.720  1.00  0.00    -0.318 C  
HETATM   11  H   UNL     1     -11.845  14.677  64.743  1.00  0.00     0.000 HD 
HETATM   12  O   UNL     1     -11.569  14.058  64.077  1.00  0.00    -0.310 OA 
BRANCH  10  13
HETATM   13  C   UNL     1     -11.968  12.396  65.756  1.00  0.00    -0.372 C  
HETATM   14  O   UNL     1     -13.279  12.586  65.185  1.00  0.00    -0.573 OA 
HETATM   15  H   UNL     1     -13.904  12.265  65.824  1.00  0.00     0.000 HD 
BRANCH  13  16
HETATM   16  C   UNL     1     -11.908  13.065  67.141  1.00  0.00    -0.373 C  
HETATM   17  H   UNL     1     -11.783  14.903  67.811  1.00  0.00     0.000 HD 
HETATM   18  O   UNL     1     -11.819  14.490  66.956  1.00  0.00    -0.394 OA 
BRANCH  16  19
HETATM   19  C   UNL     1     -10.735  12.576  67.998  1.00  0.00    -0.221 C  
BRANCH  19  20
HETATM   20  O   UNL     1     -10.133  13.719  68.621  1.00  0.00    -0.231 OA 
HETATM   21  S   UNL     1      -8.599  14.055  68.196  1.00  0.00    -0.189 S  
HETATM   22  C   UNL     1      -8.389  15.499  69.211  1.00  0.00    -0.257 C  
HETATM   23  O   UNL     1      -8.585  14.453  66.803  1.00  0.00    -0.201 OA 
HETATM   24  O   UNL     1      -7.746  13.002  68.706  1.00  0.00    -0.094 OA 
ENDBRANCH  19  20
ENDBRANCH  16  19
ENDBRANCH  13  16
ENDBRANCH  10  13
ENDBRANCH   7  10
ENDBRANCH   6   7
ENDBRANCH   3   6
TORSDOF 7
ENDMDL
MODEL      223
REMARK 921   NORMALIZED FREE ENERGY PREDICTED BY IDOCK:   -3.63 KCAL/MOL
REMARK 922        TOTAL FREE ENERGY PREDICTED BY IDOCK:   -6.37 KCAL/MOL
REMARK 923 INTER-LIGAND FREE ENERGY PREDICTED BY IDOCK:   -5.02 KCAL/MOL
REMARK 924 INTRA-LIGAND FREE ENERGY PREDICTED BY IDOCK:   -1.35 KCAL/MOL
REMARK 927      BINDING AFFINITY PREDICTED BY RF-SCORE:    0.00 PKD
ROOT
HETATM    1  C   UNL     1     -13.074  11.752  71.921  1.00  0.00    -0.376 C  
HETATM    2  S   UNL     1     -12.223  11.128  70.494  1.00  0.00    -0.393 S  
HETATM    3  O   UNL     1     -11.314   9.967  71.210  1.00  0.00    -0.357 OA 
HETATM    4  O   UNL     1     -13.188  10.481  69.631  1.00  0.00     0.063 OA 
HETATM    5  O   UNL     1     -11.328  12.158  70.006  1.00  0.00    -0.135 OA 
ENDROOT
BRANCH   3   6
HETATM    6  C   UNL     1     -10.491   9.228  70.302  1.00  0.00    -0.228 C  
BRANCH   6   7
HETATM    7  C   UNL     1     -10.804   7.730  70.329  1.00  0.00    -0.249 C  
HETATM    8  O   UNL     1     -12.227   7.533  70.207  1.00  0.00    -0.495 OA 
HETATM    9  H   UNL     1     -12.421   6.603  70.223  1.00  0.00     0.000 HD 
BRANCH   7  10
HETATM   10  C   UNL     1     -10.149   6.978  69.150  1.00  0.00    -0.180 C  
HETATM   11  H   UNL     1     -10.294   5.178  68.356  1.00  0.00     0.000 HD 
HETATM   12  O   UNL     1     -10.698   5.640  69.082  1.00  0.00    -0.276 OA 
BRANCH  10  13
HETATM   13  C   UNL     1     -10.338   7.603  67.755  1.00  0.00    -0.219 C  
HETATM   14  O   UNL     1     -11.480   6.952  67.159  1.00  0.00    -0.703 OA 
HETATM   15  H   UNL     1     -11.596   7.337  66.299  1.00  0.00     0.000 HD 
BRANCH  13  16
HETATM   16  C   UNL     1      -9.131   7.492  66.806  1.00  0.00    -0.148 C  
HETATM   17  H   UNL     1      -7.190   7.320  67.015  1.00  0.00     0.000 HD 
HETATM   18  O   UNL     1      -7.934   7.389  67.600  1.00  0.00    -0.111 OA 
BRANCH  16  19
HETATM   19  C   UNL     1      -9.014   8.674  65.838  1.00  0.00    -0.200 C  
BRANCH  19  20
HETATM   20  O   UNL     1     -10.072   9.596  66.131  1.00  0.00    -0.277 OA 
HETATM   21  S   UNL     1      -9.643  11.148  66.359  1.00  0.00    -0.207 S  
HETATM   22  C   UNL     1     -11.270  11.797  66.656  1.00  0.00    -0.323 C  
HETATM   23  O   UNL     1      -9.148  11.678  65.105  1.00  0.00    -0.071 OA 
HETATM   24  O   UNL     1      -8.879  11.233  67.587  1.00  0.00    -0.134 OA 
ENDBRANCH  19  20
ENDBRANCH  16  19
ENDBRANCH  13  16
ENDBRANCH  10  13
ENDBRANCH   7  10
ENDBRANCH   6   7
ENDBRANCH   3   6
TORSDOF 7
ENDMDL
MODEL      224
REMARK 921   NORMALIZED FREE ENERGY PREDICTED BY IDOCK:   -3.63 KCAL/MOL
REMARK 922        TOTAL FREE ENERGY PREDICTED BY IDOCK:   -6.36 KCAL/MOL
REMARK 923 INTER-LIGAND FREE ENERGY PREDICTED BY IDOCK:   -6.01 KCAL/MOL
REMARK 924 INTRA-LIGAND FREE ENERGY PREDICTED BY IDOCK:   -0.36 KCAL/MOL
REMARK 927      BINDING AFFINITY PREDICTED BY RF-SCORE:    0.00 PKD
ROOT
HETATM    1  C   UNL     1     -12.607  11.922  63.470  1.00  0.00    -0.459 C  
HETATM    2  S   UNL     1     -12.027  13.245  64.502  1.00  0.00    -0.423 S  
HETATM    3  O   UNL     1     -12.187  12.530  65.968  1.00  0.00    -0.605 OA 
HETATM    4  O   UNL     1     -10.616  13.442  64.245  1.00  0.00    -0.420 OA 
HETATM    5  O   UNL     1     -12.979  14.335  64.430  1.00  0.00    -0.503 OA 
ENDROOT
BRANCH   3   6
HETATM    6  C   UNL     1     -11.771  13.350  67.065  1.00  0.00    -0.381 C  
BRANCH   6   7
HETATM    7  C   UNL     1     -10.745  12.643  67.956  1.00  0.00    -0.226 C  
HETATM    8  O   UNL     1     -10.440  13.475  69.093  1.00  0.00    -0.420 OA 
HETATM    9  H   UNL     1      -9.804  13.036  69.646  1.00  0.00     0.000 HD 
BRANCH   7  10
HETATM   10  C   UNL     1     -11.285  11.308  68.515  1.00  0.00    -0.252 C  
HETATM   11  H   UNL     1     -11.690   9.521  67.783  1.00  0.00     0.000 HD 
HETATM   12  O   UNL     1     -11.358  10.343  67.439  1.00  0.00    -0.355 OA 
BRANCH  10  13
HETATM   13  C   UNL     1     -10.456  10.655  69.637  1.00  0.00    -0.179 C  
HETATM   14  O   UNL     1      -9.068  10.860  69.302  1.00  0.00    -0.368 OA 
HETATM   15  H   UNL     1      -8.557  10.457  69.993  1.00  0.00     0.000 HD 
BRANCH  13  16
HETATM   16  C   UNL     1     -10.712   9.155  69.868  1.00  0.00    -0.231 C  
HETATM   17  H   UNL     1     -11.607   8.076  71.238  1.00  0.00     0.000 HD 
HETATM   18  O   UNL     1     -11.448   9.002  71.096  1.00  0.00    -0.270 OA 
BRANCH  16  19
HETATM   19  C   UNL     1      -9.425   8.324  69.925  1.00  0.00    -0.167 C  
BRANCH  19  20
HETATM   20  O   UNL     1      -9.733   6.997  69.477  1.00  0.00    -0.159 OA 
HETATM   21  S   UNL     1      -9.327   6.633  67.945  1.00  0.00    -0.107 S  
HETATM   22  C   UNL     1      -9.899   4.951  67.948  1.00  0.00    -0.143 C  
HETATM   23  O   UNL     1      -7.883   6.639  67.838  1.00  0.00    -0.109 OA 
HETATM   24  O   UNL     1     -10.169   7.408  67.056  1.00  0.00    -0.231 OA 
ENDBRANCH  19  20
ENDBRANCH  16  19
ENDBRANCH  13  16
ENDBRANCH  10  13
ENDBRANCH   7  10
ENDBRANCH   6   7
ENDBRANCH   3   6
TORSDOF 7
ENDMDL
MODEL      225
REMARK 921   NORMALIZED FREE ENERGY PREDICTED BY IDOCK:   -3.62 KCAL/MOL
REMARK 922        TOTAL FREE ENERGY PREDICTED BY IDOCK:   -6.35 KCAL/MOL
REMARK 923 INTER-LIGAND FREE ENERGY PREDICTED BY IDOCK:   -5.65 KCAL/MOL
REMARK 924 INTRA-LIGAND FREE ENERGY PREDICTED BY IDOCK:   -0.70 KCAL/MOL
REMARK 927      BINDING AFFINITY PREDICTED BY RF-SCORE:    0.00 PKD
ROOT
HETATM    1  C   UNL     1      -9.939  20.027  66.696  1.00  0.00    -0.470 C  
HETATM    2  S   UNL     1      -9.768  18.356  67.269  1.00  0.00    -0.308 S  
HETATM    3  O   UNL     1      -9.982  17.563  65.851  1.00  0.00    -0.511 OA 
HETATM    4  O   UNL     1      -8.401  18.156  67.699  1.00  0.00    -0.239 OA 
HETATM    5  O   UNL     1     -10.895  18.048  68.127  1.00  0.00    -0.303 OA 
ENDROOT
BRANCH   3   6
HETATM    6  C   UNL     1      -9.882  16.140  65.958  1.00  0.00    -0.347 C  
BRANCH   6   7
HETATM    7  C   UNL     1     -11.228  15.448  65.717  1.00  0.00    -0.196 C  
HETATM    8  O   UNL     1     -11.572  15.538  64.321  1.00  0.00    -0.695 OA 
HETATM    9  H   UNL     1     -12.407  15.109  64.172  1.00  0.00     0.000 HD 
BRANCH   7  10
HETATM   10  C   UNL     1     -11.178  13.945  66.067  1.00  0.00    -0.300 C  
HETATM   11  H   UNL     1     -11.790  12.269  65.225  1.00  0.00     0.000 HD 
HETATM   12  O   UNL     1     -11.820  13.194  65.009  1.00  0.00    -0.323 OA 
BRANCH  10  13
HETATM   13  C   UNL     1      -9.776  13.334  66.251  1.00  0.00    -0.268 C  
HETATM   14  O   UNL     1      -9.628  12.320  65.235  1.00  0.00    -0.415 OA 
HETATM   15  H   UNL     1      -8.764  11.944  65.348  1.00  0.00     0.000 HD 
BRANCH  13  16
HETATM   16  C   UNL     1      -9.492  12.721  67.634  1.00  0.00    -0.190 C  
HETATM   17  H   UNL     1      -8.726  13.355  69.322  1.00  0.00     0.000 HD 
HETATM   18  O   UNL     1      -8.901  13.734  68.469  1.00  0.00    -0.174 OA 
BRANCH  16  19
HETATM   19  C   UNL     1      -8.576  11.494  67.574  1.00  0.00    -0.143 C  
BRANCH  19  20
HETATM   20  O   UNL     1      -9.391  10.323  67.711  1.00  0.00    -0.143 OA 
HETATM   21  S   UNL     1      -9.034   9.329  68.948  1.00  0.00    -0.137 S  
HETATM   22  C   UNL     1     -10.307   8.124  68.651  1.00  0.00    -0.200 C  
HETATM   23  O   UNL     1      -9.321  10.018  70.189  1.00  0.00    -0.195 OA 
HETATM   24  O   UNL     1      -7.747   8.719  68.684  1.00  0.00    -0.095 OA 
ENDBRANCH  19  20
ENDBRANCH  16  19
ENDBRANCH  13  16
ENDBRANCH  10  13
ENDBRANCH   7  10
ENDBRANCH   6   7
ENDBRANCH   3   6
TORSDOF 7
ENDMDL
MODEL      226
REMARK 921   NORMALIZED FREE ENERGY PREDICTED BY IDOCK:   -3.62 KCAL/MOL
REMARK 922        TOTAL FREE ENERGY PREDICTED BY IDOCK:   -6.34 KCAL/MOL
REMARK 923 INTER-LIGAND FREE ENERGY PREDICTED BY IDOCK:   -5.25 KCAL/MOL
REMARK 924 INTRA-LIGAND FREE ENERGY PREDICTED BY IDOCK:   -1.09 KCAL/MOL
REMARK 927      BINDING AFFINITY PREDICTED BY RF-SCORE:    0.00 PKD
ROOT
HETATM    1  C   UNL     1     -12.372  12.480  70.692  1.00  0.00    -0.282 C  
HETATM    2  S   UNL     1     -12.422  10.727  70.420  1.00  0.00    -0.326 S  
HETATM    3  O   UNL     1     -11.083  10.288  71.257  1.00  0.00    -0.149 OA 
HETATM    4  O   UNL     1     -13.580  10.190  71.102  1.00  0.00    -0.284 OA 
HETATM    5  O   UNL     1     -12.173  10.473  69.015  1.00  0.00    -0.272 OA 
ENDROOT
BRANCH   3   6
HETATM    6  C   UNL     1     -10.833   8.879  71.258  1.00  0.00    -0.290 C  
BRANCH   6   7
HETATM    7  C   UNL     1     -11.166   8.235  72.608  1.00  0.00    -0.340 C  
HETATM    8  O   UNL     1     -12.551   7.838  72.622  1.00  0.00    -0.546 OA 
HETATM    9  H   UNL     1     -12.758   7.438  73.460  1.00  0.00     0.000 HD 
BRANCH   7  10
HETATM   10  C   UNL     1     -10.335   6.960  72.864  1.00  0.00    -0.226 C  
HETATM   11  H   UNL     1      -9.752   5.937  74.447  1.00  0.00     0.000 HD 
HETATM   12  O   UNL     1     -10.263   6.723  74.290  1.00  0.00    -0.357 OA 
BRANCH  10  13
HETATM   13  C   UNL     1     -10.866   5.661  72.228  1.00  0.00    -0.242 C  
HETATM   14  O   UNL     1     -11.811   5.098  73.162  1.00  0.00    -0.521 OA 
HETATM   15  H   UNL     1     -12.139   4.297  72.770  1.00  0.00     0.000 HD 
BRANCH  13  16
HETATM   16  C   UNL     1      -9.802   4.607  71.875  1.00  0.00    -0.179 C  
HETATM   17  H   UNL     1      -7.854   4.465  72.043  1.00  0.00     0.000 HD 
HETATM   18  O   UNL     1      -8.511   5.116  72.260  1.00  0.00    -0.122 OA 
BRANCH  16  19
HETATM   19  C   UNL     1      -9.792   4.233  70.389  1.00  0.00    -0.198 C  
BRANCH  19  20
HETATM   20  O   UNL     1      -9.347   5.375  69.645  1.00  0.00    -0.127 OA 
HETATM   21  S   UNL     1     -10.295   5.855  68.414  1.00  0.00    -0.230 S  
HETATM   22  C   UNL     1      -9.312   7.241  67.892  1.00  0.00    -0.129 C  
HETATM   23  O   UNL     1     -11.544   6.345  68.960  1.00  0.00    -0.276 OA 
HETATM   24  O   UNL     1     -10.249   4.840  67.382  1.00  0.00    -0.154 OA 
ENDBRANCH  19  20
ENDBRANCH  16  19
ENDBRANCH  13  16
ENDBRANCH  10  13
ENDBRANCH   7  10
ENDBRANCH   6   7
ENDBRANCH   3   6
TORSDOF 7
ENDMDL
MODEL      227
REMARK 921   NORMALIZED FREE ENERGY PREDICTED BY IDOCK:   -3.61 KCAL/MOL
REMARK 922        TOTAL FREE ENERGY PREDICTED BY IDOCK:   -6.34 KCAL/MOL
REMARK 923 INTER-LIGAND FREE ENERGY PREDICTED BY IDOCK:   -5.88 KCAL/MOL
REMARK 924 INTRA-LIGAND FREE ENERGY PREDICTED BY IDOCK:   -0.46 KCAL/MOL
REMARK 927      BINDING AFFINITY PREDICTED BY RF-SCORE:    0.00 PKD
ROOT
HETATM    1  C   UNL     1      -6.311  13.546  68.550  1.00  0.00    -0.088 C  
HETATM    2  S   UNL     1      -6.232  15.301  68.298  1.00  0.00    -0.131 S  
HETATM    3  O   UNL     1      -7.701  15.539  67.611  1.00  0.00    -0.133 OA 
HETATM    4  O   UNL     1      -6.225  15.950  69.591  1.00  0.00    -0.158 OA 
HETATM    5  O   UNL     1      -5.221  15.576  67.296  1.00  0.00    -0.336 OA 
ENDROOT
BRANCH   3   6
HETATM    6  C   UNL     1      -7.979  16.905  67.288  1.00  0.00    -0.174 C  
BRANCH   6   7
HETATM    7  C   UNL     1      -8.760  17.613  68.399  1.00  0.00    -0.284 C  
HETATM    8  O   UNL     1      -8.326  18.984  68.495  1.00  0.00    -0.329 OA 
HETATM    9  H   UNL     1      -8.811  19.422  69.184  1.00  0.00     0.000 HD 
BRANCH   7  10
HETATM   10  C   UNL     1     -10.277  17.647  68.110  1.00  0.00    -0.371 C  
HETATM   11  H   UNL     1     -11.422  17.522  66.508  1.00  0.00     0.000 HD 
HETATM   12  O   UNL     1     -10.488  17.501  66.686  1.00  0.00    -0.323 OA 
BRANCH  10  13
HETATM   13  C   UNL     1     -11.125  16.558  68.794  1.00  0.00    -0.309 C  
HETATM   14  O   UNL     1     -10.974  16.746  70.217  1.00  0.00    -0.403 OA 
HETATM   15  H   UNL     1     -11.496  16.074  70.638  1.00  0.00     0.000 HD 
BRANCH  13  16
HETATM   16  C   UNL     1     -10.768  15.107  68.427  1.00  0.00    -0.248 C  
HETATM   17  H   UNL     1     -11.048  13.939  66.878  1.00  0.00     0.000 HD 
HETATM   18  O   UNL     1     -11.269  14.834  67.104  1.00  0.00    -0.324 OA 
BRANCH  16  19
HETATM   19  C   UNL     1     -11.326  14.078  69.417  1.00  0.00    -0.268 C  
BRANCH  19  20
HETATM   20  O   UNL     1     -12.549  14.598  69.957  1.00  0.00    -0.308 OA 
HETATM   21  S   UNL     1     -12.860  14.254  71.516  1.00  0.00    -0.365 S  
HETATM   22  C   UNL     1     -14.408  15.118  71.639  1.00  0.00    -0.585 C  
HETATM   23  O   UNL     1     -11.878  14.929  72.341  1.00  0.00    -0.339 OA 
HETATM   24  O   UNL     1     -13.113  12.832  71.625  1.00  0.00    -0.401 OA 
ENDBRANCH  19  20
ENDBRANCH  16  19
ENDBRANCH  13  16
ENDBRANCH  10  13
ENDBRANCH   7  10
ENDBRANCH   6   7
ENDBRANCH   3   6
TORSDOF 7
ENDMDL
MODEL      228
REMARK 921   NORMALIZED FREE ENERGY PREDICTED BY IDOCK:   -3.61 KCAL/MOL
REMARK 922        TOTAL FREE ENERGY PREDICTED BY IDOCK:   -6.33 KCAL/MOL
REMARK 923 INTER-LIGAND FREE ENERGY PREDICTED BY IDOCK:   -5.16 KCAL/MOL
REMARK 924 INTRA-LIGAND FREE ENERGY PREDICTED BY IDOCK:   -1.17 KCAL/MOL
REMARK 927      BINDING AFFINITY PREDICTED BY RF-SCORE:    0.00 PKD
ROOT
HETATM    1  C   UNL     1      -8.718  19.914  67.680  1.00  0.00    -0.334 C  
HETATM    2  S   UNL     1      -9.616  18.435  67.285  1.00  0.00    -0.296 S  
HETATM    3  O   UNL     1     -10.380  18.196  68.715  1.00  0.00    -0.362 OA 
HETATM    4  O   UNL     1     -10.612  18.757  66.286  1.00  0.00    -0.419 OA 
HETATM    5  O   UNL     1      -8.666  17.357  67.101  1.00  0.00    -0.218 OA 
ENDROOT
BRANCH   3   6
HETATM    6  C   UNL     1     -11.237  17.050  68.733  1.00  0.00     0.043 C  
BRANCH   6   7
HETATM    7  C   UNL     1     -10.866  16.070  69.851  1.00  0.00    -0.351 C  
HETATM    8  O   UNL     1     -11.805  16.201  70.936  1.00  0.00    -0.490 OA 
HETATM    9  H   UNL     1     -11.575  15.593  71.629  1.00  0.00     0.000 HD 
BRANCH   7  10
HETATM   10  C   UNL     1     -10.932  14.601  69.380  1.00  0.00    -0.257 C  
HETATM   11  H   UNL     1     -12.055  13.554  68.142  1.00  0.00     0.000 HD 
HETATM   12  O   UNL     1     -12.015  14.458  68.431  1.00  0.00    -0.331 OA 
BRANCH  10  13
HETATM   13  C   UNL     1      -9.668  14.049  68.692  1.00  0.00    -0.179 C  
HETATM   14  O   UNL     1      -9.539  14.750  67.438  1.00  0.00    -0.206 OA 
HETATM   15  H   UNL     1      -8.761  14.410  67.013  1.00  0.00     0.000 HD 
BRANCH  13  16
HETATM   16  C   UNL     1      -9.658  12.532  68.437  1.00  0.00    -0.176 C  
HETATM   17  H   UNL     1      -8.572  11.013  69.032  1.00  0.00     0.000 HD 
HETATM   18  O   UNL     1      -8.578  11.949  69.190  1.00  0.00     0.199 OA 
BRANCH  16  19
HETATM   19  C   UNL     1      -9.515  12.170  66.955  1.00  0.00    -0.210 C  
BRANCH  19  20
HETATM   20  O   UNL     1     -10.827  12.118  66.380  1.00  0.00    -0.251 OA 
HETATM   21  S   UNL     1     -11.018  12.840  64.935  1.00  0.00    -0.309 S  
HETATM   22  C   UNL     1     -12.742  12.468  64.717  1.00  0.00    -0.330 C  
HETATM   23  O   UNL     1     -10.251  12.107  63.950  1.00  0.00    -0.351 OA 
HETATM   24  O   UNL     1     -10.872  14.270  65.119  1.00  0.00    -0.332 OA 
ENDBRANCH  19  20
ENDBRANCH  16  19
ENDBRANCH  13  16
ENDBRANCH  10  13
ENDBRANCH   7  10
ENDBRANCH   6   7
ENDBRANCH   3   6
TORSDOF 7
ENDMDL
MODEL      229
REMARK 921   NORMALIZED FREE ENERGY PREDICTED BY IDOCK:   -3.61 KCAL/MOL
REMARK 922        TOTAL FREE ENERGY PREDICTED BY IDOCK:   -6.33 KCAL/MOL
REMARK 923 INTER-LIGAND FREE ENERGY PREDICTED BY IDOCK:   -5.15 KCAL/MOL
REMARK 924 INTRA-LIGAND FREE ENERGY PREDICTED BY IDOCK:   -1.17 KCAL/MOL
REMARK 927      BINDING AFFINITY PREDICTED BY RF-SCORE:    0.00 PKD
ROOT
HETATM    1  C   UNL     1     -12.176  14.211  63.648  1.00  0.00    -0.005 C  
HETATM    2  S   UNL     1     -12.038  12.775  64.682  1.00  0.00    -0.450 S  
HETATM    3  O   UNL     1     -12.014  13.503  66.150  1.00  0.00    -0.368 OA 
HETATM    4  O   UNL     1     -13.263  12.012  64.573  1.00  0.00    -0.606 OA 
HETATM    5  O   UNL     1     -10.738  12.173  64.461  1.00  0.00    -0.279 OA 
ENDROOT
BRANCH   3   6
HETATM    6  C   UNL     1     -11.927  12.593  67.251  1.00  0.00    -0.253 C  
BRANCH   6   7
HETATM    7  C   UNL     1     -11.764  13.320  68.589  1.00  0.00    -0.341 C  
HETATM    8  O   UNL     1     -10.751  12.662  69.374  1.00  0.00    -0.439 OA 
HETATM    9  H   UNL     1     -10.650  13.114  70.204  1.00  0.00     0.000 HD 
BRANCH   7  10
HETATM   10  C   UNL     1     -11.303  14.782  68.402  1.00  0.00    -0.299 C  
HETATM   11  H   UNL     1     -11.836  16.542  69.116  1.00  0.00     0.000 HD 
HETATM   12  O   UNL     1     -12.120  15.643  69.230  1.00  0.00    -0.347 OA 
BRANCH  10  13
HETATM   13  C   UNL     1      -9.837  15.085  68.766  1.00  0.00    -0.233 C  
HETATM   14  O   UNL     1      -9.849  16.271  69.587  1.00  0.00    -0.205 OA 
HETATM   15  H   UNL     1      -8.945  16.458  69.811  1.00  0.00     0.000 HD 
BRANCH  13  16
HETATM   16  C   UNL     1      -8.885  15.294  67.575  1.00  0.00    -0.179 C  
HETATM   17  H   UNL     1      -9.085  15.545  65.642  1.00  0.00     0.000 HD 
HETATM   18  O   UNL     1      -9.673  15.416  66.376  1.00  0.00    -0.252 OA 
BRANCH  16  19
HETATM   19  C   UNL     1      -7.862  14.164  67.414  1.00  0.00    -0.177 C  
BRANCH  19  20
HETATM   20  O   UNL     1      -8.579  12.941  67.200  1.00  0.00    -0.195 OA 
HETATM   21  S   UNL     1      -7.773  11.562  67.503  1.00  0.00    -0.141 S  
HETATM   22  C   UNL     1      -9.086  10.433  67.102  1.00  0.00    -0.139 C  
HETATM   23  O   UNL     1      -7.507  11.488  68.925  1.00  0.00    -0.115 OA 
HETATM   24  O   UNL     1      -6.723  11.423  66.515  1.00  0.00    -0.131 OA 
ENDBRANCH  19  20
ENDBRANCH  16  19
ENDBRANCH  13  16
ENDBRANCH  10  13
ENDBRANCH   7  10
ENDBRANCH   6   7
ENDBRANCH   3   6
TORSDOF 7
ENDMDL
MODEL      230
REMARK 921   NORMALIZED FREE ENERGY PREDICTED BY IDOCK:   -3.59 KCAL/MOL
REMARK 922        TOTAL FREE ENERGY PREDICTED BY IDOCK:   -6.31 KCAL/MOL
REMARK 923 INTER-LIGAND FREE ENERGY PREDICTED BY IDOCK:   -5.93 KCAL/MOL
REMARK 924 INTRA-LIGAND FREE ENERGY PREDICTED BY IDOCK:   -0.38 KCAL/MOL
REMARK 927      BINDING AFFINITY PREDICTED BY RF-SCORE:    0.00 PKD
ROOT
HETATM    1  C   UNL     1     -12.118  11.642  70.351  1.00  0.00    -0.373 C  
HETATM    2  S   UNL     1     -11.235  11.697  68.812  1.00  0.00    -0.271 S  
HETATM    3  O   UNL     1     -11.365  13.299  68.486  1.00  0.00    -0.247 OA 
HETATM    4  O   UNL     1      -9.843  11.398  69.070  1.00  0.00    -0.153 OA 
HETATM    5  O   UNL     1     -12.002  10.976  67.816  1.00  0.00    -0.609 OA 
ENDROOT
BRANCH   3   6
HETATM    6  C   UNL     1     -10.718  13.702  67.275  1.00  0.00    -0.279 C  
BRANCH   6   7
HETATM    7  C   UNL     1     -11.691  13.762  66.094  1.00  0.00    -0.370 C  
HETATM    8  O   UNL     1     -11.295  14.819  65.198  1.00  0.00    -0.350 OA 
HETATM    9  H   UNL     1     -11.899  14.856  64.465  1.00  0.00     0.000 HD 
BRANCH   7  10
HETATM   10  C   UNL     1     -11.688  12.456  65.271  1.00  0.00    -0.390 C  
HETATM   11  H   UNL     1     -12.971  11.499  64.118  1.00  0.00     0.000 HD 
HETATM   12  O   UNL     1     -12.974  12.303  64.625  1.00  0.00    -0.741 OA 
BRANCH  10  13
HETATM   13  C   UNL     1     -10.623  12.352  64.162  1.00  0.00    -0.385 C  
HETATM   14  O   UNL     1     -11.208  12.918  62.971  1.00  0.00    -0.662 OA 
HETATM   15  H   UNL     1     -10.552  12.854  62.287  1.00  0.00     0.000 HD 
BRANCH  13  16
HETATM   16  C   UNL     1     -10.112  10.933  63.860  1.00  0.00    -0.361 C  
HETATM   17  H   UNL     1      -9.979   9.246  64.849  1.00  0.00     0.000 HD 
HETATM   18  O   UNL     1     -10.294  10.122  65.036  1.00  0.00    -0.246 OA 
BRANCH  16  19
HETATM   19  C   UNL     1      -8.642  10.900  63.427  1.00  0.00    -0.017 C  
BRANCH  19  20
HETATM   20  O   UNL     1      -7.980   9.873  64.177  1.00  0.00    -0.137 OA 
HETATM   21  S   UNL     1      -6.692   9.173  63.473  1.00  0.00    -0.091 S  
HETATM   22  C   UNL     1      -6.288   8.051  64.791  1.00  0.00    -0.049 C  
HETATM   23  O   UNL     1      -5.638  10.160  63.357  1.00  0.00    -0.103 OA 
HETATM   24  O   UNL     1      -7.158   8.404  62.337  1.00  0.00    -0.097 OA 
ENDBRANCH  19  20
ENDBRANCH  16  19
ENDBRANCH  13  16
ENDBRANCH  10  13
ENDBRANCH   7  10
ENDBRANCH   6   7
ENDBRANCH   3   6
TORSDOF 7
ENDMDL
MODEL      231
REMARK 921   NORMALIZED FREE ENERGY PREDICTED BY IDOCK:   -3.59 KCAL/MOL
REMARK 922        TOTAL FREE ENERGY PREDICTED BY IDOCK:   -6.31 KCAL/MOL
REMARK 923 INTER-LIGAND FREE ENERGY PREDICTED BY IDOCK:   -5.59 KCAL/MOL
REMARK 924 INTRA-LIGAND FREE ENERGY PREDICTED BY IDOCK:   -0.72 KCAL/MOL
REMARK 927      BINDING AFFINITY PREDICTED BY RF-SCORE:    0.00 PKD
ROOT
HETATM    1  C   UNL     1      -6.255  21.153  66.667  1.00  0.00    -0.302 C  
HETATM    2  S   UNL     1      -6.801  19.511  66.273  1.00  0.00    -0.233 S  
HETATM    3  O   UNL     1      -8.363  19.624  66.760  1.00  0.00    -0.280 OA 
HETATM    4  O   UNL     1      -6.785  19.355  64.834  1.00  0.00    -0.430 OA 
HETATM    5  O   UNL     1      -6.126  18.579  67.153  1.00  0.00    -0.164 OA 
ENDROOT
BRANCH   3   6
HETATM    6  C   UNL     1      -9.125  18.430  66.556  1.00  0.00    -0.290 C  
BRANCH   6   7
HETATM    7  C   UNL     1      -9.605  17.820  67.876  1.00  0.00    -0.280 C  
HETATM    8  O   UNL     1     -11.034  17.638  67.831  1.00  0.00    -0.316 OA 
HETATM    9  H   UNL     1     -11.331  17.259  68.650  1.00  0.00     0.000 HD 
BRANCH   7  10
HETATM   10  C   UNL     1      -8.987  16.428  68.131  1.00  0.00    -0.197 C  
HETATM   11  H   UNL     1      -7.661  15.668  69.378  1.00  0.00     0.000 HD 
HETATM   12  O   UNL     1      -8.041  16.525  69.222  1.00  0.00    -0.216 OA 
BRANCH  10  13
HETATM   13  C   UNL     1      -9.972  15.303  68.502  1.00  0.00    -0.222 C  
HETATM   14  O   UNL     1      -9.459  14.679  69.698  1.00  0.00    -0.407 OA 
HETATM   15  H   UNL     1     -10.066  13.985  69.927  1.00  0.00     0.000 HD 
BRANCH  13  16
HETATM   16  C   UNL     1     -10.200  14.232  67.421  1.00  0.00    -0.247 C  
HETATM   17  H   UNL     1     -11.722  13.613  66.353  1.00  0.00     0.000 HD 
HETATM   18  O   UNL     1     -11.582  14.274  67.021  1.00  0.00    -0.349 OA 
BRANCH  16  19
HETATM   19  C   UNL     1      -9.834  12.818  67.885  1.00  0.00    -0.223 C  
BRANCH  19  20
HETATM   20  O   UNL     1     -10.710  12.463  68.963  1.00  0.00    -0.192 OA 
HETATM   21  S   UNL     1     -10.970  10.875  69.197  1.00  0.00    -0.258 S  
HETATM   22  C   UNL     1     -12.058  11.021  70.595  1.00  0.00    -0.373 C  
HETATM   23  O   UNL     1      -9.729  10.264  69.629  1.00  0.00    -0.228 OA 
HETATM   24  O   UNL     1     -11.727  10.368  68.071  1.00  0.00    -0.383 OA 
ENDBRANCH  19  20
ENDBRANCH  16  19
ENDBRANCH  13  16
ENDBRANCH  10  13
ENDBRANCH   7  10
ENDBRANCH   6   7
ENDBRANCH   3   6
TORSDOF 7
ENDMDL
MODEL      232
REMARK 921   NORMALIZED FREE ENERGY PREDICTED BY IDOCK:   -3.58 KCAL/MOL
REMARK 922        TOTAL FREE ENERGY PREDICTED BY IDOCK:   -6.29 KCAL/MOL
REMARK 923 INTER-LIGAND FREE ENERGY PREDICTED BY IDOCK:   -5.71 KCAL/MOL
REMARK 924 INTRA-LIGAND FREE ENERGY PREDICTED BY IDOCK:   -0.57 KCAL/MOL
REMARK 927      BINDING AFFINITY PREDICTED BY RF-SCORE:    0.00 PKD
ROOT
HETATM    1  C   UNL     1     -13.185   9.794  71.841  1.00  0.00    -0.449 C  
HETATM    2  S   UNL     1     -12.285   8.272  71.690  1.00  0.00    -0.327 S  
HETATM    3  O   UNL     1     -11.260   8.685  70.479  1.00  0.00    -0.253 OA 
HETATM    4  O   UNL     1     -11.508   8.078  72.896  1.00  0.00    -0.411 OA 
HETATM    5  O   UNL     1     -13.184   7.255  71.185  1.00  0.00    -0.337 OA 
ENDROOT
BRANCH   3   6
HETATM    6  C   UNL     1     -10.345   7.648  70.111  1.00  0.00    -0.217 C  
BRANCH   6   7
HETATM    7  C   UNL     1     -10.074   7.629  68.603  1.00  0.00    -0.190 C  
HETATM    8  O   UNL     1     -11.241   7.143  67.911  1.00  0.00    -0.512 OA 
HETATM    9  H   UNL     1     -11.073   7.131  66.976  1.00  0.00     0.000 HD 
BRANCH   7  10
HETATM   10  C   UNL     1      -9.783   9.039  68.048  1.00  0.00    -0.155 C  
HETATM   11  H   UNL     1      -8.224   9.966  67.270  1.00  0.00     0.000 HD 
HETATM   12  O   UNL     1      -8.404   9.098  67.612  1.00  0.00    -0.115 OA 
BRANCH  10  13
HETATM   13  C   UNL     1     -10.642   9.491  66.851  1.00  0.00    -0.171 C  
HETATM   14  O   UNL     1      -9.927   9.106  65.658  1.00  0.00    -0.447 OA 
HETATM   15  H   UNL     1     -10.456   9.385  64.920  1.00  0.00     0.000 HD 
BRANCH  13  16
HETATM   16  C   UNL     1     -10.966  10.994  66.793  1.00  0.00    -0.217 C  
HETATM   17  H   UNL     1     -11.001  12.373  65.400  1.00  0.00     0.000 HD 
HETATM   18  O   UNL     1     -10.801  11.445  65.436  1.00  0.00    -0.281 OA 
BRANCH  16  19
HETATM   19  C   UNL     1     -10.094  11.837  67.731  1.00  0.00    -0.188 C  
BRANCH  19  20
HETATM   20  O   UNL     1      -9.816  13.084  67.081  1.00  0.00    -0.222 OA 
HETATM   21  S   UNL     1     -10.756  14.345  67.494  1.00  0.00    -0.275 S  
HETATM   22  C   UNL     1      -9.990  15.558  66.446  1.00  0.00    -0.283 C  
HETATM   23  O   UNL     1     -10.489  14.684  68.877  1.00  0.00    -0.237 OA 
HETATM   24  O   UNL     1     -12.097  14.092  67.007  1.00  0.00    -0.427 OA 
ENDBRANCH  19  20
ENDBRANCH  16  19
ENDBRANCH  13  16
ENDBRANCH  10  13
ENDBRANCH   7  10
ENDBRANCH   6   7
ENDBRANCH   3   6
TORSDOF 7
ENDMDL
MODEL      233
REMARK 921   NORMALIZED FREE ENERGY PREDICTED BY IDOCK:   -3.57 KCAL/MOL
REMARK 922        TOTAL FREE ENERGY PREDICTED BY IDOCK:   -6.27 KCAL/MOL
REMARK 923 INTER-LIGAND FREE ENERGY PREDICTED BY IDOCK:   -5.69 KCAL/MOL
REMARK 924 INTRA-LIGAND FREE ENERGY PREDICTED BY IDOCK:   -0.59 KCAL/MOL
REMARK 927      BINDING AFFINITY PREDICTED BY RF-SCORE:    0.00 PKD
ROOT
HETATM    1  C   UNL     1      -6.691  13.884  68.168  1.00  0.00    -0.125 C  
HETATM    2  S   UNL     1      -7.947  15.080  67.792  1.00  0.00    -0.157 S  
HETATM    3  O   UNL     1      -8.843  14.203  66.736  1.00  0.00    -0.228 OA 
HETATM    4  O   UNL     1      -8.739  15.303  68.983  1.00  0.00    -0.195 OA 
HETATM    5  O   UNL     1      -7.338  16.172  67.061  1.00  0.00    -0.195 OA 
ENDROOT
BRANCH   3   6
HETATM    6  C   UNL     1      -9.993  14.892  66.235  1.00  0.00    -0.282 C  
BRANCH   6   7
HETATM    7  C   UNL     1     -10.846  14.004  65.324  1.00  0.00    -0.347 C  
HETATM    8  O   UNL     1     -10.106  13.691  64.127  1.00  0.00    -0.757 OA 
HETATM    9  H   UNL     1     -10.636  13.139  63.563  1.00  0.00     0.000 HD 
BRANCH   7  10
HETATM   10  C   UNL     1     -11.199  12.657  65.993  1.00  0.00    -0.306 C  
HETATM   11  H   UNL     1     -12.730  11.413  65.960  1.00  0.00     0.000 HD 
HETATM   12  O   UNL     1     -12.513  12.242  65.549  1.00  0.00    -0.597 OA 
BRANCH  10  13
HETATM   13  C   UNL     1     -10.246  11.483  65.704  1.00  0.00    -0.248 C  
HETATM   14  O   UNL     1     -10.758  10.809  64.535  1.00  0.00    -0.297 OA 
HETATM   15  H   UNL     1     -10.170  10.085  64.358  1.00  0.00     0.000 HD 
BRANCH  13  16
HETATM   16  C   UNL     1     -10.074  10.467  66.848  1.00  0.00    -0.216 C  
HETATM   17  H   UNL     1     -10.074   8.514  67.006  1.00  0.00     0.000 HD 
HETATM   18  O   UNL     1     -10.181   9.140  66.300  1.00  0.00    -0.276 OA 
BRANCH  16  19
HETATM   19  C   UNL     1     -11.095  10.650  67.976  1.00  0.00    -0.301 C  
BRANCH  19  20
HETATM   20  O   UNL     1     -11.153   9.429  68.725  1.00  0.00    -0.096 OA 
HETATM   21  S   UNL     1     -10.503   9.459  70.216  1.00  0.00    -0.273 S  
HETATM   22  C   UNL     1     -10.855   7.773  70.656  1.00  0.00    -0.237 C  
HETATM   23  O   UNL     1     -11.300  10.338  71.047  1.00  0.00    -0.331 OA 
HETATM   24  O   UNL     1      -9.069   9.613  70.083  1.00  0.00    -0.222 OA 
ENDBRANCH  19  20
ENDBRANCH  16  19
ENDBRANCH  13  16
ENDBRANCH  10  13
ENDBRANCH   7  10
ENDBRANCH   6   7
ENDBRANCH   3   6
TORSDOF 7
ENDMDL
MODEL      234
REMARK 921   NORMALIZED FREE ENERGY PREDICTED BY IDOCK:   -3.57 KCAL/MOL
REMARK 922        TOTAL FREE ENERGY PREDICTED BY IDOCK:   -6.27 KCAL/MOL
REMARK 923 INTER-LIGAND FREE ENERGY PREDICTED BY IDOCK:   -5.39 KCAL/MOL
REMARK 924 INTRA-LIGAND FREE ENERGY PREDICTED BY IDOCK:   -0.89 KCAL/MOL
REMARK 927      BINDING AFFINITY PREDICTED BY RF-SCORE:    0.00 PKD
ROOT
HETATM    1  C   UNL     1      -7.632  17.711  68.213  1.00  0.00    -0.257 C  
HETATM    2  S   UNL     1      -9.136  17.581  67.281  1.00  0.00    -0.243 S  
HETATM    3  O   UNL     1      -9.423  15.977  67.455  1.00  0.00    -0.220 OA 
HETATM    4  O   UNL     1     -10.174  18.306  67.982  1.00  0.00    -0.348 OA 
HETATM    5  O   UNL     1      -8.836  17.831  65.886  1.00  0.00    -0.512 OA 
ENDROOT
BRANCH   3   6
HETATM    6  C   UNL     1     -10.621  15.525  66.816  1.00  0.00    -0.307 C  
BRANCH   6   7
HETATM    7  C   UNL     1     -11.698  15.124  67.828  1.00  0.00    -0.232 C  
HETATM    8  O   UNL     1     -12.626  14.213  67.208  1.00  0.00    -0.516 OA 
HETATM    9  H   UNL     1     -13.294  13.964  67.836  1.00  0.00     0.000 HD 
BRANCH   7  10
HETATM   10  C   UNL     1     -11.102  14.389  69.049  1.00  0.00    -0.261 C  
HETATM   11  H   UNL     1     -11.102  14.652  71.004  1.00  0.00     0.000 HD 
HETATM   12  O   UNL     1     -11.468  15.104  70.253  1.00  0.00    -0.247 OA 
BRANCH  10  13
HETATM   13  C   UNL     1     -11.551  12.929  69.251  1.00  0.00    -0.310 C  
HETATM   14  O   UNL     1     -11.668  12.724  70.674  1.00  0.00    -0.491 OA 
HETATM   15  H   UNL     1     -11.944  11.824  70.798  1.00  0.00     0.000 HD 
BRANCH  13  16
HETATM   16  C   UNL     1     -10.623  11.858  68.651  1.00  0.00    -0.234 C  
HETATM   17  H   UNL     1     -10.180  11.231  66.848  1.00  0.00     0.000 HD 
HETATM   18  O   UNL     1     -10.753  11.892  67.218  1.00  0.00    -0.220 OA 
BRANCH  16  19
HETATM   19  C   UNL     1     -10.919  10.446  69.168  1.00  0.00    -0.241 C  
BRANCH  19  20
HETATM   20  O   UNL     1      -9.870  10.074  70.073  1.00  0.00    -0.241 OA 
HETATM   21  S   UNL     1      -8.682   9.144  69.467  1.00  0.00    -0.149 S  
HETATM   22  C   UNL     1      -7.708   9.018  70.948  1.00  0.00    -0.128 C  
HETATM   23  O   UNL     1      -7.947   9.917  68.486  1.00  0.00    -0.084 OA 
HETATM   24  O   UNL     1      -9.236   7.840  69.163  1.00  0.00    -0.145 OA 
ENDBRANCH  19  20
ENDBRANCH  16  19
ENDBRANCH  13  16
ENDBRANCH  10  13
ENDBRANCH   7  10
ENDBRANCH   6   7
ENDBRANCH   3   6
TORSDOF 7
ENDMDL
MODEL      235
REMARK 921   NORMALIZED FREE ENERGY PREDICTED BY IDOCK:   -3.56 KCAL/MOL
REMARK 922        TOTAL FREE ENERGY PREDICTED BY IDOCK:   -6.27 KCAL/MOL
REMARK 923 INTER-LIGAND FREE ENERGY PREDICTED BY IDOCK:   -5.40 KCAL/MOL
REMARK 924 INTRA-LIGAND FREE ENERGY PREDICTED BY IDOCK:   -0.87 KCAL/MOL
REMARK 927      BINDING AFFINITY PREDICTED BY RF-SCORE:    0.00 PKD
ROOT
HETATM    1  C   UNL     1      -9.060   3.925  63.844  1.00  0.00    -0.129 C  
HETATM    2  S   UNL     1      -9.530   4.412  65.485  1.00  0.00    -0.188 S  
HETATM    3  O   UNL     1      -8.836   5.896  65.533  1.00  0.00    -0.151 OA 
HETATM    4  O   UNL     1     -10.967   4.583  65.518  1.00  0.00    -0.247 OA 
HETATM    5  O   UNL     1      -8.837   3.564  66.433  1.00  0.00    -0.118 OA 
ENDROOT
BRANCH   3   6
HETATM    6  C   UNL     1      -9.049   6.600  66.761  1.00  0.00    -0.142 C  
BRANCH   6   7
HETATM    7  C   UNL     1     -10.031   7.763  66.595  1.00  0.00    -0.228 C  
HETATM    8  O   UNL     1     -11.044   7.687  67.618  1.00  0.00    -0.508 OA 
HETATM    9  H   UNL     1     -11.653   8.409  67.515  1.00  0.00     0.000 HD 
BRANCH   7  10
HETATM   10  C   UNL     1      -9.340   9.134  66.755  1.00  0.00    -0.165 C  
HETATM   11  H   UNL     1      -7.668   9.965  66.118  1.00  0.00     0.000 HD 
HETATM   12  O   UNL     1      -8.093   9.122  66.020  1.00  0.00    -0.107 OA 
BRANCH  10  13
HETATM   13  C   UNL     1     -10.131  10.359  66.257  1.00  0.00    -0.231 C  
HETATM   14  O   UNL     1      -9.471  10.822  65.061  1.00  0.00    -0.210 OA 
HETATM   15  H   UNL     1      -9.958  11.577  64.755  1.00  0.00     0.000 HD 
BRANCH  13  16
HETATM   16  C   UNL     1     -10.259  11.521  67.257  1.00  0.00    -0.202 C  
HETATM   17  H   UNL     1     -10.270  11.703  69.209  1.00  0.00     0.000 HD 
HETATM   18  O   UNL     1     -10.192  10.985  68.592  1.00  0.00    -0.183 OA 
BRANCH  16  19
HETATM   19  C   UNL     1     -11.551  12.328  67.085  1.00  0.00    -0.353 C  
BRANCH  19  20
HETATM   20  O   UNL     1     -11.214  13.581  66.474  1.00  0.00    -0.297 OA 
HETATM   21  S   UNL     1     -11.818  13.852  64.988  1.00  0.00    -0.396 S  
HETATM   22  C   UNL     1     -11.126  15.471  64.749  1.00  0.00    -0.407 C  
HETATM   23  O   UNL     1     -13.258  13.966  65.091  1.00  0.00    -0.768 OA 
HETATM   24  O   UNL     1     -11.181  12.935  64.065  1.00  0.00    -0.367 OA 
ENDBRANCH  19  20
ENDBRANCH  16  19
ENDBRANCH  13  16
ENDBRANCH  10  13
ENDBRANCH   7  10
ENDBRANCH   6   7
ENDBRANCH   3   6
TORSDOF 7
ENDMDL
MODEL      236
REMARK 921   NORMALIZED FREE ENERGY PREDICTED BY IDOCK:   -3.56 KCAL/MOL
REMARK 922        TOTAL FREE ENERGY PREDICTED BY IDOCK:   -6.27 KCAL/MOL
REMARK 923 INTER-LIGAND FREE ENERGY PREDICTED BY IDOCK:   -5.45 KCAL/MOL
REMARK 924 INTRA-LIGAND FREE ENERGY PREDICTED BY IDOCK:   -0.81 KCAL/MOL
REMARK 927      BINDING AFFINITY PREDICTED BY RF-SCORE:    0.00 PKD
ROOT
HETATM    1  C   UNL     1      -6.375  10.560  65.824  1.00  0.00    -0.129 C  
HETATM    2  S   UNL     1      -7.749   9.639  66.466  1.00  0.00    -0.098 S  
HETATM    3  O   UNL     1      -8.979  10.556  65.889  1.00  0.00    -0.155 OA 
HETATM    4  O   UNL     1      -7.790   8.354  65.801  1.00  0.00    -0.093 OA 
HETATM    5  O   UNL     1      -7.746   9.755  67.910  1.00  0.00    -0.087 OA 
ENDROOT
BRANCH   3   6
HETATM    6  C   UNL     1     -10.280  10.061  66.221  1.00  0.00    -0.215 C  
BRANCH   6   7
HETATM    7  C   UNL     1     -11.025  10.998  67.177  1.00  0.00    -0.283 C  
HETATM    8  O   UNL     1     -10.205  11.256  68.334  1.00  0.00    -0.181 OA 
HETATM    9  H   UNL     1     -10.668  11.837  68.927  1.00  0.00     0.000 HD 
BRANCH   7  10
HETATM   10  C   UNL     1     -11.326  12.367  66.531  1.00  0.00    -0.340 C  
HETATM   11  H   UNL     1     -12.372  13.011  64.987  1.00  0.00     0.000 HD 
HETATM   12  O   UNL     1     -12.187  12.168  65.385  1.00  0.00    -0.515 OA 
BRANCH  10  13
HETATM   13  C   UNL     1     -12.025  13.406  67.430  1.00  0.00    -0.346 C  
HETATM   14  O   UNL     1     -12.784  14.268  66.556  1.00  0.00    -0.521 OA 
HETATM   15  H   UNL     1     -13.214  14.908  67.110  1.00  0.00     0.000 HD 
BRANCH  13  16
HETATM   16  C   UNL     1     -11.094  14.258  68.311  1.00  0.00    -0.258 C  
HETATM   17  H   UNL     1     -10.652  14.343  70.218  1.00  0.00     0.000 HD 
HETATM   18  O   UNL     1     -11.227  13.817  69.675  1.00  0.00    -0.213 OA 
BRANCH  16  19
HETATM   19  C   UNL     1     -11.383  15.760  68.218  1.00  0.00    -0.354 C  
BRANCH  19  20
HETATM   20  O   UNL     1     -10.131  16.448  68.098  1.00  0.00    -0.239 OA 
HETATM   21  S   UNL     1      -9.977  17.466  66.839  1.00  0.00    -0.313 S  
HETATM   22  C   UNL     1      -8.323  18.015  67.185  1.00  0.00    -0.233 C  
HETATM   23  O   UNL     1     -10.890  18.575  67.031  1.00  0.00    -0.364 OA 
HETATM   24  O   UNL     1      -9.961  16.683  65.621  1.00  0.00    -0.519 OA 
ENDBRANCH  19  20
ENDBRANCH  16  19
ENDBRANCH  13  16
ENDBRANCH  10  13
ENDBRANCH   7  10
ENDBRANCH   6   7
ENDBRANCH   3   6
TORSDOF 7
ENDMDL
MODEL      237
REMARK 921   NORMALIZED FREE ENERGY PREDICTED BY IDOCK:   -3.56 KCAL/MOL
REMARK 922        TOTAL FREE ENERGY PREDICTED BY IDOCK:   -6.27 KCAL/MOL
REMARK 923 INTER-LIGAND FREE ENERGY PREDICTED BY IDOCK:   -6.14 KCAL/MOL
REMARK 924 INTRA-LIGAND FREE ENERGY PREDICTED BY IDOCK:   -0.12 KCAL/MOL
REMARK 927      BINDING AFFINITY PREDICTED BY RF-SCORE:    0.00 PKD
ROOT
HETATM    1  C   UNL     1     -12.529  14.320  66.384  1.00  0.00    -0.256 C  
HETATM    2  S   UNL     1     -12.341  13.673  64.742  1.00  0.00    -0.372 S  
HETATM    3  O   UNL     1     -10.762  13.235  64.805  1.00  0.00    -0.333 OA 
HETATM    4  O   UNL     1     -13.141  12.472  64.627  1.00  0.00    -0.845 OA 
HETATM    5  O   UNL     1     -12.462  14.768  63.800  1.00  0.00    -0.782 OA 
ENDROOT
BRANCH   3   6
HETATM    6  C   UNL     1     -10.275  12.636  63.601  1.00  0.00    -0.162 C  
BRANCH   6   7
HETATM    7  C   UNL     1     -10.407  11.110  63.622  1.00  0.00    -0.389 C  
HETATM    8  O   UNL     1     -10.045  10.578  62.332  1.00  0.00    -0.746 OA 
HETATM    9  H   UNL     1     -10.126   9.631  62.346  1.00  0.00     0.000 HD 
BRANCH   7  10
HETATM   10  C   UNL     1      -9.459  10.460  64.653  1.00  0.00    -0.280 C  
HETATM   11  H   UNL     1      -7.534  10.038  64.746  1.00  0.00     0.000 HD 
HETATM   12  O   UNL     1      -8.117  10.438  64.111  1.00  0.00    -0.156 OA 
BRANCH  10  13
HETATM   13  C   UNL     1      -9.368  11.152  66.026  1.00  0.00    -0.206 C  
HETATM   14  O   UNL     1      -8.049  11.732  66.112  1.00  0.00    -0.379 OA 
HETATM   15  H   UNL     1      -7.993  12.158  66.959  1.00  0.00     0.000 HD 
BRANCH  13  16
HETATM   16  C   UNL     1      -9.612  10.247  67.246  1.00  0.00    -0.159 C  
HETATM   17  H   UNL     1     -11.170   9.696  68.300  1.00  0.00     0.000 HD 
HETATM   18  O   UNL     1     -11.020  10.255  67.547  1.00  0.00    -0.297 OA 
BRANCH  16  19
HETATM   19  C   UNL     1      -8.812  10.672  68.483  1.00  0.00    -0.148 C  
BRANCH  19  20
HETATM   20  O   UNL     1      -7.553   9.987  68.456  1.00  0.00    -0.084 OA 
HETATM   21  S   UNL     1      -7.156   9.142  69.788  1.00  0.00    -0.066 S  
HETATM   22  C   UNL     1      -5.591   8.526  69.214  1.00  0.00    -0.035 C  
HETATM   23  O   UNL     1      -8.078   8.032  69.920  1.00  0.00    -0.112 OA 
HETATM   24  O   UNL     1      -6.918  10.079  70.867  1.00  0.00    -0.337 OA 
ENDBRANCH  19  20
ENDBRANCH  16  19
ENDBRANCH  13  16
ENDBRANCH  10  13
ENDBRANCH   7  10
ENDBRANCH   6   7
ENDBRANCH   3   6
TORSDOF 7
ENDMDL
MODEL      238
REMARK 921   NORMALIZED FREE ENERGY PREDICTED BY IDOCK:   -3.56 KCAL/MOL
REMARK 922        TOTAL FREE ENERGY PREDICTED BY IDOCK:   -6.26 KCAL/MOL
REMARK 923 INTER-LIGAND FREE ENERGY PREDICTED BY IDOCK:   -5.08 KCAL/MOL
REMARK 924 INTRA-LIGAND FREE ENERGY PREDICTED BY IDOCK:   -1.17 KCAL/MOL
REMARK 927      BINDING AFFINITY PREDICTED BY RF-SCORE:    0.00 PKD
ROOT
HETATM    1  C   UNL     1     -10.497  14.609  66.871  1.00  0.00    -0.270 C  
HETATM    2  S   UNL     1     -11.042  12.957  66.522  1.00  0.00    -0.297 S  
HETATM    3  O   UNL     1     -11.401  12.466  68.044  1.00  0.00    -0.246 OA 
HETATM    4  O   UNL     1     -12.275  13.031  65.766  1.00  0.00    -0.434 OA 
HETATM    5  O   UNL     1      -9.906  12.186  66.060  1.00  0.00    -0.235 OA 
ENDROOT
BRANCH   3   6
HETATM    6  C   UNL     1     -11.908  11.129  68.120  1.00  0.00    -0.164 C  
BRANCH   6   7
HETATM    7  C   UNL     1     -11.053  10.240  69.029  1.00  0.00    -0.230 C  
HETATM    8  O   UNL     1      -9.659  10.547  68.828  1.00  0.00    -0.163 OA 
HETATM    9  H   UNL     1      -9.129   9.995  69.392  1.00  0.00     0.000 HD 
BRANCH   7  10
HETATM   10  C   UNL     1     -11.351  10.482  70.524  1.00  0.00    -0.314 C  
HETATM   11  H   UNL     1     -12.953  10.861  71.611  1.00  0.00     0.000 HD 
HETATM   12  O   UNL     1     -12.770  10.712  70.691  1.00  0.00    -0.352 OA 
BRANCH  10  13
HETATM   13  C   UNL     1     -10.974   9.340  71.487  1.00  0.00    -0.375 C  
HETATM   14  O   UNL     1      -9.533   9.320  71.564  1.00  0.00    -0.266 OA 
HETATM   15  H   UNL     1      -9.301   8.616  72.157  1.00  0.00     0.000 HD 
BRANCH  13  16
HETATM   16  C   UNL     1     -11.487   7.943  71.097  1.00  0.00    -0.273 C  
HETATM   17  H   UNL     1     -12.918   6.750  71.705  1.00  0.00     0.000 HD 
HETATM   18  O   UNL     1     -12.601   7.612  71.947  1.00  0.00    -0.310 OA 
BRANCH  16  19
HETATM   19  C   UNL     1     -10.413   6.855  71.199  1.00  0.00    -0.212 C  
BRANCH  19  20
HETATM   20  O   UNL     1      -9.640   6.877  69.991  1.00  0.00    -0.158 OA 
HETATM   21  S   UNL     1     -10.095   5.848  68.817  1.00  0.00    -0.190 S  
HETATM   22  C   UNL     1      -8.861   6.300  67.621  1.00  0.00    -0.111 C  
HETATM   23  O   UNL     1     -11.396   6.255  68.327  1.00  0.00    -0.289 OA 
HETATM   24  O   UNL     1      -9.830   4.497  69.269  1.00  0.00    -0.192 OA 
ENDBRANCH  19  20
ENDBRANCH  16  19
ENDBRANCH  13  16
ENDBRANCH  10  13
ENDBRANCH   7  10
ENDBRANCH   6   7
ENDBRANCH   3   6
TORSDOF 7
ENDMDL
MODEL      239
REMARK 921   NORMALIZED FREE ENERGY PREDICTED BY IDOCK:   -3.55 KCAL/MOL
REMARK 922        TOTAL FREE ENERGY PREDICTED BY IDOCK:   -6.25 KCAL/MOL
REMARK 923 INTER-LIGAND FREE ENERGY PREDICTED BY IDOCK:   -5.46 KCAL/MOL
REMARK 924 INTRA-LIGAND FREE ENERGY PREDICTED BY IDOCK:   -0.80 KCAL/MOL
REMARK 927      BINDING AFFINITY PREDICTED BY RF-SCORE:    0.00 PKD
ROOT
HETATM    1  C   UNL     1     -10.110   4.623  66.424  1.00  0.00    -0.261 C  
HETATM    2  S   UNL     1     -10.044   6.047  67.481  1.00  0.00    -0.182 S  
HETATM    3  O   UNL     1     -10.106   7.227  66.344  1.00  0.00    -0.131 OA 
HETATM    4  O   UNL     1     -11.264   6.100  68.257  1.00  0.00    -0.323 OA 
HETATM    5  O   UNL     1      -8.736   6.096  68.104  1.00  0.00    -0.115 OA 
ENDROOT
BRANCH   3   6
HETATM    6  C   UNL     1     -10.091   8.554  66.880  1.00  0.00    -0.294 C  
BRANCH   6   7
HETATM    7  C   UNL     1      -9.364   9.539  65.960  1.00  0.00    -0.216 C  
HETATM    8  O   UNL     1      -9.340   9.014  64.617  1.00  0.00    -0.425 OA 
HETATM    9  H   UNL     1      -8.889   9.626  64.046  1.00  0.00     0.000 HD 
BRANCH   7  10
HETATM   10  C   UNL     1     -10.081  10.905  65.890  1.00  0.00    -0.252 C  
HETATM   11  H   UNL     1     -11.233  11.840  64.590  1.00  0.00     0.000 HD 
HETATM   12  O   UNL     1     -10.792  11.000  64.633  1.00  0.00    -0.296 OA 
BRANCH  10  13
HETATM   13  C   UNL     1     -11.110  11.192  67.000  1.00  0.00    -0.273 C  
HETATM   14  O   UNL     1     -12.059  12.131  66.454  1.00  0.00    -0.630 OA 
HETATM   15  H   UNL     1     -12.693  12.308  67.139  1.00  0.00     0.000 HD 
BRANCH  13  16
HETATM   16  C   UNL     1     -10.534  11.748  68.314  1.00  0.00    -0.206 C  
HETATM   17  H   UNL     1     -11.274  12.471  69.979  1.00  0.00     0.000 HD 
HETATM   18  O   UNL     1     -11.629  12.128  69.168  1.00  0.00    -0.273 OA 
BRANCH  16  19
HETATM   19  C   UNL     1      -9.598  12.944  68.105  1.00  0.00    -0.223 C  
BRANCH  19  20
HETATM   20  O   UNL     1     -10.132  14.059  68.831  1.00  0.00    -0.213 OA 
HETATM   21  S   UNL     1     -10.667  15.315  67.946  1.00  0.00    -0.283 S  
HETATM   22  C   UNL     1     -11.200  16.340  69.297  1.00  0.00    -0.312 C  
HETATM   23  O   UNL     1     -11.829  14.886  67.195  1.00  0.00    -0.338 OA 
HETATM   24  O   UNL     1      -9.527  15.942  67.311  1.00  0.00    -0.210 OA 
ENDBRANCH  19  20
ENDBRANCH  16  19
ENDBRANCH  13  16
ENDBRANCH  10  13
ENDBRANCH   7  10
ENDBRANCH   6   7
ENDBRANCH   3   6
TORSDOF 7
ENDMDL
MODEL      240
REMARK 921   NORMALIZED FREE ENERGY PREDICTED BY IDOCK:   -3.54 KCAL/MOL
REMARK 922        TOTAL FREE ENERGY PREDICTED BY IDOCK:   -6.23 KCAL/MOL
REMARK 923 INTER-LIGAND FREE ENERGY PREDICTED BY IDOCK:   -5.01 KCAL/MOL
REMARK 924 INTRA-LIGAND FREE ENERGY PREDICTED BY IDOCK:   -1.22 KCAL/MOL
REMARK 927      BINDING AFFINITY PREDICTED BY RF-SCORE:    0.00 PKD
ROOT
HETATM    1  C   UNL     1     -10.727  15.415  66.943  1.00  0.00    -0.314 C  
HETATM    2  S   UNL     1     -11.354  13.900  66.264  1.00  0.00    -0.334 S  
HETATM    3  O   UNL     1     -11.304  12.963  67.608  1.00  0.00    -0.269 OA 
HETATM    4  O   UNL     1     -12.740  14.099  65.901  1.00  0.00    -0.487 OA 
HETATM    5  O   UNL     1     -10.382  13.382  65.323  1.00  0.00    -0.303 OA 
ENDROOT
BRANCH   3   6
HETATM    6  C   UNL     1     -11.780  11.629  67.407  1.00  0.00    -0.201 C  
BRANCH   6   7
HETATM    7  C   UNL     1     -10.658  10.593  67.529  1.00  0.00    -0.252 C  
HETATM    8  O   UNL     1      -9.658  10.846  66.523  1.00  0.00    -0.186 OA 
HETATM    9  H   UNL     1      -8.962  10.203  66.599  1.00  0.00     0.000 HD 
BRANCH   7  10
HETATM   10  C   UNL     1      -9.944  10.669  68.895  1.00  0.00    -0.204 C  
HETATM   11  H   UNL     1     -10.465  10.451  70.785  1.00  0.00     0.000 HD 
HETATM   12  O   UNL     1     -10.905  10.404  69.944  1.00  0.00    -0.268 OA 
BRANCH  10  13
HETATM   13  C   UNL     1      -8.777   9.686  69.110  1.00  0.00    -0.151 C  
HETATM   14  O   UNL     1      -9.053   8.529  68.292  1.00  0.00    -0.138 OA 
HETATM   15  H   UNL     1      -8.335   7.923  68.425  1.00  0.00     0.000 HD 
BRANCH  13  16
HETATM   16  C   UNL     1      -8.538   9.242  70.564  1.00  0.00    -0.233 C  
HETATM   17  H   UNL     1      -7.109   9.467  71.886  1.00  0.00     0.000 HD 
HETATM   18  O   UNL     1      -7.256   9.741  70.988  1.00  0.00    -0.332 OA 
BRANCH  16  19
HETATM   19  C   UNL     1      -8.593   7.722  70.748  1.00  0.00    -0.133 C  
BRANCH  19  20
HETATM   20  O   UNL     1      -9.969   7.318  70.709  1.00  0.00    -0.186 OA 
HETATM   21  S   UNL     1     -10.655   6.933  72.133  1.00  0.00    -0.218 S  
HETATM   22  C   UNL     1     -12.274   6.546  71.512  1.00  0.00    -0.272 C  
HETATM   23  O   UNL     1     -10.736   8.131  72.943  1.00  0.00    -0.352 OA 
HETATM   24  O   UNL     1     -10.041   5.714  72.618  1.00  0.00    -0.175 OA 
ENDBRANCH  19  20
ENDBRANCH  16  19
ENDBRANCH  13  16
ENDBRANCH  10  13
ENDBRANCH   7  10
ENDBRANCH   6   7
ENDBRANCH   3   6
TORSDOF 7
ENDMDL
MODEL      241
REMARK 921   NORMALIZED FREE ENERGY PREDICTED BY IDOCK:   -3.53 KCAL/MOL
REMARK 922        TOTAL FREE ENERGY PREDICTED BY IDOCK:   -6.22 KCAL/MOL
REMARK 923 INTER-LIGAND FREE ENERGY PREDICTED BY IDOCK:   -5.07 KCAL/MOL
REMARK 924 INTRA-LIGAND FREE ENERGY PREDICTED BY IDOCK:   -1.15 KCAL/MOL
REMARK 927      BINDING AFFINITY PREDICTED BY RF-SCORE:    0.00 PKD
ROOT
HETATM    1  C   UNL     1      -6.514  20.748  67.525  1.00  0.00    -0.316 C  
HETATM    2  S   UNL     1      -7.344  19.580  66.478  1.00  0.00    -0.254 S  
HETATM    3  O   UNL     1      -8.844  19.649  67.137  1.00  0.00    -0.292 OA 
HETATM    4  O   UNL     1      -7.410  20.129  65.141  1.00  0.00    -0.286 OA 
HETATM    5  O   UNL     1      -6.803  18.262  66.740  1.00  0.00    -0.182 OA 
ENDROOT
BRANCH   3   6
HETATM    6  C   UNL     1      -9.804  18.809  66.489  1.00  0.00    -0.368 C  
BRANCH   6   7
HETATM    7  C   UNL     1     -10.020  17.494  67.245  1.00  0.00    -0.312 C  
HETATM    8  O   UNL     1     -11.054  17.672  68.234  1.00  0.00    -0.173 OA 
HETATM    9  H   UNL     1     -11.188  16.855  68.702  1.00  0.00     0.000 HD 
BRANCH   7  10
HETATM   10  C   UNL     1     -10.491  16.358  66.310  1.00  0.00    -0.293 C  
HETATM   11  H   UNL     1      -9.652  15.191  64.958  1.00  0.00     0.000 HD 
HETATM   12  O   UNL     1      -9.363  15.890  65.533  1.00  0.00    -0.352 OA 
BRANCH  10  13
HETATM   13  C   UNL     1     -11.097  15.119  66.996  1.00  0.00    -0.328 C  
HETATM   14  O   UNL     1     -10.404  14.957  68.250  1.00  0.00    -0.225 OA 
HETATM   15  H   UNL     1     -10.777  14.193  68.673  1.00  0.00     0.000 HD 
BRANCH  13  16
HETATM   16  C   UNL     1     -11.020  13.809  66.193  1.00  0.00    -0.292 C  
HETATM   17  H   UNL     1     -12.291  12.676  65.222  1.00  0.00     0.000 HD 
HETATM   18  O   UNL     1     -12.340  13.485  65.718  1.00  0.00    -0.431 OA 
BRANCH  16  19
HETATM   19  C   UNL     1     -10.455  12.636  67.003  1.00  0.00    -0.232 C  
BRANCH  19  20
HETATM   20  O   UNL     1      -9.051  12.543  66.732  1.00  0.00    -0.211 OA 
HETATM   21  S   UNL     1      -8.072  12.357  68.017  1.00  0.00    -0.173 S  
HETATM   22  C   UNL     1      -6.534  12.289  67.129  1.00  0.00    -0.117 C  
HETATM   23  O   UNL     1      -8.331  11.060  68.608  1.00  0.00    -0.140 OA 
HETATM   24  O   UNL     1      -8.105  13.579  68.794  1.00  0.00    -0.093 OA 
ENDBRANCH  19  20
ENDBRANCH  16  19
ENDBRANCH  13  16
ENDBRANCH  10  13
ENDBRANCH   7  10
ENDBRANCH   6   7
ENDBRANCH   3   6
TORSDOF 7
ENDMDL
MODEL      242
REMARK 921   NORMALIZED FREE ENERGY PREDICTED BY IDOCK:   -3.51 KCAL/MOL
REMARK 922        TOTAL FREE ENERGY PREDICTED BY IDOCK:   -6.19 KCAL/MOL
REMARK 923 INTER-LIGAND FREE ENERGY PREDICTED BY IDOCK:   -5.09 KCAL/MOL
REMARK 924 INTRA-LIGAND FREE ENERGY PREDICTED BY IDOCK:   -1.10 KCAL/MOL
REMARK 927      BINDING AFFINITY PREDICTED BY RF-SCORE:    0.00 PKD
ROOT
HETATM    1  C   UNL     1     -12.125  14.654  63.769  1.00  0.00     0.141 C  
HETATM    2  S   UNL     1     -11.806  12.918  63.953  1.00  0.00    -0.511 S  
HETATM    3  O   UNL     1     -11.930  12.794  65.583  1.00  0.00    -0.406 OA 
HETATM    4  O   UNL     1     -12.902  12.184  63.357  1.00  0.00    -0.765 OA 
HETATM    5  O   UNL     1     -10.426  12.663  63.591  1.00  0.00    -0.414 OA 
ENDROOT
BRANCH   3   6
HETATM    6  C   UNL     1     -11.740  11.467  66.083  1.00  0.00     0.420 C  
BRANCH   6   7
HETATM    7  C   UNL     1     -10.529  11.370  67.015  1.00  0.00    -0.236 C  
HETATM    8  O   UNL     1      -9.342  11.776  66.305  1.00  0.00    -0.217 OA 
HETATM    9  H   UNL     1      -8.591  11.716  66.884  1.00  0.00     0.000 HD 
BRANCH   7  10
HETATM   10  C   UNL     1     -10.660  12.307  68.236  1.00  0.00    -0.227 C  
HETATM   11  H   UNL     1     -10.516  12.117  70.194  1.00  0.00     0.000 HD 
HETATM   12  O   UNL     1     -10.435  11.541  69.443  1.00  0.00    -0.108 OA 
BRANCH  10  13
HETATM   13  C   UNL     1      -9.687  13.500  68.285  1.00  0.00    -0.224 C  
HETATM   14  O   UNL     1      -8.466  13.017  68.883  1.00  0.00    -0.360 OA 
HETATM   15  H   UNL     1      -7.867  13.753  68.914  1.00  0.00     0.000 HD 
BRANCH  13  16
HETATM   16  C   UNL     1     -10.185  14.734  69.059  1.00  0.00    -0.237 C  
HETATM   17  H   UNL     1     -11.616  16.053  68.831  1.00  0.00     0.000 HD 
HETATM   18  O   UNL     1     -11.309  15.293  68.353  1.00  0.00    -0.297 OA 
BRANCH  16  19
HETATM   19  C   UNL     1      -9.105  15.804  69.249  1.00  0.00    -0.263 C  
BRANCH  19  20
HETATM   20  O   UNL     1      -9.672  17.075  68.906  1.00  0.00    -0.264 OA 
HETATM   21  S   UNL     1      -8.936  17.903  67.715  1.00  0.00    -0.258 S  
HETATM   22  C   UNL     1     -10.019  19.313  67.710  1.00  0.00    -0.365 C  
HETATM   23  O   UNL     1      -9.107  17.175  66.475  1.00  0.00    -0.246 OA 
HETATM   24  O   UNL     1      -7.633  18.321  68.191  1.00  0.00    -0.252 OA 
ENDBRANCH  19  20
ENDBRANCH  16  19
ENDBRANCH  13  16
ENDBRANCH  10  13
ENDBRANCH   7  10
ENDBRANCH   6   7
ENDBRANCH   3   6
TORSDOF 7
ENDMDL
MODEL      243
REMARK 921   NORMALIZED FREE ENERGY PREDICTED BY IDOCK:   -3.50 KCAL/MOL
REMARK 922        TOTAL FREE ENERGY PREDICTED BY IDOCK:   -6.18 KCAL/MOL
REMARK 923 INTER-LIGAND FREE ENERGY PREDICTED BY IDOCK:   -5.05 KCAL/MOL
REMARK 924 INTRA-LIGAND FREE ENERGY PREDICTED BY IDOCK:   -1.13 KCAL/MOL
REMARK 927      BINDING AFFINITY PREDICTED BY RF-SCORE:    0.00 PKD
ROOT
HETATM    1  C   UNL     1     -11.193   5.894  72.586  1.00  0.00    -0.291 C  
HETATM    2  S   UNL     1     -12.040   6.841  71.347  1.00  0.00    -0.360 S  
HETATM    3  O   UNL     1     -11.328   8.297  71.590  1.00  0.00    -0.249 OA 
HETATM    4  O   UNL     1     -11.642   6.353  70.045  1.00  0.00    -0.425 OA 
HETATM    5  O   UNL     1     -13.433   6.957  71.730  1.00  0.00    -0.325 OA 
ENDROOT
BRANCH   3   6
HETATM    6  C   UNL     1     -11.786   9.325  70.706  1.00  0.00    -0.269 C  
BRANCH   6   7
HETATM    7  C   UNL     1     -10.704   9.751  69.709  1.00  0.00    -0.256 C  
HETATM    8  O   UNL     1     -10.267   8.603  68.955  1.00  0.00    -0.198 OA 
HETATM    9  H   UNL     1      -9.596   8.868  68.336  1.00  0.00     0.000 HD 
BRANCH   7  10
HETATM   10  C   UNL     1     -11.232  10.780  68.685  1.00  0.00    -0.274 C  
HETATM   11  H   UNL     1     -12.927  11.743  68.383  1.00  0.00     0.000 HD 
HETATM   12  O   UNL     1     -12.602  11.110  69.013  1.00  0.00    -0.370 OA 
BRANCH  10  13
HETATM   13  C   UNL     1     -10.466  12.114  68.604  1.00  0.00    -0.216 C  
HETATM   14  O   UNL     1     -11.401  13.153  68.964  1.00  0.00    -0.254 OA 
HETATM   15  H   UNL     1     -10.929  13.975  68.914  1.00  0.00     0.000 HD 
BRANCH  13  16
HETATM   16  C   UNL     1      -9.837  12.440  67.238  1.00  0.00    -0.207 C  
HETATM   17  H   UNL     1     -10.436  12.411  65.372  1.00  0.00     0.000 HD 
HETATM   18  O   UNL     1     -10.824  12.209  66.215  1.00  0.00    -0.261 OA 
BRANCH  16  19
HETATM   19  C   UNL     1      -8.578  11.618  66.941  1.00  0.00    -0.174 C  
BRANCH  19  20
HETATM   20  O   UNL     1      -8.674  11.125  65.598  1.00  0.00    -0.185 OA 
HETATM   21  S   UNL     1      -8.660   9.509  65.414  1.00  0.00    -0.166 S  
HETATM   22  C   UNL     1      -8.813   9.476  63.644  1.00  0.00    -0.210 C  
HETATM   23  O   UNL     1      -9.870   8.969  66.000  1.00  0.00    -0.277 OA 
HETATM   24  O   UNL     1      -7.345   9.022  65.775  1.00  0.00    -0.087 OA 
ENDBRANCH  19  20
ENDBRANCH  16  19
ENDBRANCH  13  16
ENDBRANCH  10  13
ENDBRANCH   7  10
ENDBRANCH   6   7
ENDBRANCH   3   6
TORSDOF 7
ENDMDL
MODEL      244
REMARK 921   NORMALIZED FREE ENERGY PREDICTED BY IDOCK:   -3.48 KCAL/MOL
REMARK 922        TOTAL FREE ENERGY PREDICTED BY IDOCK:   -6.16 KCAL/MOL
REMARK 923 INTER-LIGAND FREE ENERGY PREDICTED BY IDOCK:   -5.49 KCAL/MOL
REMARK 924 INTRA-LIGAND FREE ENERGY PREDICTED BY IDOCK:   -0.67 KCAL/MOL
REMARK 927      BINDING AFFINITY PREDICTED BY RF-SCORE:    0.00 PKD
ROOT
HETATM    1  C   UNL     1     -10.154   5.085  70.453  1.00  0.00    -0.260 C  
HETATM    2  S   UNL     1     -10.492   6.803  70.738  1.00  0.00    -0.218 S  
HETATM    3  O   UNL     1      -9.500   7.462  69.612  1.00  0.00    -0.157 OA 
HETATM    4  O   UNL     1     -11.860   7.072  70.351  1.00  0.00    -0.306 OA 
HETATM    5  O   UNL     1      -9.981   7.160  72.046  1.00  0.00    -0.164 OA 
ENDROOT
BRANCH   3   6
HETATM    6  C   UNL     1      -9.545   8.891  69.559  1.00  0.00    -0.171 C  
BRANCH   6   7
HETATM    7  C   UNL     1      -9.918   9.405  68.165  1.00  0.00    -0.175 C  
HETATM    8  O   UNL     1     -11.131   8.764  67.724  1.00  0.00    -0.485 OA 
HETATM    9  H   UNL     1     -11.361   9.083  66.859  1.00  0.00     0.000 HD 
BRANCH   7  10
HETATM   10  C   UNL     1     -10.192  10.925  68.161  1.00  0.00    -0.176 C  
HETATM   11  H   UNL     1      -9.145  12.558  68.519  1.00  0.00     0.000 HD 
HETATM   12  O   UNL     1      -8.976  11.623  68.521  1.00  0.00    -0.172 OA 
BRANCH  10  13
HETATM   13  C   UNL     1     -10.665  11.528  66.824  1.00  0.00    -0.270 C  
HETATM   14  O   UNL     1      -9.510  12.136  66.210  1.00  0.00    -0.228 OA 
HETATM   15  H   UNL     1      -9.801  12.508  65.387  1.00  0.00     0.000 HD 
BRANCH  13  16
HETATM   16  C   UNL     1     -11.799  12.563  66.925  1.00  0.00    -0.334 C  
HETATM   17  H   UNL     1     -13.208  13.225  65.735  1.00  0.00     0.000 HD 
HETATM   18  O   UNL     1     -12.509  12.586  65.673  1.00  0.00    -0.648 OA 
BRANCH  16  19
HETATM   19  C   UNL     1     -11.301  13.972  67.268  1.00  0.00    -0.330 C  
BRANCH  19  20
HETATM   20  O   UNL     1     -12.193  14.535  68.239  1.00  0.00    -0.233 OA 
HETATM   21  S   UNL     1     -11.737  14.422  69.797  1.00  0.00    -0.322 S  
HETATM   22  C   UNL     1     -13.138  15.253  70.508  1.00  0.00    -0.289 C  
HETATM   23  O   UNL     1     -10.557  15.240  69.991  1.00  0.00    -0.277 OA 
HETATM   24  O   UNL     1     -11.780  13.027  70.183  1.00  0.00    -0.271 OA 
ENDBRANCH  19  20
ENDBRANCH  16  19
ENDBRANCH  13  16
ENDBRANCH  10  13
ENDBRANCH   7  10
ENDBRANCH   6   7
ENDBRANCH   3   6
TORSDOF 7
ENDMDL
MODEL      245
REMARK 921   NORMALIZED FREE ENERGY PREDICTED BY IDOCK:   -3.48 KCAL/MOL
REMARK 922        TOTAL FREE ENERGY PREDICTED BY IDOCK:   -6.15 KCAL/MOL
REMARK 923 INTER-LIGAND FREE ENERGY PREDICTED BY IDOCK:   -4.96 KCAL/MOL
REMARK 924 INTRA-LIGAND FREE ENERGY PREDICTED BY IDOCK:   -1.19 KCAL/MOL
REMARK 927      BINDING AFFINITY PREDICTED BY RF-SCORE:    0.00 PKD
ROOT
HETATM    1  C   UNL     1      -8.382   5.922  66.861  1.00  0.00    -0.108 C  
HETATM    2  S   UNL     1      -9.771   6.921  67.333  1.00  0.00    -0.147 S  
HETATM    3  O   UNL     1      -9.420   8.283  66.491  1.00  0.00    -0.188 OA 
HETATM    4  O   UNL     1     -10.969   6.336  66.770  1.00  0.00    -0.347 OA 
HETATM    5  O   UNL     1      -9.658   7.227  68.745  1.00  0.00    -0.142 OA 
ENDROOT
BRANCH   3   6
HETATM    6  C   UNL     1     -10.388   9.326  66.639  1.00  0.00    -0.222 C  
BRANCH   6   7
HETATM    7  C   UNL     1      -9.734  10.698  66.828  1.00  0.00    -0.185 C  
HETATM    8  O   UNL     1      -8.319  10.530  67.045  1.00  0.00    -0.125 OA 
HETATM    9  H   UNL     1      -7.913  11.381  67.162  1.00  0.00     0.000 HD 
BRANCH   7  10
HETATM   10  C   UNL     1      -9.889  11.592  65.579  1.00  0.00    -0.234 C  
HETATM   11  H   UNL     1     -11.170  11.737  64.085  1.00  0.00     0.000 HD 
HETATM   12  O   UNL     1     -11.074  11.187  64.854  1.00  0.00    -0.187 OA 
BRANCH  10  13
HETATM   13  C   UNL     1     -10.026  13.104  65.836  1.00  0.00    -0.269 C  
HETATM   14  O   UNL     1      -9.316  13.383  67.061  1.00  0.00    -0.226 OA 
HETATM   15  H   UNL     1      -9.401  14.316  67.220  1.00  0.00     0.000 HD 
BRANCH  13  16
HETATM   16  C   UNL     1     -11.466  13.634  65.945  1.00  0.00    -0.316 C  
HETATM   17  H   UNL     1     -12.528  15.016  65.047  1.00  0.00     0.000 HD 
HETATM   18  O   UNL     1     -11.639  14.689  64.981  1.00  0.00    -0.358 OA 
BRANCH  16  19
HETATM   19  C   UNL     1     -11.818  14.146  67.346  1.00  0.00    -0.413 C  
BRANCH  19  20
HETATM   20  O   UNL     1     -11.341  15.494  67.460  1.00  0.00    -0.314 OA 
HETATM   21  S   UNL     1     -10.772  15.943  68.916  1.00  0.00    -0.274 S  
HETATM   22  C   UNL     1     -10.331  17.611  68.487  1.00  0.00    -0.370 C  
HETATM   23  O   UNL     1      -9.564  15.193  69.189  1.00  0.00    -0.217 OA 
HETATM   24  O   UNL     1     -11.883  15.982  69.845  1.00  0.00    -0.315 OA 
ENDBRANCH  19  20
ENDBRANCH  16  19
ENDBRANCH  13  16
ENDBRANCH  10  13
ENDBRANCH   7  10
ENDBRANCH   6   7
ENDBRANCH   3   6
TORSDOF 7
ENDMDL
MODEL      246
REMARK 921   NORMALIZED FREE ENERGY PREDICTED BY IDOCK:   -3.47 KCAL/MOL
REMARK 922        TOTAL FREE ENERGY PREDICTED BY IDOCK:   -6.14 KCAL/MOL
REMARK 923 INTER-LIGAND FREE ENERGY PREDICTED BY IDOCK:   -5.43 KCAL/MOL
REMARK 924 INTRA-LIGAND FREE ENERGY PREDICTED BY IDOCK:   -0.71 KCAL/MOL
REMARK 927      BINDING AFFINITY PREDICTED BY RF-SCORE:    0.00 PKD
ROOT
HETATM    1  C   UNL     1      -8.676  19.806  67.511  1.00  0.00    -0.330 C  
HETATM    2  S   UNL     1      -9.545  18.531  66.635  1.00  0.00    -0.333 S  
HETATM    3  O   UNL     1      -9.996  17.594  67.903  1.00  0.00    -0.295 OA 
HETATM    4  O   UNL     1     -10.737  19.107  66.050  1.00  0.00    -0.439 OA 
HETATM    5  O   UNL     1      -8.589  17.782  65.845  1.00  0.00    -0.516 OA 
ENDROOT
BRANCH   3   6
HETATM    6  C   UNL     1     -10.764  16.444  67.534  1.00  0.00    -0.298 C  
BRANCH   6   7
HETATM    7  C   UNL     1     -10.017  15.138  67.817  1.00  0.00    -0.225 C  
HETATM    8  O   UNL     1     -10.185  14.778  69.202  1.00  0.00    -0.233 OA 
HETATM    9  H   UNL     1      -9.721  13.967  69.378  1.00  0.00     0.000 HD 
BRANCH   7  10
HETATM   10  C   UNL     1     -10.567  13.961  66.982  1.00  0.00    -0.279 C  
HETATM   11  H   UNL     1     -12.298  13.490  66.160  1.00  0.00     0.000 HD 
HETATM   12  O   UNL     1     -11.959  14.214  66.674  1.00  0.00    -0.408 OA 
BRANCH  10  13
HETATM   13  C   UNL     1      -9.862  13.690  65.640  1.00  0.00    -0.175 C  
HETATM   14  O   UNL     1     -10.431  14.604  64.679  1.00  0.00    -0.549 OA 
HETATM   15  H   UNL     1      -9.996  14.436  63.851  1.00  0.00     0.000 HD 
BRANCH  13  16
HETATM   16  C   UNL     1      -9.973  12.250  65.108  1.00  0.00    -0.215 C  
HETATM   17  H   UNL     1     -11.262  11.247  64.025  1.00  0.00     0.000 HD 
HETATM   18  O   UNL     1     -11.194  12.135  64.353  1.00  0.00    -0.311 OA 
BRANCH  16  19
HETATM   19  C   UNL     1      -9.945  11.193  66.217  1.00  0.00    -0.219 C  
BRANCH  19  20
HETATM   20  O   UNL     1      -8.574  10.910  66.529  1.00  0.00    -0.145 OA 
HETATM   21  S   UNL     1      -8.160  10.961  68.101  1.00  0.00    -0.125 S  
HETATM   22  C   UNL     1      -6.445  10.539  67.901  1.00  0.00    -0.060 C  
HETATM   23  O   UNL     1      -8.834   9.878  68.788  1.00  0.00    -0.126 OA 
HETATM   24  O   UNL     1      -8.250  12.335  68.550  1.00  0.00    -0.153 OA 
ENDBRANCH  19  20
ENDBRANCH  16  19
ENDBRANCH  13  16
ENDBRANCH  10  13
ENDBRANCH   7  10
ENDBRANCH   6   7
ENDBRANCH   3   6
TORSDOF 7
ENDMDL
MODEL      247
REMARK 921   NORMALIZED FREE ENERGY PREDICTED BY IDOCK:   -3.46 KCAL/MOL
REMARK 922        TOTAL FREE ENERGY PREDICTED BY IDOCK:   -6.12 KCAL/MOL
REMARK 923 INTER-LIGAND FREE ENERGY PREDICTED BY IDOCK:   -5.40 KCAL/MOL
REMARK 924 INTRA-LIGAND FREE ENERGY PREDICTED BY IDOCK:   -0.72 KCAL/MOL
REMARK 927      BINDING AFFINITY PREDICTED BY RF-SCORE:    0.00 PKD
ROOT
HETATM    1  C   UNL     1     -11.249   6.093  70.147  1.00  0.00    -0.382 C  
HETATM    2  S   UNL     1     -11.068   7.662  70.956  1.00  0.00    -0.262 S  
HETATM    3  O   UNL     1     -10.026   8.381  69.915  1.00  0.00    -0.184 OA 
HETATM    4  O   UNL     1     -12.333   8.362  70.888  1.00  0.00    -0.197 OA 
HETATM    5  O   UNL     1     -10.373   7.455  72.211  1.00  0.00    -0.201 OA 
ENDROOT
BRANCH   3   6
HETATM    6  C   UNL     1      -9.674   9.721  70.275  1.00  0.00    -0.223 C  
BRANCH   6   7
HETATM    7  C   UNL     1      -9.189  10.533  69.071  1.00  0.00    -0.185 C  
HETATM    8  O   UNL     1      -8.991   9.653  67.946  1.00  0.00    -0.120 OA 
HETATM    9  H   UNL     1      -8.691  10.157  67.198  1.00  0.00     0.000 HD 
BRANCH   7  10
HETATM   10  C   UNL     1     -10.223  11.591  68.630  1.00  0.00    -0.208 C  
HETATM   11  H   UNL     1     -12.056  12.094  69.160  1.00  0.00     0.000 HD 
HETATM   12  O   UNL     1     -11.419  11.443  69.431  1.00  0.00    -0.257 OA 
BRANCH  10  13
HETATM   13  C   UNL     1      -9.788  13.063  68.759  1.00  0.00     0.026 C  
HETATM   14  O   UNL     1     -10.826  13.741  69.498  1.00  0.00    -0.431 OA 
HETATM   15  H   UNL     1     -10.558  14.648  69.577  1.00  0.00     0.000 HD 
BRANCH  13  16
HETATM   16  C   UNL     1      -9.536  13.802  67.433  1.00  0.00    -0.229 C  
HETATM   17  H   UNL     1     -10.511  15.107  66.343  1.00  0.00     0.000 HD 
HETATM   18  O   UNL     1     -10.667  14.651  67.161  1.00  0.00    -0.282 OA 
BRANCH  16  19
HETATM   19  C   UNL     1      -9.299  12.856  66.250  1.00  0.00    -0.141 C  
BRANCH  19  20
HETATM   20  O   UNL     1     -10.162  13.259  65.178  1.00  0.00    -0.307 OA 
HETATM   21  S   UNL     1     -11.332  12.213  64.753  1.00  0.00    -0.319 S  
HETATM   22  C   UNL     1     -12.059  13.191  63.459  1.00  0.00    -0.514 C  
HETATM   23  O   UNL     1     -12.275  12.108  65.848  1.00  0.00    -0.604 OA 
HETATM   24  O   UNL     1     -10.707  11.049  64.159  1.00  0.00    -0.378 OA 
ENDBRANCH  19  20
ENDBRANCH  16  19
ENDBRANCH  13  16
ENDBRANCH  10  13
ENDBRANCH   7  10
ENDBRANCH   6   7
ENDBRANCH   3   6
TORSDOF 7
ENDMDL
MODEL      248
REMARK 921   NORMALIZED FREE ENERGY PREDICTED BY IDOCK:   -3.45 KCAL/MOL
REMARK 922        TOTAL FREE ENERGY PREDICTED BY IDOCK:   -6.11 KCAL/MOL
REMARK 923 INTER-LIGAND FREE ENERGY PREDICTED BY IDOCK:   -5.48 KCAL/MOL
REMARK 924 INTRA-LIGAND FREE ENERGY PREDICTED BY IDOCK:   -0.62 KCAL/MOL
REMARK 927      BINDING AFFINITY PREDICTED BY RF-SCORE:    0.00 PKD
ROOT
HETATM    1  C   UNL     1      -8.859   9.889  65.433  1.00  0.00    -0.168 C  
HETATM    2  S   UNL     1      -9.348  10.702  66.932  1.00  0.00    -0.161 S  
HETATM    3  O   UNL     1      -9.975  12.078  66.298  1.00  0.00    -0.216 OA 
HETATM    4  O   UNL     1     -10.426   9.947  67.533  1.00  0.00    -0.220 OA 
HETATM    5  O   UNL     1      -8.154  11.056  67.673  1.00  0.00    -0.113 OA 
ENDROOT
BRANCH   3   6
HETATM    6  C   UNL     1     -10.499  12.983  67.275  1.00  0.00    -0.238 C  
BRANCH   6   7
HETATM    7  C   UNL     1     -11.084  14.246  66.635  1.00  0.00    -0.321 C  
HETATM    8  O   UNL     1     -12.322  14.588  67.289  1.00  0.00    -0.602 OA 
HETATM    9  H   UNL     1     -12.684  15.372  66.891  1.00  0.00     0.000 HD 
BRANCH   7  10
HETATM   10  C   UNL     1     -10.147  15.463  66.792  1.00  0.00    -0.262 C  
HETATM   11  H   UNL     1      -8.397  16.013  66.065  1.00  0.00     0.000 HD 
HETATM   12  O   UNL     1      -8.974  15.264  65.968  1.00  0.00    -0.292 OA 
BRANCH  10  13
HETATM   13  C   UNL     1     -10.735  16.831  66.396  1.00  0.00    -0.105 C  
HETATM   14  O   UNL     1     -10.645  16.921  64.959  1.00  0.00    -0.700 OA 
HETATM   15  H   UNL     1     -11.007  17.765  64.714  1.00  0.00     0.000 HD 
BRANCH  13  16
HETATM   16  C   UNL     1     -10.056  18.057  67.031  1.00  0.00    -0.346 C  
HETATM   17  H   UNL     1     -10.614  19.520  68.210  1.00  0.00     0.000 HD 
HETATM   18  O   UNL     1     -11.034  18.764  67.818  1.00  0.00    -0.341 OA 
BRANCH  16  19
HETATM   19  C   UNL     1      -9.434  19.005  66.000  1.00  0.00    -0.109 C  
BRANCH  19  20
HETATM   20  O   UNL     1      -8.143  18.491  65.645  1.00  0.00    -0.445 OA 
HETATM   21  S   UNL     1      -6.876  19.056  66.494  1.00  0.00    -0.208 S  
HETATM   22  C   UNL     1      -5.611  18.113  65.677  1.00  0.00    -0.194 C  
HETATM   23  O   UNL     1      -6.997  18.594  67.862  1.00  0.00    -0.216 OA 
HETATM   24  O   UNL     1      -6.697  20.455  66.166  1.00  0.00    -0.228 OA 
ENDBRANCH  19  20
ENDBRANCH  16  19
ENDBRANCH  13  16
ENDBRANCH  10  13
ENDBRANCH   7  10
ENDBRANCH   6   7
ENDBRANCH   3   6
TORSDOF 7
ENDMDL
MODEL      249
REMARK 921   NORMALIZED FREE ENERGY PREDICTED BY IDOCK:   -3.45 KCAL/MOL
REMARK 922        TOTAL FREE ENERGY PREDICTED BY IDOCK:   -6.10 KCAL/MOL
REMARK 923 INTER-LIGAND FREE ENERGY PREDICTED BY IDOCK:   -5.31 KCAL/MOL
REMARK 924 INTRA-LIGAND FREE ENERGY PREDICTED BY IDOCK:   -0.79 KCAL/MOL
REMARK 927      BINDING AFFINITY PREDICTED BY RF-SCORE:    0.00 PKD
ROOT
HETATM    1  C   UNL     1     -12.247  14.785  64.282  1.00  0.00    -0.379 C  
HETATM    2  S   UNL     1     -12.003  13.122  64.850  1.00  0.00    -0.415 S  
HETATM    3  O   UNL     1     -11.937  13.397  66.464  1.00  0.00    -0.374 OA 
HETATM    4  O   UNL     1     -13.201  12.361  64.567  1.00  0.00    -0.834 OA 
HETATM    5  O   UNL     1     -10.693  12.677  64.420  1.00  0.00    -0.314 OA 
ENDROOT
BRANCH   3   6
HETATM    6  C   UNL     1     -11.761  12.214  67.251  1.00  0.00    -0.299 C  
BRANCH   6   7
HETATM    7  C   UNL     1     -10.432  12.221  68.012  1.00  0.00    -0.218 C  
HETATM    8  O   UNL     1     -10.682  12.440  69.414  1.00  0.00    -0.439 OA 
HETATM    9  H   UNL     1      -9.857  12.444  69.886  1.00  0.00     0.000 HD 
BRANCH   7  10
HETATM   10  C   UNL     1      -9.691  10.871  67.898  1.00  0.00    -0.165 C  
HETATM   11  H   UNL     1      -8.111  10.195  66.930  1.00  0.00     0.000 HD 
HETATM   12  O   UNL     1      -8.567  11.026  67.000  1.00  0.00    -0.134 OA 
BRANCH  10  13
HETATM   13  C   UNL     1      -9.130  10.290  69.209  1.00  0.00    -0.194 C  
HETATM   14  O   UNL     1      -7.885  10.972  69.467  1.00  0.00    -0.354 OA 
HETATM   15  H   UNL     1      -7.539  10.614  70.276  1.00  0.00     0.000 HD 
BRANCH  13  16
HETATM   16  C   UNL     1      -8.893   8.769  69.216  1.00  0.00    -0.140 C  
HETATM   17  H   UNL     1      -7.381   7.580  68.840  1.00  0.00     0.000 HD 
HETATM   18  O   UNL     1      -7.527   8.518  68.835  1.00  0.00    -0.087 OA 
BRANCH  16  19
HETATM   19  C   UNL     1      -9.842   8.006  68.286  1.00  0.00    -0.170 C  
BRANCH  19  20
HETATM   20  O   UNL     1      -9.504   6.614  68.349  1.00  0.00    -0.127 OA 
HETATM   21  S   UNL     1      -9.552   5.789  66.949  1.00  0.00    -0.150 S  
HETATM   22  C   UNL     1      -9.054   4.209  67.593  1.00  0.00    -0.140 C  
HETATM   23  O   UNL     1      -8.507   6.293  66.082  1.00  0.00    -0.126 OA 
HETATM   24  O   UNL     1     -10.933   5.700  66.521  1.00  0.00    -0.252 OA 
ENDBRANCH  19  20
ENDBRANCH  16  19
ENDBRANCH  13  16
ENDBRANCH  10  13
ENDBRANCH   7  10
ENDBRANCH   6   7
ENDBRANCH   3   6
TORSDOF 7
ENDMDL
MODEL      250
REMARK 921   NORMALIZED FREE ENERGY PREDICTED BY IDOCK:   -3.44 KCAL/MOL
REMARK 922        TOTAL FREE ENERGY PREDICTED BY IDOCK:   -6.10 KCAL/MOL
REMARK 923 INTER-LIGAND FREE ENERGY PREDICTED BY IDOCK:   -4.86 KCAL/MOL
REMARK 924 INTRA-LIGAND FREE ENERGY PREDICTED BY IDOCK:   -1.24 KCAL/MOL
REMARK 927      BINDING AFFINITY PREDICTED BY RF-SCORE:    0.00 PKD
ROOT
HETATM    1  C   UNL     1     -12.284  11.804  69.603  1.00  0.00    -0.185 C  
HETATM    2  S   UNL     1     -11.367  12.514  68.260  1.00  0.00    -0.312 S  
HETATM    3  O   UNL     1     -11.433  11.264  67.201  1.00  0.00    -0.460 OA 
HETATM    4  O   UNL     1     -12.132  13.614  67.712  1.00  0.00    -0.358 OA 
HETATM    5  O   UNL     1      -9.988  12.671  68.678  1.00  0.00    -0.194 OA 
ENDROOT
BRANCH   3   6
HETATM    6  C   UNL     1     -10.781  11.522  65.953  1.00  0.00    -0.272 C  
BRANCH   6   7
HETATM    7  C   UNL     1     -10.349  10.231  65.251  1.00  0.00    -0.148 C  
HETATM    8  O   UNL     1     -10.172  10.485  63.843  1.00  0.00    -0.423 OA 
HETATM    9  H   UNL     1      -9.904   9.684  63.408  1.00  0.00     0.000 HD 
BRANCH   7  10
HETATM   10  C   UNL     1      -8.997   9.706  65.781  1.00  0.00    -0.169 C  
HETATM   11  H   UNL     1      -7.415  10.490  66.661  1.00  0.00     0.000 HD 
HETATM   12  O   UNL     1      -8.247  10.813  66.335  1.00  0.00    -0.143 OA 
BRANCH  10  13
HETATM   13  C   UNL     1      -9.068   8.629  66.881  1.00  0.00    -0.144 C  
HETATM   14  O   UNL     1     -10.459   8.269  67.020  1.00  0.00    -0.310 OA 
HETATM   15  H   UNL     1     -10.503   7.606  67.698  1.00  0.00     0.000 HD 
BRANCH  13  16
HETATM   16  C   UNL     1      -8.504   9.039  68.252  1.00  0.00    -0.129 C  
HETATM   17  H   UNL     1      -7.277   8.249  69.561  1.00  0.00     0.000 HD 
HETATM   18  O   UNL     1      -7.625   7.996  68.714  1.00  0.00    -0.098 OA 
BRANCH  16  19
HETATM   19  C   UNL     1      -9.592   9.305  69.298  1.00  0.00    -0.161 C  
BRANCH  19  20
HETATM   20  O   UNL     1      -9.723   8.132  70.113  1.00  0.00    -0.174 OA 
HETATM   21  S   UNL     1      -9.803   8.368  71.720  1.00  0.00    -0.271 S  
HETATM   22  C   UNL     1      -9.965   6.663  72.196  1.00  0.00    -0.160 C  
HETATM   23  O   UNL     1     -11.039   9.060  72.022  1.00  0.00    -0.364 OA 
HETATM   24  O   UNL     1      -8.516   8.855  72.172  1.00  0.00    -0.382 OA 
ENDBRANCH  19  20
ENDBRANCH  16  19
ENDBRANCH  13  16
ENDBRANCH  10  13
ENDBRANCH   7  10
ENDBRANCH   6   7
ENDBRANCH   3   6
TORSDOF 7
ENDMDL
MODEL      251
REMARK 921   NORMALIZED FREE ENERGY PREDICTED BY IDOCK:   -3.42 KCAL/MOL
REMARK 922        TOTAL FREE ENERGY PREDICTED BY IDOCK:   -6.06 KCAL/MOL
REMARK 923 INTER-LIGAND FREE ENERGY PREDICTED BY IDOCK:   -5.36 KCAL/MOL
REMARK 924 INTRA-LIGAND FREE ENERGY PREDICTED BY IDOCK:   -0.70 KCAL/MOL
REMARK 927      BINDING AFFINITY PREDICTED BY RF-SCORE:    0.00 PKD
ROOT
HETATM    1  C   UNL     1     -12.047  14.285  66.463  1.00  0.00    -0.429 C  
HETATM    2  S   UNL     1     -11.577  13.893  64.797  1.00  0.00    -0.394 S  
HETATM    3  O   UNL     1     -11.723  12.261  64.854  1.00  0.00    -0.349 OA 
HETATM    4  O   UNL     1     -12.591  14.408  63.902  1.00  0.00    -0.814 OA 
HETATM    5  O   UNL     1     -10.173  14.210  64.629  1.00  0.00    -0.408 OA 
ENDROOT
BRANCH   3   6
HETATM    6  C   UNL     1     -11.425  11.606  63.618  1.00  0.00    -0.363 C  
BRANCH   6   7
HETATM    7  C   UNL     1     -10.050  10.932  63.640  1.00  0.00    -0.355 C  
HETATM    8  O   UNL     1      -9.074  11.811  63.046  1.00  0.00    -0.625 OA 
HETATM    9  H   UNL     1      -8.220  11.393  63.060  1.00  0.00     0.000 HD 
BRANCH   7  10
HETATM   10  C   UNL     1      -9.569  10.641  65.078  1.00  0.00    -0.265 C  
HETATM   11  H   UNL     1     -10.228   9.589  66.611  1.00  0.00     0.000 HD 
HETATM   12  O   UNL     1     -10.524   9.769  65.726  1.00  0.00    -0.132 OA 
BRANCH  10  13
HETATM   13  C   UNL     1      -8.192   9.962  65.212  1.00  0.00    -0.145 C  
HETATM   14  O   UNL     1      -8.399   8.748  65.963  1.00  0.00    -0.116 OA 
HETATM   15  H   UNL     1      -7.550   8.330  66.046  1.00  0.00     0.000 HD 
BRANCH  13  16
HETATM   16  C   UNL     1      -7.097  10.805  65.888  1.00  0.00    -0.080 C  
HETATM   17  H   UNL     1      -5.305  10.467  66.607  1.00  0.00     0.000 HD 
HETATM   18  O   UNL     1      -5.981   9.947  66.190  1.00  0.00    -0.060 OA 
BRANCH  16  19
HETATM   19  C   UNL     1      -7.576  11.505  67.165  1.00  0.00    -0.149 C  
BRANCH  19  20
HETATM   20  O   UNL     1      -7.343  12.912  67.015  1.00  0.00    -0.043 OA 
HETATM   21  S   UNL     1      -7.763  13.857  68.270  1.00  0.00    -0.148 S  
HETATM   22  C   UNL     1      -7.262  15.411  67.568  1.00  0.00    -0.196 C  
HETATM   23  O   UNL     1      -6.897  13.547  69.389  1.00  0.00    -0.094 OA 
HETATM   24  O   UNL     1      -9.207  13.844  68.386  1.00  0.00    -0.200 OA 
ENDBRANCH  19  20
ENDBRANCH  16  19
ENDBRANCH  13  16
ENDBRANCH  10  13
ENDBRANCH   7  10
ENDBRANCH   6   7
ENDBRANCH   3   6
TORSDOF 7
ENDMDL
MODEL      252
REMARK 921   NORMALIZED FREE ENERGY PREDICTED BY IDOCK:   -3.41 KCAL/MOL
REMARK 922        TOTAL FREE ENERGY PREDICTED BY IDOCK:   -6.05 KCAL/MOL
REMARK 923 INTER-LIGAND FREE ENERGY PREDICTED BY IDOCK:   -5.04 KCAL/MOL
REMARK 924 INTRA-LIGAND FREE ENERGY PREDICTED BY IDOCK:   -1.01 KCAL/MOL
REMARK 927      BINDING AFFINITY PREDICTED BY RF-SCORE:    0.00 PKD
ROOT
HETATM    1  C   UNL     1     -10.513   7.622  72.922  1.00  0.00    -0.336 C  
HETATM    2  S   UNL     1     -10.253   6.979  71.289  1.00  0.00    -0.189 S  
HETATM    3  O   UNL     1      -9.674   8.328  70.559  1.00  0.00    -0.169 OA 
HETATM    4  O   UNL     1      -9.187   6.001  71.345  1.00  0.00    -0.143 OA 
HETATM    5  O   UNL     1     -11.543   6.675  70.704  1.00  0.00    -0.338 OA 
ENDROOT
BRANCH   3   6
HETATM    6  C   UNL     1      -9.331   8.144  69.182  1.00  0.00    -0.151 C  
BRANCH   6   7
HETATM    7  C   UNL     1      -9.208   9.476  68.436  1.00  0.00    -0.130 C  
HETATM    8  O   UNL     1      -7.818   9.752  68.169  1.00  0.00    -0.085 OA 
HETATM    9  H   UNL     1      -7.743  10.578  67.706  1.00  0.00     0.000 HD 
BRANCH   7  10
HETATM   10  C   UNL     1      -9.925   9.444  67.069  1.00  0.00    -0.221 C  
HETATM   11  H   UNL     1     -10.987   8.129  66.051  1.00  0.00     0.000 HD 
HETATM   12  O   UNL     1     -10.545   8.149  66.893  1.00  0.00    -0.329 OA 
BRANCH  10  13
HETATM   13  C   UNL     1     -11.032  10.494  66.856  1.00  0.00    -0.131 C  
HETATM   14  O   UNL     1     -10.659  11.262  65.692  1.00  0.00    -0.258 OA 
HETATM   15  H   UNL     1     -11.341  11.909  65.561  1.00  0.00     0.000 HD 
BRANCH  13  16
HETATM   16  C   UNL     1     -11.285  11.446  68.039  1.00  0.00    -0.281 C  
HETATM   17  H   UNL     1     -12.554  11.529  69.530  1.00  0.00     0.000 HD 
HETATM   18  O   UNL     1     -12.399  10.942  68.799  1.00  0.00    -0.495 OA 
BRANCH  16  19
HETATM   19  C   UNL     1     -11.560  12.890  67.605  1.00  0.00    -0.355 C  
BRANCH  19  20
HETATM   20  O   UNL     1     -10.307  13.584  67.548  1.00  0.00    -0.234 OA 
HETATM   21  S   UNL     1     -10.173  14.754  66.427  1.00  0.00    -0.304 S  
HETATM   22  C   UNL     1      -8.509  15.250  66.807  1.00  0.00    -0.255 C  
HETATM   23  O   UNL     1     -11.076  15.831  66.777  1.00  0.00    -0.252 OA 
HETATM   24  O   UNL     1     -10.184  14.133  65.119  1.00  0.00    -0.376 OA 
ENDBRANCH  19  20
ENDBRANCH  16  19
ENDBRANCH  13  16
ENDBRANCH  10  13
ENDBRANCH   7  10
ENDBRANCH   6   7
ENDBRANCH   3   6
TORSDOF 7
ENDMDL
MODEL      253
REMARK 921   NORMALIZED FREE ENERGY PREDICTED BY IDOCK:   -3.41 KCAL/MOL
REMARK 922        TOTAL FREE ENERGY PREDICTED BY IDOCK:   -6.05 KCAL/MOL
REMARK 923 INTER-LIGAND FREE ENERGY PREDICTED BY IDOCK:   -4.76 KCAL/MOL
REMARK 924 INTRA-LIGAND FREE ENERGY PREDICTED BY IDOCK:   -1.29 KCAL/MOL
REMARK 927      BINDING AFFINITY PREDICTED BY RF-SCORE:    0.00 PKD
ROOT
HETATM    1  C   UNL     1     -12.523  12.060  63.792  1.00  0.00    -0.485 C  
HETATM    2  S   UNL     1     -10.861  11.940  64.403  1.00  0.00    -0.358 S  
HETATM    3  O   UNL     1     -11.163  11.277  65.871  1.00  0.00    -0.177 OA 
HETATM    4  O   UNL     1     -10.148  10.966  63.604  1.00  0.00    -0.318 OA 
HETATM    5  O   UNL     1     -10.351  13.279  64.614  1.00  0.00    -0.381 OA 
ENDROOT
BRANCH   3   6
HETATM    6  C   UNL     1      -9.988  11.021  66.648  1.00  0.00    -0.209 C  
BRANCH   6   7
HETATM    7  C   UNL     1     -10.251  10.020  67.777  1.00  0.00    -0.192 C  
HETATM    8  O   UNL     1      -9.018   9.367  68.138  1.00  0.00    -0.128 OA 
HETATM    9  H   UNL     1      -9.182   8.746  68.838  1.00  0.00     0.000 HD 
BRANCH   7  10
HETATM   10  C   UNL     1     -10.778  10.710  69.053  1.00  0.00    -0.221 C  
HETATM   11  H   UNL     1     -12.506  11.441  69.664  1.00  0.00     0.000 HD 
HETATM   12  O   UNL     1     -12.182  11.016  68.878  1.00  0.00    -0.519 OA 
BRANCH  10  13
HETATM   13  C   UNL     1     -10.663   9.904  70.361  1.00  0.00    -0.318 C  
HETATM   14  O   UNL     1      -9.274   9.939  70.750  1.00  0.00    -0.322 OA 
HETATM   15  H   UNL     1      -9.204   9.442  71.556  1.00  0.00     0.000 HD 
BRANCH  13  16
HETATM   16  C   UNL     1     -11.139   8.442  70.286  1.00  0.00    -0.213 C  
HETATM   17  H   UNL     1     -12.701   7.438  70.913  1.00  0.00     0.000 HD 
HETATM   18  O   UNL     1     -12.407   8.340  70.960  1.00  0.00    -0.253 OA 
BRANCH  16  19
HETATM   19  C   UNL     1     -10.143   7.451  70.897  1.00  0.00    -0.188 C  
BRANCH  19  20
HETATM   20  O   UNL     1      -9.192   7.094  69.885  1.00  0.00    -0.142 OA 
HETATM   21  S   UNL     1      -7.668   6.820  70.382  1.00  0.00    -0.102 S  
HETATM   22  C   UNL     1      -6.974   6.425  68.795  1.00  0.00    -0.080 C  
HETATM   23  O   UNL     1      -7.661   5.628  71.207  1.00  0.00    -0.103 OA 
HETATM   24  O   UNL     1      -7.105   8.075  70.836  1.00  0.00    -0.047 OA 
ENDBRANCH  19  20
ENDBRANCH  16  19
ENDBRANCH  13  16
ENDBRANCH  10  13
ENDBRANCH   7  10
ENDBRANCH   6   7
ENDBRANCH   3   6
TORSDOF 7
ENDMDL
MODEL      254
REMARK 921   NORMALIZED FREE ENERGY PREDICTED BY IDOCK:   -3.40 KCAL/MOL
REMARK 922        TOTAL FREE ENERGY PREDICTED BY IDOCK:   -6.04 KCAL/MOL
REMARK 923 INTER-LIGAND FREE ENERGY PREDICTED BY IDOCK:   -5.17 KCAL/MOL
REMARK 924 INTRA-LIGAND FREE ENERGY PREDICTED BY IDOCK:   -0.87 KCAL/MOL
REMARK 927      BINDING AFFINITY PREDICTED BY RF-SCORE:    0.00 PKD
ROOT
HETATM    1  C   UNL     1      -6.041  16.375  67.404  1.00  0.00    -0.167 C  
HETATM    2  S   UNL     1      -6.949  15.077  68.203  1.00  0.00    -0.138 S  
HETATM    3  O   UNL     1      -6.488  13.812  67.267  1.00  0.00    -0.281 OA 
HETATM    4  O   UNL     1      -6.404  14.884  69.529  1.00  0.00    -0.111 OA 
HETATM    5  O   UNL     1      -8.364  15.303  67.981  1.00  0.00    -0.141 OA 
ENDROOT
BRANCH   3   6
HETATM    6  C   UNL     1      -7.047  12.557  67.667  1.00  0.00    -0.139 C  
BRANCH   6   7
HETATM    7  C   UNL     1      -8.054  12.023  66.645  1.00  0.00    -0.023 C  
HETATM    8  O   UNL     1      -7.430  11.001  65.843  1.00  0.00    -0.310 OA 
HETATM    9  H   UNL     1      -8.056  10.670  65.208  1.00  0.00     0.000 HD 
BRANCH   7  10
HETATM   10  C   UNL     1      -9.279  11.371  67.322  1.00  0.00    -0.165 C  
HETATM   11  H   UNL     1      -9.771   9.557  67.924  1.00  0.00     0.000 HD 
HETATM   12  O   UNL     1      -9.018   9.959  67.507  1.00  0.00    -0.134 OA 
BRANCH  10  13
HETATM   13  C   UNL     1      -9.671  11.929  68.703  1.00  0.00    -0.108 C  
HETATM   14  O   UNL     1      -9.982  10.794  69.538  1.00  0.00    -0.398 OA 
HETATM   15  H   UNL     1     -10.225  11.138  70.389  1.00  0.00     0.000 HD 
BRANCH  13  16
HETATM   16  C   UNL     1     -10.855  12.913  68.712  1.00  0.00    -0.242 C  
HETATM   17  H   UNL     1     -12.496  13.129  69.762  1.00  0.00     0.000 HD 
HETATM   18  O   UNL     1     -11.766  12.522  69.756  1.00  0.00    -0.307 OA 
BRANCH  16  19
HETATM   19  C   UNL     1     -11.595  12.979  67.372  1.00  0.00    -0.356 C  
BRANCH  19  20
HETATM   20  O   UNL     1     -11.275  14.229  66.747  1.00  0.00    -0.313 OA 
HETATM   21  S   UNL     1     -11.610  14.357  65.161  1.00  0.00    -0.376 S  
HETATM   22  C   UNL     1     -11.049  16.028  64.940  1.00  0.00    -0.370 C  
HETATM   23  O   UNL     1     -13.048  14.317  64.990  1.00  0.00    -0.682 OA 
HETATM   24  O   UNL     1     -10.723  13.470  64.436  1.00  0.00    -0.408 OA 
ENDBRANCH  19  20
ENDBRANCH  16  19
ENDBRANCH  13  16
ENDBRANCH  10  13
ENDBRANCH   7  10
ENDBRANCH   6   7
ENDBRANCH   3   6
TORSDOF 7
ENDMDL
MODEL      255
REMARK 921   NORMALIZED FREE ENERGY PREDICTED BY IDOCK:   -3.40 KCAL/MOL
REMARK 922        TOTAL FREE ENERGY PREDICTED BY IDOCK:   -6.03 KCAL/MOL
REMARK 923 INTER-LIGAND FREE ENERGY PREDICTED BY IDOCK:   -5.03 KCAL/MOL
REMARK 924 INTRA-LIGAND FREE ENERGY PREDICTED BY IDOCK:   -1.01 KCAL/MOL
REMARK 927      BINDING AFFINITY PREDICTED BY RF-SCORE:    0.00 PKD
ROOT
HETATM    1  C   UNL     1     -12.738  13.558  65.440  1.00  0.00    -0.442 C  
HETATM    2  S   UNL     1     -11.222  12.849  64.849  1.00  0.00    -0.314 S  
HETATM    3  O   UNL     1     -10.668  12.197  66.247  1.00  0.00    -0.246 OA 
HETATM    4  O   UNL     1     -11.544  11.770  63.941  1.00  0.00    -0.390 OA 
HETATM    5  O   UNL     1     -10.327  13.925  64.474  1.00  0.00    -0.436 OA 
ENDROOT
BRANCH   3   6
HETATM    6  C   UNL     1      -9.423  11.504  66.114  1.00  0.00    -0.220 C  
BRANCH   6   7
HETATM    7  C   UNL     1      -9.568  10.002  66.379  1.00  0.00    -0.196 C  
HETATM    8  O   UNL     1     -10.077   9.353  65.197  1.00  0.00    -0.345 OA 
HETATM    9  H   UNL     1     -10.166   8.421  65.361  1.00  0.00     0.000 HD 
BRANCH   7  10
HETATM   10  C   UNL     1      -8.213   9.337  66.704  1.00  0.00    -0.115 C  
HETATM   11  H   UNL     1      -6.311   9.841  66.559  1.00  0.00     0.000 HD 
HETATM   12  O   UNL     1      -7.145  10.250  66.359  1.00  0.00    -0.100 OA 
BRANCH  10  13
HETATM   13  C   UNL     1      -7.988   8.931  68.173  1.00  0.00    -0.102 C  
HETATM   14  O   UNL     1      -8.395   7.552  68.290  1.00  0.00    -0.124 OA 
HETATM   15  H   UNL     1      -8.257   7.302  69.196  1.00  0.00     0.000 HD 
BRANCH  13  16
HETATM   16  C   UNL     1      -8.735   9.778  69.219  1.00  0.00    -0.164 C  
HETATM   17  H   UNL     1      -8.508  11.557  70.010  1.00  0.00     0.000 HD 
HETATM   18  O   UNL     1      -8.047  11.035  69.364  1.00  0.00    -0.067 OA 
BRANCH  16  19
HETATM   19  C   UNL     1      -8.852   9.088  70.583  1.00  0.00    -0.219 C  
BRANCH  19  20
HETATM   20  O   UNL     1      -9.970   8.192  70.533  1.00  0.00    -0.185 OA 
HETATM   21  S   UNL     1     -11.149   8.440  71.626  1.00  0.00    -0.301 S  
HETATM   22  C   UNL     1     -12.222   7.119  71.113  1.00  0.00    -0.365 C  
HETATM   23  O   UNL     1     -11.789   9.706  71.333  1.00  0.00    -0.350 OA 
HETATM   24  O   UNL     1     -10.625   8.127  72.939  1.00  0.00    -0.346 OA 
ENDBRANCH  19  20
ENDBRANCH  16  19
ENDBRANCH  13  16
ENDBRANCH  10  13
ENDBRANCH   7  10
ENDBRANCH   6   7
ENDBRANCH   3   6
TORSDOF 7
ENDMDL
MODEL      256
REMARK 921   NORMALIZED FREE ENERGY PREDICTED BY IDOCK:   -3.40 KCAL/MOL
REMARK 922        TOTAL FREE ENERGY PREDICTED BY IDOCK:   -6.03 KCAL/MOL
REMARK 923 INTER-LIGAND FREE ENERGY PREDICTED BY IDOCK:   -5.24 KCAL/MOL
REMARK 924 INTRA-LIGAND FREE ENERGY PREDICTED BY IDOCK:   -0.79 KCAL/MOL
REMARK 927      BINDING AFFINITY PREDICTED BY RF-SCORE:    0.00 PKD
ROOT
HETATM    1  C   UNL     1      -9.108   9.516  65.027  1.00  0.00    -0.228 C  
HETATM    2  S   UNL     1     -10.075  10.188  66.356  1.00  0.00    -0.227 S  
HETATM    3  O   UNL     1     -10.779  11.440  65.568  1.00  0.00    -0.276 OA 
HETATM    4  O   UNL     1     -11.105   9.232  66.703  1.00  0.00     0.178 OA 
HETATM    5  O   UNL     1      -9.173  10.736  67.348  1.00  0.00    -0.146 OA 
ENDROOT
BRANCH   3   6
HETATM    6  C   UNL     1     -11.674  12.209  66.378  1.00  0.00    -0.324 C  
BRANCH   6   7
HETATM    7  C   UNL     1     -12.112  13.503  65.684  1.00  0.00    -0.430 C  
HETATM    8  O   UNL     1     -13.546  13.626  65.757  1.00  0.00    -0.295 OA 
HETATM    9  H   UNL     1     -13.818  14.428  65.327  1.00  0.00     0.000 HD 
BRANCH   7  10
HETATM   10  C   UNL     1     -11.524  14.756  66.367  1.00  0.00    -0.319 C  
HETATM   11  H   UNL     1     -10.419  15.119  67.961  1.00  0.00     0.000 HD 
HETATM   12  O   UNL     1     -10.781  14.348  67.541  1.00  0.00    -0.266 OA 
BRANCH  10  13
HETATM   13  C   UNL     1     -10.565  15.609  65.515  1.00  0.00    -0.404 C  
HETATM   14  O   UNL     1      -9.338  14.859  65.392  1.00  0.00    -0.419 OA 
HETATM   15  H   UNL     1      -8.747  15.385  64.868  1.00  0.00     0.000 HD 
BRANCH  13  16
HETATM   16  C   UNL     1     -10.255  17.013  66.065  1.00  0.00    -0.325 C  
HETATM   17  H   UNL     1     -10.766  18.848  65.604  1.00  0.00     0.000 HD 
HETATM   18  O   UNL     1     -10.957  17.982  65.265  1.00  0.00    -0.575 OA 
BRANCH  16  19
HETATM   19  C   UNL     1      -8.757  17.338  66.082  1.00  0.00    -0.162 C  
BRANCH  19  20
HETATM   20  O   UNL     1      -8.158  16.619  67.168  1.00  0.00    -0.163 OA 
HETATM   21  S   UNL     1      -7.302  17.496  68.237  1.00  0.00    -0.232 S  
HETATM   22  C   UNL     1      -6.832  16.159  69.310  1.00  0.00    -0.206 C  
HETATM   23  O   UNL     1      -8.213  18.370  68.948  1.00  0.00    -0.272 OA 
HETATM   24  O   UNL     1      -6.116  17.994  67.571  1.00  0.00    -0.153 OA 
ENDBRANCH  19  20
ENDBRANCH  16  19
ENDBRANCH  13  16
ENDBRANCH  10  13
ENDBRANCH   7  10
ENDBRANCH   6   7
ENDBRANCH   3   6
TORSDOF 7
ENDMDL
MODEL      257
REMARK 921   NORMALIZED FREE ENERGY PREDICTED BY IDOCK:   -3.39 KCAL/MOL
REMARK 922        TOTAL FREE ENERGY PREDICTED BY IDOCK:   -6.03 KCAL/MOL
REMARK 923 INTER-LIGAND FREE ENERGY PREDICTED BY IDOCK:   -5.14 KCAL/MOL
REMARK 924 INTRA-LIGAND FREE ENERGY PREDICTED BY IDOCK:   -0.89 KCAL/MOL
REMARK 927      BINDING AFFINITY PREDICTED BY RF-SCORE:    0.00 PKD
ROOT
HETATM    1  C   UNL     1     -10.667  16.318  65.506  1.00  0.00    -0.313 C  
HETATM    2  S   UNL     1     -10.640  14.786  66.402  1.00  0.00    -0.309 S  
HETATM    3  O   UNL     1     -10.907  13.747  65.163  1.00  0.00    -0.310 OA 
HETATM    4  O   UNL     1      -9.298  14.567  66.896  1.00  0.00    -0.223 OA 
HETATM    5  O   UNL     1     -11.795  14.744  67.275  1.00  0.00    -0.378 OA 
ENDROOT
BRANCH   3   6
HETATM    6  C   UNL     1     -10.926  12.369  65.551  1.00  0.00    -0.293 C  
BRANCH   6   7
HETATM    7  C   UNL     1      -9.663  11.627  65.106  1.00  0.00    -0.219 C  
HETATM    8  O   UNL     1      -8.604  11.868  66.054  1.00  0.00    -0.386 OA 
HETATM    9  H   UNL     1      -7.820  11.407  65.777  1.00  0.00     0.000 HD 
BRANCH   7  10
HETATM   10  C   UNL     1      -9.875  10.099  65.055  1.00  0.00    -0.322 C  
HETATM   11  H   UNL     1      -9.237   8.612  63.925  1.00  0.00     0.000 HD 
HETATM   12  O   UNL     1      -9.107   9.553  63.956  1.00  0.00    -0.228 OA 
BRANCH  10  13
HETATM   13  C   UNL     1      -9.462   9.312  66.313  1.00  0.00    -0.224 C  
HETATM   14  O   UNL     1      -8.581   8.257  65.873  1.00  0.00    -0.133 OA 
HETATM   15  H   UNL     1      -8.326   7.772  66.649  1.00  0.00     0.000 HD 
BRANCH  13  16
HETATM   16  C   UNL     1     -10.617   8.708  67.131  1.00  0.00    -0.234 C  
HETATM   17  H   UNL     1     -11.480   9.098  68.847  1.00  0.00     0.000 HD 
HETATM   18  O   UNL     1     -10.767   9.471  68.343  1.00  0.00    -0.221 OA 
BRANCH  16  19
HETATM   19  C   UNL     1     -10.409   7.228  67.469  1.00  0.00    -0.242 C  
BRANCH  19  20
HETATM   20  O   UNL     1      -9.802   7.149  68.766  1.00  0.00    -0.154 OA 
HETATM   21  S   UNL     1     -10.531   6.182  69.852  1.00  0.00    -0.261 S  
HETATM   22  C   UNL     1      -9.398   6.448  71.195  1.00  0.00    -0.160 C  
HETATM   23  O   UNL     1     -10.410   4.810  69.401  1.00  0.00    -0.177 OA 
HETATM   24  O   UNL     1     -11.808   6.769  70.199  1.00  0.00    -0.349 OA 
ENDBRANCH  19  20
ENDBRANCH  16  19
ENDBRANCH  13  16
ENDBRANCH  10  13
ENDBRANCH   7  10
ENDBRANCH   6   7
ENDBRANCH   3   6
TORSDOF 7
ENDMDL
MODEL      258
REMARK 921   NORMALIZED FREE ENERGY PREDICTED BY IDOCK:   -3.39 KCAL/MOL
REMARK 922        TOTAL FREE ENERGY PREDICTED BY IDOCK:   -6.02 KCAL/MOL
REMARK 923 INTER-LIGAND FREE ENERGY PREDICTED BY IDOCK:   -5.11 KCAL/MOL
REMARK 924 INTRA-LIGAND FREE ENERGY PREDICTED BY IDOCK:   -0.91 KCAL/MOL
REMARK 927      BINDING AFFINITY PREDICTED BY RF-SCORE:    0.00 PKD
ROOT
HETATM    1  C   UNL     1     -10.849  15.676  64.958  1.00  0.00    -0.450 C  
HETATM    2  S   UNL     1     -11.000  14.386  66.167  1.00  0.00    -0.327 S  
HETATM    3  O   UNL     1     -11.212  13.105  65.167  1.00  0.00    -0.288 OA 
HETATM    4  O   UNL     1      -9.727  14.233  66.837  1.00  0.00    -0.247 OA 
HETATM    5  O   UNL     1     -12.233  14.587  66.901  1.00  0.00    -0.375 OA 
ENDROOT
BRANCH   3   6
HETATM    6  C   UNL     1     -11.352  11.852  65.845  1.00  0.00    -0.308 C  
BRANCH   6   7
HETATM    7  C   UNL     1     -10.141  10.941  65.627  1.00  0.00    -0.261 C  
HETATM    8  O   UNL     1      -8.955  11.745  65.469  1.00  0.00    -0.403 OA 
HETATM    9  H   UNL     1      -8.204  11.179  65.334  1.00  0.00     0.000 HD 
BRANCH   7  10
HETATM   10  C   UNL     1      -9.890  10.011  66.834  1.00  0.00    -0.197 C  
HETATM   11  H   UNL     1     -10.044   8.077  67.194  1.00  0.00     0.000 HD 
HETATM   12  O   UNL     1     -10.199   8.649  66.451  1.00  0.00    -0.282 OA 
BRANCH  10  13
HETATM   13  C   UNL     1      -8.455   9.995  67.394  1.00  0.00    -0.121 C  
HETATM   14  O   UNL     1      -8.142   8.619  67.697  1.00  0.00    -0.106 OA 
HETATM   15  H   UNL     1      -7.258   8.610  68.043  1.00  0.00     0.000 HD 
BRANCH  13  16
HETATM   16  C   UNL     1      -8.218  10.863  68.643  1.00  0.00    -0.146 C  
HETATM   17  H   UNL     1      -6.974  12.291  69.148  1.00  0.00     0.000 HD 
HETATM   18  O   UNL     1      -7.120  11.755  68.377  1.00  0.00    -0.073 OA 
BRANCH  16  19
HETATM   19  C   UNL     1      -7.928  10.041  69.904  1.00  0.00    -0.171 C  
BRANCH  19  20
HETATM   20  O   UNL     1      -9.181   9.710  70.517  1.00  0.00    -0.249 OA 
HETATM   21  S   UNL     1      -9.180   8.446  71.540  1.00  0.00    -0.218 S  
HETATM   22  C   UNL     1     -10.899   8.506  71.985  1.00  0.00    -0.335 C  
HETATM   23  O   UNL     1      -8.382   8.792  72.698  1.00  0.00    -0.407 OA 
HETATM   24  O   UNL     1      -8.942   7.241  70.772  1.00  0.00    -0.150 OA 
ENDBRANCH  19  20
ENDBRANCH  16  19
ENDBRANCH  13  16
ENDBRANCH  10  13
ENDBRANCH   7  10
ENDBRANCH   6   7
ENDBRANCH   3   6
TORSDOF 7
ENDMDL
MODEL      259
REMARK 921   NORMALIZED FREE ENERGY PREDICTED BY IDOCK:   -3.39 KCAL/MOL
REMARK 922        TOTAL FREE ENERGY PREDICTED BY IDOCK:   -6.02 KCAL/MOL
REMARK 923 INTER-LIGAND FREE ENERGY PREDICTED BY IDOCK:   -5.23 KCAL/MOL
REMARK 924 INTRA-LIGAND FREE ENERGY PREDICTED BY IDOCK:   -0.79 KCAL/MOL
REMARK 927      BINDING AFFINITY PREDICTED BY RF-SCORE:    0.00 PKD
ROOT
HETATM    1  C   UNL     1     -12.298  14.308  66.488  1.00  0.00    -0.314 C  
HETATM    2  S   UNL     1     -11.707  13.978  64.848  1.00  0.00    -0.403 S  
HETATM    3  O   UNL     1     -11.828  12.343  64.844  1.00  0.00    -0.362 OA 
HETATM    4  O   UNL     1     -12.664  14.506  63.900  1.00  0.00    -0.782 OA 
HETATM    5  O   UNL     1     -10.300  14.321  64.790  1.00  0.00    -0.433 OA 
ENDROOT
BRANCH   3   6
HETATM    6  C   UNL     1     -11.432  11.732  63.611  1.00  0.00    -0.431 C  
BRANCH   6   7
HETATM    7  C   UNL     1     -10.054  11.072  63.711  1.00  0.00    -0.363 C  
HETATM    8  O   UNL     1      -9.064  11.935  63.118  1.00  0.00    -0.644 OA 
HETATM    9  H   UNL     1      -8.208  11.526  63.180  1.00  0.00     0.000 HD 
BRANCH   7  10
HETATM   10  C   UNL     1      -9.624  10.845  65.177  1.00  0.00    -0.243 C  
HETATM   11  H   UNL     1     -10.237   9.723  66.679  1.00  0.00     0.000 HD 
HETATM   12  O   UNL     1     -10.502   9.863  65.777  1.00  0.00    -0.156 OA 
BRANCH  10  13
HETATM   13  C   UNL     1      -8.185  10.339  65.394  1.00  0.00    -0.156 C  
HETATM   14  O   UNL     1      -7.834   9.570  64.225  1.00  0.00    -0.117 OA 
HETATM   15  H   UNL     1      -6.947   9.259  64.358  1.00  0.00     0.000 HD 
BRANCH  13  16
HETATM   16  C   UNL     1      -7.961   9.488  66.656  1.00  0.00    -0.108 C  
HETATM   17  H   UNL     1      -6.906   9.658  68.298  1.00  0.00     0.000 HD 
HETATM   18  O   UNL     1      -7.044  10.184  67.520  1.00  0.00    -0.085 OA 
BRANCH  16  19
HETATM   19  C   UNL     1      -7.426   8.084  66.350  1.00  0.00    -0.087 C  
BRANCH  19  20
HETATM   20  O   UNL     1      -8.218   7.137  67.079  1.00  0.00    -0.115 OA 
HETATM   21  S   UNL     1      -8.105   5.583  66.614  1.00  0.00    -0.105 S  
HETATM   22  C   UNL     1      -9.227   4.901  67.812  1.00  0.00    -0.121 C  
HETATM   23  O   UNL     1      -6.766   5.112  66.903  1.00  0.00    -0.055 OA 
HETATM   24  O   UNL     1      -8.699   5.458  65.299  1.00  0.00    -0.149 OA 
ENDBRANCH  19  20
ENDBRANCH  16  19
ENDBRANCH  13  16
ENDBRANCH  10  13
ENDBRANCH   7  10
ENDBRANCH   6   7
ENDBRANCH   3   6
TORSDOF 7
ENDMDL
MODEL      260
REMARK 921   NORMALIZED FREE ENERGY PREDICTED BY IDOCK:   -3.38 KCAL/MOL
REMARK 922        TOTAL FREE ENERGY PREDICTED BY IDOCK:   -6.00 KCAL/MOL
REMARK 923 INTER-LIGAND FREE ENERGY PREDICTED BY IDOCK:   -4.88 KCAL/MOL
REMARK 924 INTRA-LIGAND FREE ENERGY PREDICTED BY IDOCK:   -1.12 KCAL/MOL
REMARK 927      BINDING AFFINITY PREDICTED BY RF-SCORE:    0.00 PKD
ROOT
HETATM    1  C   UNL     1     -12.140  14.091  69.182  1.00  0.00    -0.337 C  
HETATM    2  S   UNL     1     -11.400  13.818  67.593  1.00  0.00    -0.322 S  
HETATM    3  O   UNL     1     -11.056  12.221  67.729  1.00  0.00    -0.228 OA 
HETATM    4  O   UNL     1     -12.420  13.977  66.578  1.00  0.00    -0.442 OA 
HETATM    5  O   UNL     1     -10.146  14.541  67.539  1.00  0.00    -0.227 OA 
ENDROOT
BRANCH   3   6
HETATM    6  C   UNL     1     -10.445  11.655  66.565  1.00  0.00    -0.239 C  
BRANCH   6   7
HETATM    7  C   UNL     1      -8.976  11.293  66.803  1.00  0.00    -0.171 C  
HETATM    8  O   UNL     1      -8.410  12.195  67.775  1.00  0.00    -0.140 OA 
HETATM    9  H   UNL     1      -7.498  11.970  67.923  1.00  0.00     0.000 HD 
BRANCH   7  10
HETATM   10  C   UNL     1      -8.814   9.867  67.373  1.00  0.00    -0.132 C  
HETATM   11  H   UNL     1      -7.304   8.693  67.857  1.00  0.00     0.000 HD 
HETATM   12  O   UNL     1      -7.404   9.571  67.506  1.00  0.00    -0.089 OA 
BRANCH  10  13
HETATM   13  C   UNL     1      -9.450   9.609  68.752  1.00  0.00    -0.148 C  
HETATM   14  O   UNL     1      -8.626  10.286  69.724  1.00  0.00    -0.322 OA 
HETATM   15  H   UNL     1      -9.018  10.127  70.574  1.00  0.00     0.000 HD 
BRANCH  13  16
HETATM   16  C   UNL     1      -9.602   8.130  69.149  1.00  0.00    -0.157 C  
HETATM   17  H   UNL     1     -10.819   6.666  68.681  1.00  0.00     0.000 HD 
HETATM   18  O   UNL     1     -10.726   7.579  68.436  1.00  0.00    -0.164 OA 
BRANCH  16  19
HETATM   19  C   UNL     1      -9.791   7.925  70.656  1.00  0.00    -0.185 C  
BRANCH  19  20
HETATM   20  O   UNL     1     -10.804   8.835  71.106  1.00  0.00    -0.235 OA 
HETATM   21  S   UNL     1     -12.021   8.196  71.975  1.00  0.00    -0.363 S  
HETATM   22  C   UNL     1     -12.919   9.704  72.258  1.00  0.00    -0.356 C  
HETATM   23  O   UNL     1     -11.487   7.725  73.237  1.00  0.00    -0.295 OA 
HETATM   24  O   UNL     1     -12.805   7.346  71.104  1.00  0.00    -0.326 OA 
ENDBRANCH  19  20
ENDBRANCH  16  19
ENDBRANCH  13  16
ENDBRANCH  10  13
ENDBRANCH   7  10
ENDBRANCH   6   7
ENDBRANCH   3   6
TORSDOF 7
ENDMDL
MODEL      261
REMARK 921   NORMALIZED FREE ENERGY PREDICTED BY IDOCK:   -3.37 KCAL/MOL
REMARK 922        TOTAL FREE ENERGY PREDICTED BY IDOCK:   -5.99 KCAL/MOL
REMARK 923 INTER-LIGAND FREE ENERGY PREDICTED BY IDOCK:   -5.14 KCAL/MOL
REMARK 924 INTRA-LIGAND FREE ENERGY PREDICTED BY IDOCK:   -0.85 KCAL/MOL
REMARK 927      BINDING AFFINITY PREDICTED BY RF-SCORE:    0.00 PKD
ROOT
HETATM    1  C   UNL     1      -6.874  18.656  69.294  1.00  0.00    -0.223 C  
HETATM    2  S   UNL     1      -7.804  19.061  67.838  1.00  0.00    -0.279 S  
HETATM    3  O   UNL     1      -8.013  17.555  67.226  1.00  0.00    -0.198 OA 
HETATM    4  O   UNL     1      -9.096  19.569  68.246  1.00  0.00    -0.326 OA 
HETATM    5  O   UNL     1      -6.943  19.795  66.932  1.00  0.00    -0.204 OA 
ENDROOT
BRANCH   3   6
HETATM    6  C   UNL     1      -8.771  17.519  66.013  1.00  0.00    -0.034 C  
BRANCH   6   7
HETATM    7  C   UNL     1     -10.228  17.113  66.256  1.00  0.00    -0.334 C  
HETATM    8  O   UNL     1     -10.772  16.529  65.056  1.00  0.00    -0.662 OA 
HETATM    9  H   UNL     1     -11.675  16.277  65.207  1.00  0.00     0.000 HD 
BRANCH   7  10
HETATM   10  C   UNL     1     -10.356  16.047  67.366  1.00  0.00    -0.294 C  
HETATM   11  H   UNL     1     -11.405  15.840  69.024  1.00  0.00     0.000 HD 
HETATM   12  O   UNL     1     -11.326  16.496  68.341  1.00  0.00    -0.348 OA 
BRANCH  10  13
HETATM   13  C   UNL     1     -10.804  14.643  66.915  1.00  0.00    -0.305 C  
HETATM   14  O   UNL     1     -12.231  14.579  67.114  1.00  0.00    -0.552 OA 
HETATM   15  H   UNL     1     -12.507  13.714  66.836  1.00  0.00     0.000 HD 
BRANCH  13  16
HETATM   16  C   UNL     1     -10.130  13.464  67.638  1.00  0.00    -0.229 C  
HETATM   17  H   UNL     1     -10.535  12.358  69.204  1.00  0.00     0.000 HD 
HETATM   18  O   UNL     1     -10.951  13.086  68.758  1.00  0.00    -0.248 OA 
BRANCH  16  19
HETATM   19  C   UNL     1      -8.709  13.781  68.116  1.00  0.00    -0.183 C  
BRANCH  19  20
HETATM   20  O   UNL     1      -7.980  12.549  68.195  1.00  0.00    -0.139 OA 
HETATM   21  S   UNL     1      -6.395  12.662  68.541  1.00  0.00    -0.078 S  
HETATM   22  C   UNL     1      -6.030  10.922  68.526  1.00  0.00    -0.043 C  
HETATM   23  O   UNL     1      -6.254  13.160  69.894  1.00  0.00    -0.133 OA 
HETATM   24  O   UNL     1      -5.728  13.285  67.417  1.00  0.00    -0.333 OA 
ENDBRANCH  19  20
ENDBRANCH  16  19
ENDBRANCH  13  16
ENDBRANCH  10  13
ENDBRANCH   7  10
ENDBRANCH   6   7
ENDBRANCH   3   6
TORSDOF 7
ENDMDL
MODEL      262
REMARK 921   NORMALIZED FREE ENERGY PREDICTED BY IDOCK:   -3.37 KCAL/MOL
REMARK 922        TOTAL FREE ENERGY PREDICTED BY IDOCK:   -5.99 KCAL/MOL
REMARK 923 INTER-LIGAND FREE ENERGY PREDICTED BY IDOCK:   -4.72 KCAL/MOL
REMARK 924 INTRA-LIGAND FREE ENERGY PREDICTED BY IDOCK:   -1.27 KCAL/MOL
REMARK 927      BINDING AFFINITY PREDICTED BY RF-SCORE:    0.00 PKD
ROOT
HETATM    1  C   UNL     1     -11.239  12.024  65.826  1.00  0.00    -0.334 C  
HETATM    2  S   UNL     1     -10.912  11.736  67.546  1.00  0.00    -0.274 S  
HETATM    3  O   UNL     1     -10.695  10.111  67.509  1.00  0.00    -0.257 OA 
HETATM    4  O   UNL     1      -9.648  12.355  67.883  1.00  0.00    -0.192 OA 
HETATM    5  O   UNL     1     -12.122  12.007  68.295  1.00  0.00    -0.447 OA 
ENDROOT
BRANCH   3   6
HETATM    6  C   UNL     1     -10.382   9.536  68.782  1.00  0.00    -0.208 C  
BRANCH   6   7
HETATM    7  C   UNL     1     -10.166   8.023  68.693  1.00  0.00    -0.206 C  
HETATM    8  O   UNL     1      -8.760   7.730  68.815  1.00  0.00    -0.128 OA 
HETATM    9  H   UNL     1      -8.626   6.790  68.760  1.00  0.00     0.000 HD 
BRANCH   7  10
HETATM   10  C   UNL     1     -10.878   7.266  69.834  1.00  0.00    -0.247 C  
HETATM   11  H   UNL     1     -11.967   5.628  69.991  1.00  0.00     0.000 HD 
HETATM   12  O   UNL     1     -11.528   6.093  69.288  1.00  0.00    -0.404 OA 
BRANCH  10  13
HETATM   13  C   UNL     1      -9.984   6.776  70.989  1.00  0.00    -0.182 C  
HETATM   14  O   UNL     1     -10.369   5.412  71.262  1.00  0.00    -0.213 OA 
HETATM   15  H   UNL     1      -9.818   5.110  71.974  1.00  0.00     0.000 HD 
BRANCH  13  16
HETATM   16  C   UNL     1     -10.059   7.600  72.286  1.00  0.00    -0.208 C  
HETATM   17  H   UNL     1     -11.090   9.144  72.913  1.00  0.00     0.000 HD 
HETATM   18  O   UNL     1     -11.044   8.636  72.113  1.00  0.00    -0.340 OA 
BRANCH  16  19
HETATM   19  C   UNL     1      -8.715   8.220  72.686  1.00  0.00    -0.224 C  
BRANCH  19  20
HETATM   20  O   UNL     1      -8.323   9.135  71.653  1.00  0.00    -0.339 OA 
HETATM   21  S   UNL     1      -6.742   9.165  71.271  1.00  0.00    -0.037 S  
HETATM   22  C   UNL     1      -6.836  10.398  69.995  1.00  0.00    -0.151 C  
HETATM   23  O   UNL     1      -6.389   7.894  70.671  1.00  0.00    -0.037 OA 
HETATM   24  O   UNL     1      -6.013   9.716  72.395  1.00  0.00    -0.292 OA 
ENDBRANCH  19  20
ENDBRANCH  16  19
ENDBRANCH  13  16
ENDBRANCH  10  13
ENDBRANCH   7  10
ENDBRANCH   6   7
ENDBRANCH   3   6
TORSDOF 7
ENDMDL
MODEL      263
REMARK 921   NORMALIZED FREE ENERGY PREDICTED BY IDOCK:   -3.36 KCAL/MOL
REMARK 922        TOTAL FREE ENERGY PREDICTED BY IDOCK:   -5.99 KCAL/MOL
REMARK 923 INTER-LIGAND FREE ENERGY PREDICTED BY IDOCK:   -5.09 KCAL/MOL
REMARK 924 INTRA-LIGAND FREE ENERGY PREDICTED BY IDOCK:   -0.89 KCAL/MOL
REMARK 927      BINDING AFFINITY PREDICTED BY RF-SCORE:    0.00 PKD
ROOT
HETATM    1  C   UNL     1      -8.127   9.758  64.953  1.00  0.00    -0.140 C  
HETATM    2  S   UNL     1      -9.109  10.688  66.102  1.00  0.00    -0.176 S  
HETATM    3  O   UNL     1      -9.728  11.809  65.078  1.00  0.00    -0.240 OA 
HETATM    4  O   UNL     1     -10.193   9.848  66.564  1.00  0.00    -0.231 OA 
HETATM    5  O   UNL     1      -8.220  11.368  67.022  1.00  0.00    -0.146 OA 
ENDROOT
BRANCH   3   6
HETATM    6  C   UNL     1     -10.616  12.742  65.703  1.00  0.00    -0.275 C  
BRANCH   6   7
HETATM    7  C   UNL     1     -10.825  13.997  64.851  1.00  0.00    -0.410 C  
HETATM    8  O   UNL     1     -12.193  14.438  64.971  1.00  0.00    -0.405 OA 
HETATM    9  H   UNL     1     -12.322  15.217  64.442  1.00  0.00     0.000 HD 
BRANCH   7  10
HETATM   10  C   UNL     1      -9.938  15.171  65.319  1.00  0.00    -0.290 C  
HETATM   11  H   UNL     1     -10.087  17.138  65.358  1.00  0.00     0.000 HD 
HETATM   12  O   UNL     1     -10.633  16.415  65.070  1.00  0.00    -0.651 OA 
BRANCH  10  13
HETATM   13  C   UNL     1      -9.545  15.176  66.808  1.00  0.00    -0.245 C  
HETATM   14  O   UNL     1     -10.623  15.820  67.520  1.00  0.00    -0.296 OA 
HETATM   15  H   UNL     1     -10.381  15.823  68.438  1.00  0.00     0.000 HD 
BRANCH  13  16
HETATM   16  C   UNL     1      -8.217  15.877  67.145  1.00  0.00    -0.203 C  
HETATM   17  H   UNL     1      -6.447  15.312  67.768  1.00  0.00     0.000 HD 
HETATM   18  O   UNL     1      -7.267  14.879  67.561  1.00  0.00    -0.178 OA 
BRANCH  16  19
HETATM   19  C   UNL     1      -8.358  16.948  68.232  1.00  0.00    -0.224 C  
BRANCH  19  20
HETATM   20  O   UNL     1      -8.761  18.172  67.602  1.00  0.00    -0.245 OA 
HETATM   21  S   UNL     1      -7.893  19.498  67.966  1.00  0.00    -0.312 S  
HETATM   22  C   UNL     1      -8.785  20.646  66.944  1.00  0.00    -0.104 C  
HETATM   23  O   UNL     1      -6.557  19.333  67.431  1.00  0.00    -0.191 OA 
HETATM   24  O   UNL     1      -8.132  19.831  69.355  1.00  0.00    -0.134 OA 
ENDBRANCH  19  20
ENDBRANCH  16  19
ENDBRANCH  13  16
ENDBRANCH  10  13
ENDBRANCH   7  10
ENDBRANCH   6   7
ENDBRANCH   3   6
TORSDOF 7
ENDMDL
MODEL      264
REMARK 921   NORMALIZED FREE ENERGY PREDICTED BY IDOCK:   -3.36 KCAL/MOL
REMARK 922        TOTAL FREE ENERGY PREDICTED BY IDOCK:   -5.98 KCAL/MOL
REMARK 923 INTER-LIGAND FREE ENERGY PREDICTED BY IDOCK:   -5.30 KCAL/MOL
REMARK 924 INTRA-LIGAND FREE ENERGY PREDICTED BY IDOCK:   -0.68 KCAL/MOL
REMARK 927      BINDING AFFINITY PREDICTED BY RF-SCORE:    0.00 PKD
ROOT
HETATM    1  C   UNL     1      -6.654   8.559  66.471  1.00  0.00    -0.059 C  
HETATM    2  S   UNL     1      -8.234   8.856  65.719  1.00  0.00    -0.121 S  
HETATM    3  O   UNL     1      -9.124   9.134  67.067  1.00  0.00    -0.121 OA 
HETATM    4  O   UNL     1      -8.158  10.088  64.963  1.00  0.00    -0.133 OA 
HETATM    5  O   UNL     1      -8.700   7.619  65.125  1.00  0.00    -0.043 OA 
ENDROOT
BRANCH   3   6
HETATM    6  C   UNL     1     -10.498   9.438  66.806  1.00  0.00    -0.195 C  
BRANCH   6   7
HETATM    7  C   UNL     1     -11.041  10.512  67.754  1.00  0.00    -0.317 C  
HETATM    8  O   UNL     1     -10.304  10.478  68.992  1.00  0.00    -0.189 OA 
HETATM    9  H   UNL     1     -10.641  11.145  69.580  1.00  0.00     0.000 HD 
BRANCH   7  10
HETATM   10  C   UNL     1     -10.872  11.934  67.176  1.00  0.00    -0.255 C  
HETATM   11  H   UNL     1     -10.624  12.720  65.383  1.00  0.00     0.000 HD 
HETATM   12  O   UNL     1     -10.728  11.844  65.739  1.00  0.00    -0.266 OA 
BRANCH  10  13
HETATM   13  C   UNL     1     -12.027  12.919  67.441  1.00  0.00    -0.300 C  
HETATM   14  O   UNL     1     -12.729  13.083  66.191  1.00  0.00    -0.334 OA 
HETATM   15  H   UNL     1     -13.441  13.690  66.354  1.00  0.00     0.000 HD 
BRANCH  13  16
HETATM   16  C   UNL     1     -11.615  14.298  67.984  1.00  0.00    -0.332 C  
HETATM   17  H   UNL     1     -10.477  15.770  67.367  1.00  0.00     0.000 HD 
HETATM   18  O   UNL     1     -10.731  14.918  67.032  1.00  0.00    -0.294 OA 
BRANCH  16  19
HETATM   19  C   UNL     1     -10.937  14.230  69.357  1.00  0.00    -0.209 C  
BRANCH  19  20
HETATM   20  O   UNL     1     -11.868  13.656  70.285  1.00  0.00    -0.306 OA 
HETATM   21  S   UNL     1     -12.513  14.665  71.385  1.00  0.00    -0.367 S  
HETATM   22  C   UNL     1     -13.545  13.477  72.211  1.00  0.00    -0.592 C  
HETATM   23  O   UNL     1     -13.356  15.619  70.695  1.00  0.00    -0.494 OA 
HETATM   24  O   UNL     1     -11.463  15.079  72.293  1.00  0.00    -0.374 OA 
ENDBRANCH  19  20
ENDBRANCH  16  19
ENDBRANCH  13  16
ENDBRANCH  10  13
ENDBRANCH   7  10
ENDBRANCH   6   7
ENDBRANCH   3   6
TORSDOF 7
ENDMDL
MODEL      265
REMARK 921   NORMALIZED FREE ENERGY PREDICTED BY IDOCK:   -3.36 KCAL/MOL
REMARK 922        TOTAL FREE ENERGY PREDICTED BY IDOCK:   -5.98 KCAL/MOL
REMARK 923 INTER-LIGAND FREE ENERGY PREDICTED BY IDOCK:   -5.28 KCAL/MOL
REMARK 924 INTRA-LIGAND FREE ENERGY PREDICTED BY IDOCK:   -0.70 KCAL/MOL
REMARK 927      BINDING AFFINITY PREDICTED BY RF-SCORE:    0.00 PKD
ROOT
HETATM    1  C   UNL     1     -12.276  14.772  64.422  1.00  0.00    -0.428 C  
HETATM    2  S   UNL     1     -12.060  13.061  64.842  1.00  0.00    -0.441 S  
HETATM    3  O   UNL     1     -11.773  13.214  66.449  1.00  0.00    -0.343 OA 
HETATM    4  O   UNL     1     -13.327  12.383  64.670  1.00  0.00    -0.778 OA 
HETATM    5  O   UNL     1     -10.844  12.584  64.215  1.00  0.00    -0.315 OA 
ENDROOT
BRANCH   3   6
HETATM    6  C   UNL     1     -11.568  11.970  67.125  1.00  0.00    -0.316 C  
BRANCH   6   7
HETATM    7  C   UNL     1     -10.231  11.934  67.873  1.00  0.00    -0.193 C  
HETATM    8  O   UNL     1     -10.423  12.400  69.223  1.00  0.00    -0.428 OA 
HETATM    9  H   UNL     1      -9.594  12.377  69.687  1.00  0.00     0.000 HD 
BRANCH   7  10
HETATM   10  C   UNL     1      -9.661  10.502  67.973  1.00  0.00    -0.148 C  
HETATM   11  H   UNL     1      -9.129   9.284  69.430  1.00  0.00     0.000 HD 
HETATM   12  O   UNL     1      -9.480  10.164  69.369  1.00  0.00    -0.204 OA 
BRANCH  10  13
HETATM   13  C   UNL     1     -10.520   9.382  67.357  1.00  0.00    -0.278 C  
HETATM   14  O   UNL     1     -11.029   8.597  68.455  1.00  0.00    -0.443 OA 
HETATM   15  H   UNL     1     -11.558   7.906  68.075  1.00  0.00     0.000 HD 
BRANCH  13  16
HETATM   16  C   UNL     1      -9.797   8.461  66.359  1.00  0.00    -0.240 C  
HETATM   17  H   UNL     1      -8.615   6.902  66.485  1.00  0.00     0.000 HD 
HETATM   18  O   UNL     1      -9.061   7.471  67.101  1.00  0.00    -0.122 OA 
BRANCH  16  19
HETATM   19  C   UNL     1      -8.852   9.214  65.416  1.00  0.00    -0.196 C  
BRANCH  19  20
HETATM   20  O   UNL     1      -8.039   8.249  64.736  1.00  0.00    -0.139 OA 
HETATM   21  S   UNL     1      -6.488   8.662  64.472  1.00  0.00    -0.066 S  
HETATM   22  C   UNL     1      -5.986   7.165  63.655  1.00  0.00    -0.044 C  
HETATM   23  O   UNL     1      -5.812   8.749  65.750  1.00  0.00    -0.049 OA 
HETATM   24  O   UNL     1      -6.463   9.745  63.511  1.00  0.00    -0.105 OA 
ENDBRANCH  19  20
ENDBRANCH  16  19
ENDBRANCH  13  16
ENDBRANCH  10  13
ENDBRANCH   7  10
ENDBRANCH   6   7
ENDBRANCH   3   6
TORSDOF 7
ENDMDL
MODEL      266
REMARK 921   NORMALIZED FREE ENERGY PREDICTED BY IDOCK:   -3.36 KCAL/MOL
REMARK 922        TOTAL FREE ENERGY PREDICTED BY IDOCK:   -5.97 KCAL/MOL
REMARK 923 INTER-LIGAND FREE ENERGY PREDICTED BY IDOCK:   -5.37 KCAL/MOL
REMARK 924 INTRA-LIGAND FREE ENERGY PREDICTED BY IDOCK:   -0.60 KCAL/MOL
REMARK 927      BINDING AFFINITY PREDICTED BY RF-SCORE:    0.00 PKD
ROOT
HETATM    1  C   UNL     1     -12.797  15.745  73.725  1.00  0.00    -0.580 C  
HETATM    2  S   UNL     1     -13.240  14.801  72.288  1.00  0.00    -0.413 S  
HETATM    3  O   UNL     1     -11.948  15.139  71.338  1.00  0.00    -0.298 OA 
HETATM    4  O   UNL     1     -13.196  13.396  72.631  1.00  0.00    -0.481 OA 
HETATM    5  O   UNL     1     -14.409  15.407  71.683  1.00  0.00    -0.510 OA 
ENDROOT
BRANCH   3   6
HETATM    6  C   UNL     1     -11.980  14.493  70.061  1.00  0.00    -0.330 C  
BRANCH   6   7
HETATM    7  C   UNL     1     -11.385  15.372  68.956  1.00  0.00    -0.316 C  
HETATM    8  O   UNL     1     -10.754  16.526  69.547  1.00  0.00    -0.300 OA 
HETATM    9  H   UNL     1     -10.384  17.070  68.861  1.00  0.00     0.000 HD 
BRANCH   7  10
HETATM   10  C   UNL     1     -10.294  14.633  68.151  1.00  0.00    -0.230 C  
HETATM   11  H   UNL     1     -10.254  13.407  66.606  1.00  0.00     0.000 HD 
HETATM   12  O   UNL     1     -10.925  13.862  67.101  1.00  0.00    -0.284 OA 
BRANCH  10  13
HETATM   13  C   UNL     1      -9.233  15.518  67.469  1.00  0.00    -0.198 C  
HETATM   14  O   UNL     1      -9.148  15.081  66.097  1.00  0.00    -0.402 OA 
HETATM   15  H   UNL     1      -8.494  15.626  65.676  1.00  0.00     0.000 HD 
BRANCH  13  16
HETATM   16  C   UNL     1      -7.832  15.488  68.106  1.00  0.00    -0.127 C  
HETATM   17  H   UNL     1      -5.995  15.741  67.473  1.00  0.00     0.000 HD 
HETATM   18  O   UNL     1      -6.859  15.758  67.080  1.00  0.00    -0.230 OA 
BRANCH  16  19
HETATM   19  C   UNL     1      -7.509  14.157  68.793  1.00  0.00    -0.129 C  
BRANCH  19  20
HETATM   20  O   UNL     1      -6.755  13.354  67.876  1.00  0.00    -0.114 OA 
HETATM   21  S   UNL     1      -7.452  11.973  67.374  1.00  0.00    -0.161 S  
HETATM   22  C   UNL     1      -6.144  11.428  66.303  1.00  0.00    -0.028 C  
HETATM   23  O   UNL     1      -8.610  12.308  66.569  1.00  0.00    -0.149 OA 
HETATM   24  O   UNL     1      -7.534  11.069  68.503  1.00  0.00    -0.092 OA 
ENDBRANCH  19  20
ENDBRANCH  16  19
ENDBRANCH  13  16
ENDBRANCH  10  13
ENDBRANCH   7  10
ENDBRANCH   6   7
ENDBRANCH   3   6
TORSDOF 7
ENDMDL
MODEL      267
REMARK 921   NORMALIZED FREE ENERGY PREDICTED BY IDOCK:   -3.34 KCAL/MOL
REMARK 922        TOTAL FREE ENERGY PREDICTED BY IDOCK:   -5.95 KCAL/MOL
REMARK 923 INTER-LIGAND FREE ENERGY PREDICTED BY IDOCK:   -4.34 KCAL/MOL
REMARK 924 INTRA-LIGAND FREE ENERGY PREDICTED BY IDOCK:   -1.61 KCAL/MOL
REMARK 927      BINDING AFFINITY PREDICTED BY RF-SCORE:    0.00 PKD
ROOT
HETATM    1  C   UNL     1     -11.287  11.960  65.134  1.00  0.00    -0.269 C  
HETATM    2  S   UNL     1     -11.009  11.984  66.886  1.00  0.00    -0.298 S  
HETATM    3  O   UNL     1      -9.759  10.927  66.974  1.00  0.00    -0.172 OA 
HETATM    4  O   UNL     1     -10.521  13.295  67.256  1.00  0.00    -0.245 OA 
HETATM    5  O   UNL     1     -12.152  11.378  67.541  1.00  0.00    -0.592 OA 
ENDROOT
BRANCH   3   6
HETATM    6  C   UNL     1      -9.259  10.724  68.299  1.00  0.00    -0.157 C  
BRANCH   6   7
HETATM    7  C   UNL     1      -9.397   9.267  68.751  1.00  0.00    -0.139 C  
HETATM    8  O   UNL     1     -10.778   8.864  68.660  1.00  0.00    -0.357 OA 
HETATM    9  H   UNL     1     -10.863   7.959  68.940  1.00  0.00     0.000 HD 
BRANCH   7  10
HETATM   10  C   UNL     1      -8.593   8.302  67.852  1.00  0.00    -0.132 C  
HETATM   11  H   UNL     1      -6.743   8.202  67.173  1.00  0.00     0.000 HD 
HETATM   12  O   UNL     1      -7.238   8.796  67.726  1.00  0.00    -0.082 OA 
BRANCH  10  13
HETATM   13  C   UNL     1      -8.486   6.845  68.341  1.00  0.00    -0.123 C  
HETATM   14  O   UNL     1      -9.685   6.172  67.903  1.00  0.00    -0.114 OA 
HETATM   15  H   UNL     1      -9.620   5.274  68.204  1.00  0.00     0.000 HD 
BRANCH  13  16
HETATM   16  C   UNL     1      -8.320   6.662  69.860  1.00  0.00    -0.132 C  
HETATM   17  H   UNL     1      -6.893   6.046  71.054  1.00  0.00     0.000 HD 
HETATM   18  O   UNL     1      -6.996   6.158  70.116  1.00  0.00    -0.058 OA 
BRANCH  16  19
HETATM   19  C   UNL     1      -9.363   5.722  70.473  1.00  0.00    -0.162 C  
BRANCH  19  20
HETATM   20  O   UNL     1     -10.595   6.445  70.597  1.00  0.00    -0.217 OA 
HETATM   21  S   UNL     1     -11.056   6.842  72.106  1.00  0.00    -0.253 S  
HETATM   22  C   UNL     1     -12.557   7.690  71.674  1.00  0.00    -0.339 C  
HETATM   23  O   UNL     1     -10.111   7.803  72.637  1.00  0.00    -0.214 OA 
HETATM   24  O   UNL     1     -11.398   5.625  72.812  1.00  0.00    -0.289 OA 
ENDBRANCH  19  20
ENDBRANCH  16  19
ENDBRANCH  13  16
ENDBRANCH  10  13
ENDBRANCH   7  10
ENDBRANCH   6   7
ENDBRANCH   3   6
TORSDOF 7
ENDMDL
MODEL      268
REMARK 921   NORMALIZED FREE ENERGY PREDICTED BY IDOCK:   -3.33 KCAL/MOL
REMARK 922        TOTAL FREE ENERGY PREDICTED BY IDOCK:   -5.94 KCAL/MOL
REMARK 923 INTER-LIGAND FREE ENERGY PREDICTED BY IDOCK:   -4.94 KCAL/MOL
REMARK 924 INTRA-LIGAND FREE ENERGY PREDICTED BY IDOCK:   -1.00 KCAL/MOL
REMARK 927      BINDING AFFINITY PREDICTED BY RF-SCORE:    0.00 PKD
ROOT
HETATM    1  C   UNL     1     -13.692   9.710  70.767  1.00  0.00     0.175 C  
HETATM    2  S   UNL     1     -12.327  10.841  70.687  1.00  0.00    -0.400 S  
HETATM    3  O   UNL     1     -12.173  10.961  69.059  1.00  0.00    -0.462 OA 
HETATM    4  O   UNL     1     -12.763  12.124  71.197  1.00  0.00    -0.358 OA 
HETATM    5  O   UNL     1     -11.147  10.174  71.199  1.00  0.00    -0.291 OA 
ENDROOT
BRANCH   3   6
HETATM    6  C   UNL     1     -11.133  11.848  68.636  1.00  0.00    -0.246 C  
BRANCH   6   7
HETATM    7  C   UNL     1     -11.688  13.125  68.000  1.00  0.00    -0.355 C  
HETATM    8  O   UNL     1     -12.232  13.977  69.027  1.00  0.00    -0.440 OA 
HETATM    9  H   UNL     1     -12.577  14.770  68.632  1.00  0.00     0.000 HD 
BRANCH   7  10
HETATM   10  C   UNL     1     -10.591  13.941  67.281  1.00  0.00    -0.276 C  
HETATM   11  H   UNL     1      -9.827  14.002  65.464  1.00  0.00     0.000 HD 
HETATM   12  O   UNL     1     -10.502  13.500  65.906  1.00  0.00    -0.280 OA 
BRANCH  10  13
HETATM   13  C   UNL     1     -10.793  15.468  67.242  1.00  0.00    -0.313 C  
HETATM   14  O   UNL     1     -10.358  15.911  65.939  1.00  0.00    -0.323 OA 
HETATM   15  H   UNL     1     -10.482  16.852  65.915  1.00  0.00     0.000 HD 
BRANCH  13  16
HETATM   16  C   UNL     1     -10.053  16.266  68.329  1.00  0.00    -0.243 C  
HETATM   17  H   UNL     1     -10.544  17.133  70.017  1.00  0.00     0.000 HD 
HETATM   18  O   UNL     1     -11.002  16.641  69.345  1.00  0.00    -0.301 OA 
BRANCH  16  19
HETATM   19  C   UNL     1      -9.348  17.515  67.788  1.00  0.00    -0.257 C  
BRANCH  19  20
HETATM   20  O   UNL     1      -7.982  17.174  67.521  1.00  0.00    -0.173 OA 
HETATM   21  S   UNL     1      -6.868  17.780  68.539  1.00  0.00    -0.243 S  
HETATM   22  C   UNL     1      -5.436  17.058  67.773  1.00  0.00    -0.119 C  
HETATM   23  O   UNL     1      -7.059  17.177  69.842  1.00  0.00     0.214 OA 
HETATM   24  O   UNL     1      -6.818  19.216  68.354  1.00  0.00    -0.248 OA 
ENDBRANCH  19  20
ENDBRANCH  16  19
ENDBRANCH  13  16
ENDBRANCH  10  13
ENDBRANCH   7  10
ENDBRANCH   6   7
ENDBRANCH   3   6
TORSDOF 7
ENDMDL
MODEL      269
REMARK 921   NORMALIZED FREE ENERGY PREDICTED BY IDOCK:   -3.31 KCAL/MOL
REMARK 922        TOTAL FREE ENERGY PREDICTED BY IDOCK:   -5.91 KCAL/MOL
REMARK 923 INTER-LIGAND FREE ENERGY PREDICTED BY IDOCK:   -4.86 KCAL/MOL
REMARK 924 INTRA-LIGAND FREE ENERGY PREDICTED BY IDOCK:   -1.05 KCAL/MOL
REMARK 927      BINDING AFFINITY PREDICTED BY RF-SCORE:    0.00 PKD
ROOT
HETATM    1  C   UNL     1      -8.168   7.319  69.965  1.00  0.00    -0.132 C  
HETATM    2  S   UNL     1      -7.922   9.036  69.589  1.00  0.00    -0.100 S  
HETATM    3  O   UNL     1      -9.409   9.398  69.003  1.00  0.00    -0.147 OA 
HETATM    4  O   UNL     1      -7.736   9.755  70.831  1.00  0.00    -0.312 OA 
HETATM    5  O   UNL     1      -6.975   9.136  68.496  1.00  0.00    -0.066 OA 
ENDROOT
BRANCH   3   6
HETATM    6  C   UNL     1      -9.564  10.766  68.611  1.00  0.00    -0.187 C  
BRANCH   6   7
HETATM    7  C   UNL     1     -10.839  10.990  67.792  1.00  0.00    -0.249 C  
HETATM    8  O   UNL     1     -11.403   9.716  67.423  1.00  0.00    -0.328 OA 
HETATM    9  H   UNL     1     -12.194   9.855  66.915  1.00  0.00     0.000 HD 
BRANCH   7  10
HETATM   10  C   UNL     1     -11.922  11.739  68.598  1.00  0.00    -0.239 C  
HETATM   11  H   UNL     1     -12.368  11.972  70.505  1.00  0.00     0.000 HD 
HETATM   12  O   UNL     1     -11.702  11.510  70.010  1.00  0.00    -0.311 OA 
BRANCH  10  13
HETATM   13  C   UNL     1     -11.980  13.267  68.404  1.00  0.00    -0.301 C  
HETATM   14  O   UNL     1     -11.268  13.558  67.183  1.00  0.00    -0.289 OA 
HETATM   15  H   UNL     1     -11.304  14.499  67.064  1.00  0.00     0.000 HD 
BRANCH  13  16
HETATM   16  C   UNL     1     -11.396  14.107  69.553  1.00  0.00    -0.259 C  
HETATM   17  H   UNL     1     -12.053  15.529  70.731  1.00  0.00     0.000 HD 
HETATM   18  O   UNL     1     -12.414  15.011  70.021  1.00  0.00    -0.320 OA 
BRANCH  16  19
HETATM   19  C   UNL     1     -10.145  14.895  69.148  1.00  0.00    -0.226 C  
BRANCH  19  20
HETATM   20  O   UNL     1     -10.559  16.206  68.739  1.00  0.00    -0.248 OA 
HETATM   21  S   UNL     1      -9.709  16.893  67.534  1.00  0.00    -0.254 S  
HETATM   22  C   UNL     1     -10.626  18.413  67.442  1.00  0.00    -0.413 C  
HETATM   23  O   UNL     1      -9.936  16.134  66.321  1.00  0.00    -0.278 OA 
HETATM   24  O   UNL     1      -8.378  17.183  68.024  1.00  0.00    -0.206 OA 
ENDBRANCH  19  20
ENDBRANCH  16  19
ENDBRANCH  13  16
ENDBRANCH  10  13
ENDBRANCH   7  10
ENDBRANCH   6   7
ENDBRANCH   3   6
TORSDOF 7
ENDMDL
MODEL      270
REMARK 921   NORMALIZED FREE ENERGY PREDICTED BY IDOCK:   -3.31 KCAL/MOL
REMARK 922        TOTAL FREE ENERGY PREDICTED BY IDOCK:   -5.91 KCAL/MOL
REMARK 923 INTER-LIGAND FREE ENERGY PREDICTED BY IDOCK:   -4.87 KCAL/MOL
REMARK 924 INTRA-LIGAND FREE ENERGY PREDICTED BY IDOCK:   -1.04 KCAL/MOL
REMARK 927      BINDING AFFINITY PREDICTED BY RF-SCORE:    0.00 PKD
ROOT
HETATM    1  C   UNL     1     -10.826  12.629  64.514  1.00  0.00    -0.336 C  
HETATM    2  S   UNL     1     -10.875  12.191  66.233  1.00  0.00    -0.295 S  
HETATM    3  O   UNL     1     -10.428  10.618  66.122  1.00  0.00    -0.243 OA 
HETATM    4  O   UNL     1      -9.826  12.913  66.921  1.00  0.00    -0.224 OA 
HETATM    5  O   UNL     1     -12.253  12.232  66.679  1.00  0.00    -0.574 OA 
ENDROOT
BRANCH   3   6
HETATM    6  C   UNL     1     -10.345   9.945  67.383  1.00  0.00    -0.246 C  
BRANCH   6   7
HETATM    7  C   UNL     1      -9.749   8.541  67.248  1.00  0.00    -0.183 C  
HETATM    8  O   UNL     1      -8.483   8.488  67.935  1.00  0.00    -0.128 OA 
HETATM    9  H   UNL     1      -8.113   7.616  67.851  1.00  0.00     0.000 HD 
BRANCH   7  10
HETATM   10  C   UNL     1     -10.649   7.464  67.892  1.00  0.00    -0.190 C  
HETATM   11  H   UNL     1     -11.749   5.959  67.245  1.00  0.00     0.000 HD 
HETATM   12  O   UNL     1     -11.195   6.622  66.849  1.00  0.00    -0.391 OA 
BRANCH  10  13
HETATM   13  C   UNL     1      -9.968   6.524  68.904  1.00  0.00    -0.151 C  
HETATM   14  O   UNL     1      -9.610   5.326  68.184  1.00  0.00    -0.118 OA 
HETATM   15  H   UNL     1      -9.191   4.746  68.808  1.00  0.00     0.000 HD 
BRANCH  13  16
HETATM   16  C   UNL     1     -10.810   6.149  70.137  1.00  0.00    -0.329 C  
HETATM   17  H   UNL     1     -12.619   6.549  70.778  1.00  0.00     0.000 HD 
HETATM   18  O   UNL     1     -12.099   6.780  70.018  1.00  0.00    -0.242 OA 
BRANCH  16  19
HETATM   19  C   UNL     1     -10.153   6.551  71.462  1.00  0.00    -0.190 C  
BRANCH  19  20
HETATM   20  O   UNL     1      -8.868   7.114  71.169  1.00  0.00    -0.142 OA 
HETATM   21  S   UNL     1      -8.646   8.673  71.575  1.00  0.00    -0.191 S  
HETATM   22  C   UNL     1      -6.963   8.819  71.023  1.00  0.00    -0.077 C  
HETATM   23  O   UNL     1      -8.678   8.781  73.019  1.00  0.00    -0.368 OA 
HETATM   24  O   UNL     1      -9.486   9.489  70.723  1.00  0.00    -0.251 OA 
ENDBRANCH  19  20
ENDBRANCH  16  19
ENDBRANCH  13  16
ENDBRANCH  10  13
ENDBRANCH   7  10
ENDBRANCH   6   7
ENDBRANCH   3   6
TORSDOF 7
ENDMDL
MODEL      271
REMARK 921   NORMALIZED FREE ENERGY PREDICTED BY IDOCK:   -3.29 KCAL/MOL
REMARK 922        TOTAL FREE ENERGY PREDICTED BY IDOCK:   -5.88 KCAL/MOL
REMARK 923 INTER-LIGAND FREE ENERGY PREDICTED BY IDOCK:   -4.43 KCAL/MOL
REMARK 924 INTRA-LIGAND FREE ENERGY PREDICTED BY IDOCK:   -1.45 KCAL/MOL
REMARK 927      BINDING AFFINITY PREDICTED BY RF-SCORE:    0.00 PKD
ROOT
HETATM    1  C   UNL     1     -12.398  13.047  63.600  1.00  0.00    -0.417 C  
HETATM    2  S   UNL     1     -10.864  12.473  64.284  1.00  0.00    -0.397 S  
HETATM    3  O   UNL     1     -11.427  11.244  65.211  1.00  0.00    -0.014 OA 
HETATM    4  O   UNL     1     -10.069  11.907  63.215  1.00  0.00    -0.428 OA 
HETATM    5  O   UNL     1     -10.343  13.496  65.167  1.00  0.00    -0.330 OA 
ENDROOT
BRANCH   3   6
HETATM    6  C   UNL     1     -10.406  10.528  65.913  1.00  0.00    -0.206 C  
BRANCH   6   7
HETATM    7  C   UNL     1     -10.409  10.841  67.412  1.00  0.00    -0.211 C  
HETATM    8  O   UNL     1     -10.632   9.627  68.156  1.00  0.00    -0.211 OA 
HETATM    9  H   UNL     1     -10.634   9.821  69.087  1.00  0.00     0.000 HD 
BRANCH   7  10
HETATM   10  C   UNL     1      -9.056  11.411  67.889  1.00  0.00    -0.164 C  
HETATM   11  H   UNL     1      -7.370  11.974  67.032  1.00  0.00     0.000 HD 
HETATM   12  O   UNL     1      -8.202  11.622  66.739  1.00  0.00    -0.164 OA 
BRANCH  10  13
HETATM   13  C   UNL     1      -9.111  12.751  68.647  1.00  0.00     0.048 C  
HETATM   14  O   UNL     1     -10.340  13.399  68.258  1.00  0.00    -0.236 OA 
HETATM   15  H   UNL     1     -10.374  14.225  68.725  1.00  0.00     0.000 HD 
BRANCH  13  16
HETATM   16  C   UNL     1      -7.928  13.705  68.402  1.00  0.00    -0.147 C  
HETATM   17  H   UNL     1      -6.146  13.964  69.176  1.00  0.00     0.000 HD 
HETATM   18  O   UNL     1      -6.876  13.375  69.328  1.00  0.00    -0.100 OA 
BRANCH  16  19
HETATM   19  C   UNL     1      -8.305  15.184  68.545  1.00  0.00    -0.158 C  
BRANCH  19  20
HETATM   20  O   UNL     1      -8.994  15.585  67.354  1.00  0.00    -0.184 OA 
HETATM   21  S   UNL     1     -10.004  16.853  67.490  1.00  0.00    -0.276 S  
HETATM   22  C   UNL     1     -10.537  16.907  65.796  1.00  0.00    -0.230 C  
HETATM   23  O   UNL     1      -9.219  18.037  67.774  1.00  0.00    -0.257 OA 
HETATM   24  O   UNL     1     -11.125  16.455  68.316  1.00  0.00    -0.347 OA 
ENDBRANCH  19  20
ENDBRANCH  16  19
ENDBRANCH  13  16
ENDBRANCH  10  13
ENDBRANCH   7  10
ENDBRANCH   6   7
ENDBRANCH   3   6
TORSDOF 7
ENDMDL
MODEL      272
REMARK 921   NORMALIZED FREE ENERGY PREDICTED BY IDOCK:   -3.29 KCAL/MOL
REMARK 922        TOTAL FREE ENERGY PREDICTED BY IDOCK:   -5.88 KCAL/MOL
REMARK 923 INTER-LIGAND FREE ENERGY PREDICTED BY IDOCK:   -4.90 KCAL/MOL
REMARK 924 INTRA-LIGAND FREE ENERGY PREDICTED BY IDOCK:   -0.98 KCAL/MOL
REMARK 927      BINDING AFFINITY PREDICTED BY RF-SCORE:    0.00 PKD
ROOT
HETATM    1  C   UNL     1     -13.084  15.793  73.329  1.00  0.00    -0.584 C  
HETATM    2  S   UNL     1     -13.251  14.720  71.926  1.00  0.00    -0.379 S  
HETATM    3  O   UNL     1     -11.881  15.119  71.119  1.00  0.00    -0.292 OA 
HETATM    4  O   UNL     1     -13.129  13.350  72.378  1.00  0.00    -0.408 OA 
HETATM    5  O   UNL     1     -14.380  15.169  71.136  1.00  0.00    -0.420 OA 
ENDROOT
BRANCH   3   6
HETATM    6  C   UNL     1     -11.689  14.392  69.901  1.00  0.00    -0.303 C  
BRANCH   6   7
HETATM    7  C   UNL     1     -11.882  15.276  68.666  1.00  0.00    -0.305 C  
HETATM    8  O   UNL     1     -12.394  16.562  69.070  1.00  0.00    -0.094 OA 
HETATM    9  H   UNL     1     -12.514  17.110  68.303  1.00  0.00     0.000 HD 
BRANCH   7  10
HETATM   10  C   UNL     1     -10.552  15.541  67.927  1.00  0.00    -0.274 C  
HETATM   11  H   UNL     1      -9.047  16.802  68.118  1.00  0.00     0.000 HD 
HETATM   12  O   UNL     1      -9.865  16.639  68.573  1.00  0.00    -0.232 OA 
BRANCH  10  13
HETATM   13  C   UNL     1      -9.555  14.367  67.878  1.00  0.00    -0.219 C  
HETATM   14  O   UNL     1      -8.307  14.859  68.410  1.00  0.00    -0.141 OA 
HETATM   15  H   UNL     1      -7.693  14.136  68.380  1.00  0.00     0.000 HD 
BRANCH  13  16
HETATM   16  C   UNL     1      -9.315  13.754  66.487  1.00  0.00    -0.233 C  
HETATM   17  H   UNL     1     -10.418  13.350  64.919  1.00  0.00     0.000 HD 
HETATM   18  O   UNL     1     -10.567  13.728  65.778  1.00  0.00    -0.281 OA 
BRANCH  16  19
HETATM   19  C   UNL     1      -8.718  12.344  66.544  1.00  0.00    -0.057 C  
BRANCH  19  20
HETATM   20  O   UNL     1      -7.959  12.229  67.755  1.00  0.00    -0.131 OA 
HETATM   21  S   UNL     1      -6.487  11.551  67.630  1.00  0.00    -0.075 S  
HETATM   22  C   UNL     1      -6.027  11.678  69.342  1.00  0.00    -0.079 C  
HETATM   23  O   UNL     1      -5.640  12.430  66.850  1.00  0.00    -0.327 OA 
HETATM   24  O   UNL     1      -6.658  10.151  67.299  1.00  0.00    -0.067 OA 
ENDBRANCH  19  20
ENDBRANCH  16  19
ENDBRANCH  13  16
ENDBRANCH  10  13
ENDBRANCH   7  10
ENDBRANCH   6   7
ENDBRANCH   3   6
TORSDOF 7
ENDMDL
MODEL      273
REMARK 921   NORMALIZED FREE ENERGY PREDICTED BY IDOCK:   -3.29 KCAL/MOL
REMARK 922        TOTAL FREE ENERGY PREDICTED BY IDOCK:   -5.88 KCAL/MOL
REMARK 923 INTER-LIGAND FREE ENERGY PREDICTED BY IDOCK:   -4.44 KCAL/MOL
REMARK 924 INTRA-LIGAND FREE ENERGY PREDICTED BY IDOCK:   -1.43 KCAL/MOL
REMARK 927      BINDING AFFINITY PREDICTED BY RF-SCORE:    0.00 PKD
ROOT
HETATM    1  C   UNL     1     -12.389  14.036  69.831  1.00  0.00    -0.310 C  
HETATM    2  S   UNL     1     -11.454  14.340  68.354  1.00  0.00    -0.321 S  
HETATM    3  O   UNL     1     -10.394  13.093  68.446  1.00  0.00    -0.245 OA 
HETATM    4  O   UNL     1     -12.315  14.121  67.212  1.00  0.00    -0.350 OA 
HETATM    5  O   UNL     1     -10.709  15.571  68.527  1.00  0.00    -0.243 OA 
ENDROOT
BRANCH   3   6
HETATM    6  C   UNL     1      -9.472  13.030  67.353  1.00  0.00    -0.210 C  
BRANCH   6   7
HETATM    7  C   UNL     1      -8.041  13.360  67.787  1.00  0.00    -0.173 C  
HETATM    8  O   UNL     1      -8.067  14.032  69.062  1.00  0.00    -0.311 OA 
HETATM    9  H   UNL     1      -7.179  14.236  69.330  1.00  0.00     0.000 HD 
BRANCH   7  10
HETATM   10  C   UNL     1      -7.182  12.090  67.971  1.00  0.00    -0.096 C  
HETATM   11  H   UNL     1      -5.288  11.699  68.361  1.00  0.00     0.000 HD 
HETATM   12  O   UNL     1      -5.817  12.480  68.248  1.00  0.00    -0.055 OA 
BRANCH  10  13
HETATM   13  C   UNL     1      -7.607  11.140  69.108  1.00  0.00    -0.098 C  
HETATM   14  O   UNL     1      -6.883  11.553  70.286  1.00  0.00    -0.473 OA 
HETATM   15  H   UNL     1      -7.144  10.967  70.986  1.00  0.00     0.000 HD 
BRANCH  13  16
HETATM   16  C   UNL     1      -7.361   9.643  68.852  1.00  0.00    -0.073 C  
HETATM   17  H   UNL     1      -7.468   8.445  67.305  1.00  0.00     0.000 HD 
HETATM   18  O   UNL     1      -7.620   9.369  67.463  1.00  0.00    -0.090 OA 
BRANCH  16  19
HETATM   19  C   UNL     1      -8.222   8.730  69.732  1.00  0.00    -0.117 C  
BRANCH  19  20
HETATM   20  O   UNL     1      -9.276   9.522  70.297  1.00  0.00    -0.229 OA 
HETATM   21  S   UNL     1     -10.783   9.211  69.769  1.00  0.00    -0.216 S  
HETATM   22  C   UNL     1     -11.630  10.413  70.767  1.00  0.00    -0.358 C  
HETATM   23  O   UNL     1     -11.159   7.884  70.212  1.00  0.00    -0.257 OA 
HETATM   24  O   UNL     1     -10.871   9.614  68.381  1.00  0.00    -0.219 OA 
ENDBRANCH  19  20
ENDBRANCH  16  19
ENDBRANCH  13  16
ENDBRANCH  10  13
ENDBRANCH   7  10
ENDBRANCH   6   7
ENDBRANCH   3   6
TORSDOF 7
ENDMDL
MODEL      274
REMARK 921   NORMALIZED FREE ENERGY PREDICTED BY IDOCK:   -3.22 KCAL/MOL
REMARK 922        TOTAL FREE ENERGY PREDICTED BY IDOCK:   -5.79 KCAL/MOL
REMARK 923 INTER-LIGAND FREE ENERGY PREDICTED BY IDOCK:   -5.05 KCAL/MOL
REMARK 924 INTRA-LIGAND FREE ENERGY PREDICTED BY IDOCK:   -0.74 KCAL/MOL
REMARK 927      BINDING AFFINITY PREDICTED BY RF-SCORE:    0.00 PKD
ROOT
HETATM    1  C   UNL     1     -12.520  11.826  63.389  1.00  0.00    -0.372 C  
HETATM    2  S   UNL     1     -11.974  13.371  64.070  1.00  0.00    -0.449 S  
HETATM    3  O   UNL     1     -12.506  13.188  65.610  1.00  0.00    -0.457 OA 
HETATM    4  O   UNL     1     -10.527  13.379  64.087  1.00  0.00    -0.393 OA 
HETATM    5  O   UNL     1     -12.739  14.439  63.458  1.00  0.00    -0.742 OA 
ENDROOT
BRANCH   3   6
HETATM    6  C   UNL     1     -12.199  14.292  66.467  1.00  0.00    -0.391 C  
BRANCH   6   7
HETATM    7  C   UNL     1     -10.690  14.476  66.651  1.00  0.00    -0.305 C  
HETATM    8  O   UNL     1     -10.416  15.834  67.049  1.00  0.00    -0.297 OA 
HETATM    9  H   UNL     1      -9.479  15.948  67.163  1.00  0.00     0.000 HD 
BRANCH   7  10
HETATM   10  C   UNL     1     -10.125  13.565  67.762  1.00  0.00    -0.236 C  
HETATM   11  H   UNL     1     -10.878  12.405  69.169  1.00  0.00     0.000 HD 
HETATM   12  O   UNL     1     -11.226  12.966  68.485  1.00  0.00    -0.240 OA 
BRANCH  10  13
HETATM   13  C   UNL     1      -9.220  12.407  67.299  1.00  0.00    -0.187 C  
HETATM   14  O   UNL     1      -9.948  11.695  66.277  1.00  0.00    -0.207 OA 
HETATM   15  H   UNL     1      -9.391  10.981  65.992  1.00  0.00     0.000 HD 
BRANCH  13  16
HETATM   16  C   UNL     1      -8.783  11.423  68.399  1.00  0.00    -0.157 C  
HETATM   17  H   UNL     1      -7.199  11.190  69.529  1.00  0.00     0.000 HD 
HETATM   18  O   UNL     1      -7.468  11.798  68.850  1.00  0.00    -0.119 OA 
BRANCH  16  19
HETATM   19  C   UNL     1      -8.778   9.962  67.934  1.00  0.00    -0.129 C  
BRANCH  19  20
HETATM   20  O   UNL     1      -7.774   9.821  66.920  1.00  0.00    -0.098 OA 
HETATM   21  S   UNL     1      -7.002   8.392  66.854  1.00  0.00    -0.074 S  
HETATM   22  C   UNL     1      -5.941   8.764  65.477  1.00  0.00    -0.051 C  
HETATM   23  O   UNL     1      -7.951   7.374  66.454  1.00  0.00    -0.102 OA 
HETATM   24  O   UNL     1      -6.187   8.260  68.045  1.00  0.00    -0.049 OA 
ENDBRANCH  19  20
ENDBRANCH  16  19
ENDBRANCH  13  16
ENDBRANCH  10  13
ENDBRANCH   7  10
ENDBRANCH   6   7
ENDBRANCH   3   6
TORSDOF 7
ENDMDL
MODEL      275
REMARK 921   NORMALIZED FREE ENERGY PREDICTED BY IDOCK:   -3.21 KCAL/MOL
REMARK 922        TOTAL FREE ENERGY PREDICTED BY IDOCK:   -5.77 KCAL/MOL
REMARK 923 INTER-LIGAND FREE ENERGY PREDICTED BY IDOCK:   -5.03 KCAL/MOL
REMARK 924 INTRA-LIGAND FREE ENERGY PREDICTED BY IDOCK:   -0.74 KCAL/MOL
REMARK 927      BINDING AFFINITY PREDICTED BY RF-SCORE:    0.00 PKD
ROOT
HETATM    1  C   UNL     1      -5.999  16.524  68.923  1.00  0.00    -0.143 C  
HETATM    2  S   UNL     1      -7.115  15.175  69.213  1.00  0.00    -0.186 S  
HETATM    3  O   UNL     1      -7.292  14.639  67.674  1.00  0.00    -0.153 OA 
HETATM    4  O   UNL     1      -6.418  14.158  69.970  1.00  0.00    -0.142 OA 
HETATM    5  O   UNL     1      -8.388  15.716  69.645  1.00  0.00    -0.219 OA 
ENDROOT
BRANCH   3   6
HETATM    6  C   UNL     1      -8.148  13.499  67.548  1.00  0.00    -0.186 C  
BRANCH   6   7
HETATM    7  C   UNL     1      -9.496  13.858  66.916  1.00  0.00    -0.258 C  
HETATM    8  O   UNL     1      -9.654  13.137  65.678  1.00  0.00    -0.463 OA 
HETATM    9  H   UNL     1     -10.491  13.360  65.286  1.00  0.00     0.000 HD 
BRANCH   7  10
HETATM   10  C   UNL     1     -10.685  13.459  67.818  1.00  0.00    -0.248 C  
HETATM   11  H   UNL     1     -12.614  13.865  67.889  1.00  0.00     0.000 HD 
HETATM   12  O   UNL     1     -11.883  14.111  67.334  1.00  0.00    -0.374 OA 
BRANCH  10  13
HETATM   13  C   UNL     1     -11.005  11.954  67.896  1.00  0.00    -0.222 C  
HETATM   14  O   UNL     1     -12.002  11.688  66.887  1.00  0.00    -0.567 OA 
HETATM   15  H   UNL     1     -12.199  10.760  66.935  1.00  0.00     0.000 HD 
BRANCH  13  16
HETATM   16  C   UNL     1     -11.507  11.449  69.260  1.00  0.00    -0.303 C  
HETATM   17  H   UNL     1     -12.109  12.278  70.931  1.00  0.00     0.000 HD 
HETATM   18  O   UNL     1     -11.798  12.589  70.089  1.00  0.00    -0.324 OA 
BRANCH  16  19
HETATM   19  C   UNL     1     -10.507  10.530  69.970  1.00  0.00    -0.109 C  
BRANCH  19  20
HETATM   20  O   UNL     1     -11.109   9.235  70.103  1.00  0.00    -0.238 OA 
HETATM   21  S   UNL     1     -10.157   7.955  69.790  1.00  0.00    -0.203 S  
HETATM   22  C   UNL     1     -11.360   6.687  70.112  1.00  0.00    -0.382 C  
HETATM   23  O   UNL     1      -9.125   7.891  70.805  1.00  0.00    -0.149 OA 
HETATM   24  O   UNL     1      -9.848   7.953  68.375  1.00  0.00    -0.163 OA 
ENDBRANCH  19  20
ENDBRANCH  16  19
ENDBRANCH  13  16
ENDBRANCH  10  13
ENDBRANCH   7  10
ENDBRANCH   6   7
ENDBRANCH   3   6
TORSDOF 7
ENDMDL
MODEL      276
REMARK 921   NORMALIZED FREE ENERGY PREDICTED BY IDOCK:   -3.21 KCAL/MOL
REMARK 922        TOTAL FREE ENERGY PREDICTED BY IDOCK:   -5.76 KCAL/MOL
REMARK 923 INTER-LIGAND FREE ENERGY PREDICTED BY IDOCK:   -4.74 KCAL/MOL
REMARK 924 INTRA-LIGAND FREE ENERGY PREDICTED BY IDOCK:   -1.02 KCAL/MOL
REMARK 927      BINDING AFFINITY PREDICTED BY RF-SCORE:    0.00 PKD
ROOT
HETATM    1  C   UNL     1      -8.967  15.671  67.934  1.00  0.00    -0.180 C  
HETATM    2  S   UNL     1     -10.659  15.261  68.278  1.00  0.00    -0.251 S  
HETATM    3  O   UNL     1     -10.454  13.740  68.854  1.00  0.00    -0.233 OA 
HETATM    4  O   UNL     1     -11.123  16.099  69.363  1.00  0.00    -0.296 OA 
HETATM    5  O   UNL     1     -11.375  15.169  67.021  1.00  0.00    -0.336 OA 
ENDROOT
BRANCH   3   6
HETATM    6  C   UNL     1     -11.670  13.101  69.259  1.00  0.00    -0.321 C  
BRANCH   6   7
HETATM    7  C   UNL     1     -12.022  11.912  68.361  1.00  0.00    -0.182 C  
HETATM    8  O   UNL     1     -11.999  12.327  66.981  1.00  0.00    -0.576 OA 
HETATM    9  H   UNL     1     -12.217  11.589  66.424  1.00  0.00     0.000 HD 
BRANCH   7  10
HETATM   10  C   UNL     1     -11.002  10.761  68.495  1.00  0.00    -0.243 C  
HETATM   11  H   UNL     1      -9.330  10.231  67.593  1.00  0.00     0.000 HD 
HETATM   12  O   UNL     1      -9.957  10.939  67.510  1.00  0.00    -0.170 OA 
BRANCH  10  13
HETATM   13  C   UNL     1     -10.301  10.628  69.861  1.00  0.00    -0.026 C  
HETATM   14  O   UNL     1      -8.890  10.490  69.592  1.00  0.00    -0.369 OA 
HETATM   15  H   UNL     1      -8.458  10.408  70.433  1.00  0.00     0.000 HD 
BRANCH  13  16
HETATM   16  C   UNL     1     -10.773   9.457  70.741  1.00  0.00    -0.305 C  
HETATM   17  H   UNL     1     -10.116   8.555  72.352  1.00  0.00     0.000 HD 
HETATM   18  O   UNL     1      -9.824   9.277  71.809  1.00  0.00    -0.252 OA 
BRANCH  16  19
HETATM   19  C   UNL     1     -10.938   8.146  69.965  1.00  0.00    -0.199 C  
BRANCH  19  20
HETATM   20  O   UNL     1      -9.652   7.764  69.458  1.00  0.00    -0.160 OA 
HETATM   21  S   UNL     1      -9.643   6.809  68.142  1.00  0.00    -0.122 S  
HETATM   22  C   UNL     1      -7.879   6.678  67.963  1.00  0.00    -0.113 C  
HETATM   23  O   UNL     1     -10.173   7.562  67.024  1.00  0.00    -0.240 OA 
HETATM   24  O   UNL     1     -10.169   5.513  68.517  1.00  0.00    -0.169 OA 
ENDBRANCH  19  20
ENDBRANCH  16  19
ENDBRANCH  13  16
ENDBRANCH  10  13
ENDBRANCH   7  10
ENDBRANCH   6   7
ENDBRANCH   3   6
TORSDOF 7
ENDMDL
MODEL      277
REMARK 921   NORMALIZED FREE ENERGY PREDICTED BY IDOCK:   -3.20 KCAL/MOL
REMARK 922        TOTAL FREE ENERGY PREDICTED BY IDOCK:   -5.76 KCAL/MOL
REMARK 923 INTER-LIGAND FREE ENERGY PREDICTED BY IDOCK:   -5.01 KCAL/MOL
REMARK 924 INTRA-LIGAND FREE ENERGY PREDICTED BY IDOCK:   -0.75 KCAL/MOL
REMARK 927      BINDING AFFINITY PREDICTED BY RF-SCORE:    0.00 PKD
ROOT
HETATM    1  C   UNL     1      -9.540  11.104  65.992  1.00  0.00    -0.217 C  
HETATM    2  S   UNL     1     -10.741  11.942  66.993  1.00  0.00    -0.252 S  
HETATM    3  O   UNL     1     -11.097  10.739  68.048  1.00  0.00    -0.254 OA 
HETATM    4  O   UNL     1     -10.074  13.001  67.720  1.00  0.00    -0.219 OA 
HETATM    5  O   UNL     1     -11.919  12.191  66.186  1.00  0.00    -0.593 OA 
ENDROOT
BRANCH   3   6
HETATM    6  C   UNL     1     -12.058  11.103  69.044  1.00  0.00    -0.246 C  
BRANCH   6   7
HETATM    7  C   UNL     1     -11.764  10.445  70.396  1.00  0.00    -0.331 C  
HETATM    8  O   UNL     1     -12.925   9.715  70.838  1.00  0.00    -0.503 OA 
HETATM    9  H   UNL     1     -12.742   9.307  71.677  1.00  0.00     0.000 HD 
BRANCH   7  10
HETATM   10  C   UNL     1     -10.606   9.428  70.307  1.00  0.00    -0.250 C  
HETATM   11  H   UNL     1      -9.242   8.716  71.541  1.00  0.00     0.000 HD 
HETATM   12  O   UNL     1      -9.955   9.342  71.596  1.00  0.00    -0.294 OA 
BRANCH  10  13
HETATM   13  C   UNL     1     -10.992   7.990  69.912  1.00  0.00    -0.172 C  
HETATM   14  O   UNL     1     -11.299   7.291  71.136  1.00  0.00    -0.253 OA 
HETATM   15  H   UNL     1     -11.536   6.404  70.893  1.00  0.00     0.000 HD 
BRANCH  13  16
HETATM   16  C   UNL     1      -9.926   7.206  69.127  1.00  0.00    -0.168 C  
HETATM   17  H   UNL     1      -9.170   7.282  67.320  1.00  0.00     0.000 HD 
HETATM   18  O   UNL     1      -9.829   7.766  67.804  1.00  0.00    -0.148 OA 
BRANCH  16  19
HETATM   19  C   UNL     1     -10.224   5.705  69.036  1.00  0.00    -0.222 C  
BRANCH  19  20
HETATM   20  O   UNL     1     -10.581   5.403  67.680  1.00  0.00    -0.192 OA 
HETATM   21  S   UNL     1      -9.561   4.440  66.857  1.00  0.00    -0.210 S  
HETATM   22  C   UNL     1     -10.466   4.399  65.328  1.00  0.00    -0.179 C  
HETATM   23  O   UNL     1      -9.590   3.121  67.455  1.00  0.00    -0.194 OA 
HETATM   24  O   UNL     1      -8.324   5.164  66.644  1.00  0.00    -0.108 OA 
ENDBRANCH  19  20
ENDBRANCH  16  19
ENDBRANCH  13  16
ENDBRANCH  10  13
ENDBRANCH   7  10
ENDBRANCH   6   7
ENDBRANCH   3   6
TORSDOF 7
ENDMDL
MODEL      278
REMARK 921   NORMALIZED FREE ENERGY PREDICTED BY IDOCK:   -3.20 KCAL/MOL
REMARK 922        TOTAL FREE ENERGY PREDICTED BY IDOCK:   -5.76 KCAL/MOL
REMARK 923 INTER-LIGAND FREE ENERGY PREDICTED BY IDOCK:   -4.80 KCAL/MOL
REMARK 924 INTRA-LIGAND FREE ENERGY PREDICTED BY IDOCK:   -0.95 KCAL/MOL
REMARK 927      BINDING AFFINITY PREDICTED BY RF-SCORE:    0.00 PKD
ROOT
HETATM    1  C   UNL     1     -10.638   5.603  72.165  1.00  0.00    -0.223 C  
HETATM    2  S   UNL     1     -11.873   6.650  71.438  1.00  0.00    -0.340 S  
HETATM    3  O   UNL     1     -11.280   8.113  71.882  1.00  0.00    -0.258 OA 
HETATM    4  O   UNL     1     -11.779   6.540  69.998  1.00  0.00    -0.416 OA 
HETATM    5  O   UNL     1     -13.122   6.444  72.143  1.00  0.00    -0.130 OA 
ENDROOT
BRANCH   3   6
HETATM    6  C   UNL     1     -12.058   9.222  71.421  1.00  0.00    -0.348 C  
BRANCH   6   7
HETATM    7  C   UNL     1     -11.297  10.076  70.403  1.00  0.00    -0.320 C  
HETATM    8  O   UNL     1     -11.164   9.346  69.167  1.00  0.00    -0.437 OA 
HETATM    9  H   UNL     1     -10.692   9.876  68.535  1.00  0.00     0.000 HD 
BRANCH   7  10
HETATM   10  C   UNL     1     -12.046  11.384  70.067  1.00  0.00    -0.340 C  
HETATM   11  H   UNL     1     -13.382  12.526  70.964  1.00  0.00     0.000 HD 
HETATM   12  O   UNL     1     -12.921  11.721  71.170  1.00  0.00    -0.310 OA 
BRANCH  10  13
HETATM   13  C   UNL     1     -11.169  12.623  69.806  1.00  0.00     0.075 C  
HETATM   14  O   UNL     1     -11.740  13.705  70.572  1.00  0.00    -0.500 OA 
HETATM   15  H   UNL     1     -11.199  14.469  70.411  1.00  0.00     0.000 HD 
BRANCH  13  16
HETATM   16  C   UNL     1     -11.039  13.049  68.333  1.00  0.00    -0.262 C  
HETATM   17  H   UNL     1     -12.264  13.262  66.818  1.00  0.00     0.000 HD 
HETATM   18  O   UNL     1     -12.344  12.998  67.727  1.00  0.00    -0.144 OA 
BRANCH  16  19
HETATM   19  C   UNL     1     -10.060  12.180  67.537  1.00  0.00    -0.196 C  
BRANCH  19  20
HETATM   20  O   UNL     1      -9.159  11.560  68.465  1.00  0.00    -0.175 OA 
HETATM   21  S   UNL     1      -7.587  11.955  68.327  1.00  0.00    -0.123 S  
HETATM   22  C   UNL     1      -6.980  10.957  69.666  1.00  0.00    -0.128 C  
HETATM   23  O   UNL     1      -7.432  13.353  68.675  1.00  0.00    -0.114 OA 
HETATM   24  O   UNL     1      -7.090  11.411  67.081  1.00  0.00    -0.115 OA 
ENDBRANCH  19  20
ENDBRANCH  16  19
ENDBRANCH  13  16
ENDBRANCH  10  13
ENDBRANCH   7  10
ENDBRANCH   6   7
ENDBRANCH   3   6
TORSDOF 7
ENDMDL
MODEL      279
REMARK 921   NORMALIZED FREE ENERGY PREDICTED BY IDOCK:   -3.17 KCAL/MOL
REMARK 922        TOTAL FREE ENERGY PREDICTED BY IDOCK:   -5.71 KCAL/MOL
REMARK 923 INTER-LIGAND FREE ENERGY PREDICTED BY IDOCK:   -5.04 KCAL/MOL
REMARK 924 INTRA-LIGAND FREE ENERGY PREDICTED BY IDOCK:   -0.67 KCAL/MOL
REMARK 927      BINDING AFFINITY PREDICTED BY RF-SCORE:    0.00 PKD
ROOT
HETATM    1  C   UNL     1     -12.260   7.391  71.082  1.00  0.00    -0.324 C  
HETATM    2  S   UNL     1     -11.232   8.832  70.957  1.00  0.00    -0.289 S  
HETATM    3  O   UNL     1     -10.285   8.378  69.699  1.00  0.00    -0.199 OA 
HETATM    4  O   UNL     1     -12.053   9.945  70.530  1.00  0.00    -0.261 OA 
HETATM    5  O   UNL     1     -10.398   8.905  72.140  1.00  0.00    -0.333 OA 
ENDROOT
BRANCH   3   6
HETATM    6  C   UNL     1      -9.320   9.361  69.311  1.00  0.00    -0.167 C  
BRANCH   6   7
HETATM    7  C   UNL     1      -8.150   8.746  68.538  1.00  0.00    -0.116 C  
HETATM    8  O   UNL     1      -8.212   7.309  68.635  1.00  0.00    -0.123 OA 
HETATM    9  H   UNL     1      -7.485   6.928  68.155  1.00  0.00     0.000 HD 
BRANCH   7  10
HETATM   10  C   UNL     1      -8.201   9.093  67.035  1.00  0.00    -0.116 C  
HETATM   11  H   UNL     1      -7.578   8.254  65.361  1.00  0.00     0.000 HD 
HETATM   12  O   UNL     1      -7.547   8.040  66.286  1.00  0.00    -0.087 OA 
BRANCH  10  13
HETATM   13  C   UNL     1      -9.604   9.262  66.422  1.00  0.00    -0.238 C  
HETATM   14  O   UNL     1     -10.112   7.934  66.174  1.00  0.00    -0.469 OA 
HETATM   15  H   UNL     1     -10.977   8.038  65.796  1.00  0.00     0.000 HD 
BRANCH  13  16
HETATM   16  C   UNL     1      -9.669  10.087  65.124  1.00  0.00    -0.311 C  
HETATM   17  H   UNL     1      -8.391  11.093  64.032  1.00  0.00     0.000 HD 
HETATM   18  O   UNL     1      -8.350  10.585  64.833  1.00  0.00    -0.170 OA 
BRANCH  16  19
HETATM   19  C   UNL     1     -10.661  11.253  65.200  1.00  0.00    -0.280 C  
BRANCH  19  20
HETATM   20  O   UNL     1     -10.023  12.336  65.891  1.00  0.00    -0.246 OA 
HETATM   21  S   UNL     1     -10.771  13.779  65.830  1.00  0.00    -0.287 S  
HETATM   22  C   UNL     1      -9.604  14.686  66.817  1.00  0.00    -0.253 C  
HETATM   23  O   UNL     1     -12.022  13.680  66.554  1.00  0.00    -0.381 OA 
HETATM   24  O   UNL     1     -10.705  14.267  64.468  1.00  0.00    -0.388 OA 
ENDBRANCH  19  20
ENDBRANCH  16  19
ENDBRANCH  13  16
ENDBRANCH  10  13
ENDBRANCH   7  10
ENDBRANCH   6   7
ENDBRANCH   3   6
TORSDOF 7
ENDMDL
MODEL      280
REMARK 921   NORMALIZED FREE ENERGY PREDICTED BY IDOCK:   -3.16 KCAL/MOL
REMARK 922        TOTAL FREE ENERGY PREDICTED BY IDOCK:   -5.70 KCAL/MOL
REMARK 923 INTER-LIGAND FREE ENERGY PREDICTED BY IDOCK:   -5.95 KCAL/MOL
REMARK 924 INTRA-LIGAND FREE ENERGY PREDICTED BY IDOCK:    0.24 KCAL/MOL
REMARK 927      BINDING AFFINITY PREDICTED BY RF-SCORE:    0.00 PKD
ROOT
HETATM    1  C   UNL     1     -12.108  13.099  63.216  1.00  0.00    -0.386 C  
HETATM    2  S   UNL     1     -11.456  12.269  64.642  1.00  0.00    -0.342 S  
HETATM    3  O   UNL     1     -10.241  13.301  65.021  1.00  0.00    -0.321 OA 
HETATM    4  O   UNL     1     -12.445  12.325  65.697  1.00  0.00    -0.591 OA 
HETATM    5  O   UNL     1     -10.862  11.018  64.215  1.00  0.00    -0.353 OA 
ENDROOT
BRANCH   3   6
HETATM    6  C   UNL     1      -9.496  12.923  66.183  1.00  0.00    -0.154 C  
BRANCH   6   7
HETATM    7  C   UNL     1      -8.985  14.140  66.961  1.00  0.00    -0.237 C  
HETATM    8  O   UNL     1      -7.550  14.072  67.072  1.00  0.00    -0.348 OA 
HETATM    9  H   UNL     1      -7.234  14.828  67.555  1.00  0.00     0.000 HD 
BRANCH   7  10
HETATM   10  C   UNL     1      -9.313  15.467  66.244  1.00  0.00    -0.320 C  
HETATM   11  H   UNL     1     -10.883  16.239  65.331  1.00  0.00     0.000 HD 
HETATM   12  O   UNL     1     -10.681  15.422  65.773  1.00  0.00    -0.321 OA 
BRANCH  10  13
HETATM   13  C   UNL     1      -9.181  16.749  67.088  1.00  0.00    -0.224 C  
HETATM   14  O   UNL     1      -8.223  16.464  68.129  1.00  0.00    -0.163 OA 
HETATM   15  H   UNL     1      -8.141  17.253  68.649  1.00  0.00     0.000 HD 
BRANCH  13  16
HETATM   16  C   UNL     1     -10.485  17.269  67.719  1.00  0.00    -0.371 C  
HETATM   17  H   UNL     1     -11.460  18.969  67.732  1.00  0.00     0.000 HD 
HETATM   18  O   UNL     1     -10.655  18.649  67.343  1.00  0.00    -0.416 OA 
BRANCH  16  19
HETATM   19  C   UNL     1     -10.512  17.138  69.245  1.00  0.00    -0.267 C  
BRANCH  19  20
HETATM   20  O   UNL     1     -10.492  15.742  69.572  1.00  0.00    -0.228 OA 
HETATM   21  S   UNL     1     -11.904  14.945  69.447  1.00  0.00    -0.323 S  
HETATM   22  C   UNL     1     -11.309  13.342  69.932  1.00  0.00     0.003 C  
HETATM   23  O   UNL     1     -12.284  14.901  68.050  1.00  0.00    -0.168 OA 
HETATM   24  O   UNL     1     -12.797  15.439  70.474  1.00  0.00    -0.417 OA 
ENDBRANCH  19  20
ENDBRANCH  16  19
ENDBRANCH  13  16
ENDBRANCH  10  13
ENDBRANCH   7  10
ENDBRANCH   6   7
ENDBRANCH   3   6
TORSDOF 7
ENDMDL
MODEL      281
REMARK 921   NORMALIZED FREE ENERGY PREDICTED BY IDOCK:   -3.16 KCAL/MOL
REMARK 922        TOTAL FREE ENERGY PREDICTED BY IDOCK:   -5.70 KCAL/MOL
REMARK 923 INTER-LIGAND FREE ENERGY PREDICTED BY IDOCK:   -4.90 KCAL/MOL
REMARK 924 INTRA-LIGAND FREE ENERGY PREDICTED BY IDOCK:   -0.80 KCAL/MOL
REMARK 927      BINDING AFFINITY PREDICTED BY RF-SCORE:    0.00 PKD
ROOT
HETATM    1  C   UNL     1     -10.892  16.220  67.953  1.00  0.00    -0.330 C  
HETATM    2  S   UNL     1     -10.722  14.488  68.298  1.00  0.00    -0.247 S  
HETATM    3  O   UNL     1     -10.875  13.895  66.777  1.00  0.00    -0.283 OA 
HETATM    4  O   UNL     1      -9.369  14.240  68.748  1.00  0.00    -0.189 OA 
HETATM    5  O   UNL     1     -11.876  14.057  69.062  1.00  0.00    -0.312 OA 
ENDROOT
BRANCH   3   6
HETATM    6  C   UNL     1     -10.762  12.471  66.693  1.00  0.00    -0.236 C  
BRANCH   6   7
HETATM    7  C   UNL     1     -10.122  12.021  65.376  1.00  0.00    -0.256 C  
HETATM    8  O   UNL     1      -9.845  13.174  64.557  1.00  0.00    -0.604 OA 
HETATM    9  H   UNL     1      -9.447  12.894  63.740  1.00  0.00     0.000 HD 
BRANCH   7  10
HETATM   10  C   UNL     1      -8.775  11.302  65.602  1.00  0.00    -0.076 C  
HETATM   11  H   UNL     1      -7.390  11.285  67.007  1.00  0.00     0.000 HD 
HETATM   12  O   UNL     1      -8.219  11.728  66.868  1.00  0.00    -0.163 OA 
BRANCH  10  13
HETATM   13  C   UNL     1      -8.822   9.762  65.638  1.00  0.00    -0.154 C  
HETATM   14  O   UNL     1      -9.881   9.357  64.746  1.00  0.00    -0.382 OA 
HETATM   15  H   UNL     1      -9.910   8.409  64.768  1.00  0.00     0.000 HD 
BRANCH  13  16
HETATM   16  C   UNL     1      -9.051   9.135  67.025  1.00  0.00    -0.123 C  
HETATM   17  H   UNL     1      -8.468   7.507  67.946  1.00  0.00     0.000 HD 
HETATM   18  O   UNL     1      -8.326   7.893  67.090  1.00  0.00    -0.115 OA 
BRANCH  16  19
HETATM   19  C   UNL     1     -10.532   8.892  67.340  1.00  0.00    -0.277 C  
BRANCH  19  20
HETATM   20  O   UNL     1     -10.658   8.693  68.754  1.00  0.00    -0.211 OA 
HETATM   21  S   UNL     1     -10.862  10.027  69.662  1.00  0.00    -0.276 S  
HETATM   22  C   UNL     1     -10.970   9.219  71.241  1.00  0.00    -0.351 C  
HETATM   23  O   UNL     1     -12.151  10.607  69.343  1.00  0.00    -0.270 OA 
HETATM   24  O   UNL     1      -9.637  10.798  69.618  1.00  0.00    -0.048 OA 
ENDBRANCH  19  20
ENDBRANCH  16  19
ENDBRANCH  13  16
ENDBRANCH  10  13
ENDBRANCH   7  10
ENDBRANCH   6   7
ENDBRANCH   3   6
TORSDOF 7
ENDMDL
MODEL      282
REMARK 921   NORMALIZED FREE ENERGY PREDICTED BY IDOCK:   -3.16 KCAL/MOL
REMARK 922        TOTAL FREE ENERGY PREDICTED BY IDOCK:   -5.70 KCAL/MOL
REMARK 923 INTER-LIGAND FREE ENERGY PREDICTED BY IDOCK:   -5.37 KCAL/MOL
REMARK 924 INTRA-LIGAND FREE ENERGY PREDICTED BY IDOCK:   -0.33 KCAL/MOL
REMARK 927      BINDING AFFINITY PREDICTED BY RF-SCORE:    0.00 PKD
ROOT
HETATM    1  C   UNL     1      -8.994   9.111  67.457  1.00  0.00    -0.122 C  
HETATM    2  S   UNL     1      -8.696  10.582  66.511  1.00  0.00    -0.142 S  
HETATM    3  O   UNL     1      -9.281  11.698  67.559  1.00  0.00    -0.167 OA 
HETATM    4  O   UNL     1      -7.266  10.772  66.396  1.00  0.00    -0.126 OA 
HETATM    5  O   UNL     1      -9.563  10.565  65.350  1.00  0.00    -0.202 OA 
ENDROOT
BRANCH   3   6
HETATM    6  C   UNL     1      -9.170  13.048  67.096  1.00  0.00    -0.226 C  
BRANCH   6   7
HETATM    7  C   UNL     1     -10.540  13.681  66.835  1.00  0.00    -0.271 C  
HETATM    8  O   UNL     1     -10.837  14.632  67.877  1.00  0.00    -0.250 OA 
HETATM    9  H   UNL     1     -11.687  15.025  67.714  1.00  0.00     0.000 HD 
BRANCH   7  10
HETATM   10  C   UNL     1     -10.575  14.458  65.501  1.00  0.00    -0.347 C  
HETATM   11  H   UNL     1     -11.974  15.211  64.331  1.00  0.00     0.000 HD 
HETATM   12  O   UNL     1     -11.953  14.733  65.152  1.00  0.00    -0.346 OA 
BRANCH  10  13
HETATM   13  C   UNL     1      -9.839  15.812  65.482  1.00  0.00    -0.264 C  
HETATM   14  O   UNL     1      -8.634  15.640  66.256  1.00  0.00    -0.308 OA 
HETATM   15  H   UNL     1      -8.180  16.474  66.245  1.00  0.00     0.000 HD 
BRANCH  13  16
HETATM   16  C   UNL     1     -10.634  17.011  66.027  1.00  0.00    -0.206 C  
HETATM   17  H   UNL     1     -11.471  18.609  65.261  1.00  0.00     0.000 HD 
HETATM   18  O   UNL     1     -10.980  17.869  64.924  1.00  0.00    -0.827 OA 
BRANCH  16  19
HETATM   19  C   UNL     1      -9.870  17.809  67.089  1.00  0.00    -0.311 C  
BRANCH  19  20
HETATM   20  O   UNL     1      -8.941  18.669  66.416  1.00  0.00    -0.304 OA 
HETATM   21  S   UNL     1      -7.481  18.849  67.111  1.00  0.00    -0.230 S  
HETATM   22  C   UNL     1      -6.783  19.948  65.901  1.00  0.00    -0.254 C  
HETATM   23  O   UNL     1      -6.784  17.581  67.052  1.00  0.00    -0.156 OA 
HETATM   24  O   UNL     1      -7.655  19.576  68.352  1.00  0.00    -0.308 OA 
ENDBRANCH  19  20
ENDBRANCH  16  19
ENDBRANCH  13  16
ENDBRANCH  10  13
ENDBRANCH   7  10
ENDBRANCH   6   7
ENDBRANCH   3   6
TORSDOF 7
ENDMDL
MODEL      283
REMARK 921   NORMALIZED FREE ENERGY PREDICTED BY IDOCK:   -3.15 KCAL/MOL
REMARK 922        TOTAL FREE ENERGY PREDICTED BY IDOCK:   -5.69 KCAL/MOL
REMARK 923 INTER-LIGAND FREE ENERGY PREDICTED BY IDOCK:   -4.49 KCAL/MOL
REMARK 924 INTRA-LIGAND FREE ENERGY PREDICTED BY IDOCK:   -1.19 KCAL/MOL
REMARK 927      BINDING AFFINITY PREDICTED BY RF-SCORE:    0.00 PKD
ROOT
HETATM    1  C   UNL     1      -8.447   5.480  70.480  1.00  0.00    -0.123 C  
HETATM    2  S   UNL     1      -9.798   6.401  69.790  1.00  0.00    -0.167 S  
HETATM    3  O   UNL     1     -10.133   7.380  71.061  1.00  0.00    -0.191 OA 
HETATM    4  O   UNL     1      -9.292   7.218  68.709  1.00  0.00    -0.144 OA 
HETATM    5  O   UNL     1     -10.922   5.503  69.611  1.00  0.00    -0.306 OA 
ENDROOT
BRANCH   3   6
HETATM    6  C   UNL     1     -11.203   8.300  70.823  1.00  0.00    -0.264 C  
BRANCH   6   7
HETATM    7  C   UNL     1     -10.724   9.755  70.831  1.00  0.00    -0.305 C  
HETATM    8  O   UNL     1      -9.326   9.803  70.484  1.00  0.00    -0.330 OA 
HETATM    9  H   UNL     1      -9.029  10.706  70.488  1.00  0.00     0.000 HD 
BRANCH   7  10
HETATM   10  C   UNL     1     -11.470  10.617  69.790  1.00  0.00    -0.302 C  
HETATM   11  H   UNL     1     -13.031  11.824  69.801  1.00  0.00     0.000 HD 
HETATM   12  O   UNL     1     -12.571  11.294  70.442  1.00  0.00    -0.270 OA 
BRANCH  10  13
HETATM   13  C   UNL     1     -10.639  11.707  69.086  1.00  0.00    -0.108 C  
HETATM   14  O   UNL     1     -11.107  12.976  69.589  1.00  0.00    -0.462 OA 
HETATM   15  H   UNL     1     -10.595  13.647  69.155  1.00  0.00     0.000 HD 
BRANCH  13  16
HETATM   16  C   UNL     1     -10.706  11.707  67.549  1.00  0.00    -0.215 C  
HETATM   17  H   UNL     1     -12.122  11.866  66.203  1.00  0.00     0.000 HD 
HETATM   18  O   UNL     1     -12.081  11.865  67.152  1.00  0.00    -0.590 OA 
BRANCH  16  19
HETATM   19  C   UNL     1     -10.125  10.437  66.919  1.00  0.00    -0.219 C  
BRANCH  19  20
HETATM   20  O   UNL     1      -8.934  10.088  67.638  1.00  0.00    -0.131 OA 
HETATM   21  S   UNL     1      -7.602   9.807  66.747  1.00  0.00    -0.095 S  
HETATM   22  C   UNL     1      -6.495   9.455  68.091  1.00  0.00    -0.054 C  
HETATM   23  O   UNL     1      -7.199  11.048  66.118  1.00  0.00    -0.124 OA 
HETATM   24  O   UNL     1      -7.812   8.591  65.988  1.00  0.00    -0.094 OA 
ENDBRANCH  19  20
ENDBRANCH  16  19
ENDBRANCH  13  16
ENDBRANCH  10  13
ENDBRANCH   7  10
ENDBRANCH   6   7
ENDBRANCH   3   6
TORSDOF 7
ENDMDL
MODEL      284
REMARK 921   NORMALIZED FREE ENERGY PREDICTED BY IDOCK:   -3.15 KCAL/MOL
REMARK 922        TOTAL FREE ENERGY PREDICTED BY IDOCK:   -5.68 KCAL/MOL
REMARK 923 INTER-LIGAND FREE ENERGY PREDICTED BY IDOCK:   -5.97 KCAL/MOL
REMARK 924 INTRA-LIGAND FREE ENERGY PREDICTED BY IDOCK:    0.28 KCAL/MOL
REMARK 927      BINDING AFFINITY PREDICTED BY RF-SCORE:    0.00 PKD
ROOT
HETATM    1  C   UNL     1     -12.658  11.998  63.290  1.00  0.00    -0.385 C  
HETATM    2  S   UNL     1     -11.796  13.234  64.228  1.00  0.00    -0.441 S  
HETATM    3  O   UNL     1     -12.217  12.764  65.741  1.00  0.00    -0.475 OA 
HETATM    4  O   UNL     1     -10.374  13.024  64.067  1.00  0.00    -0.419 OA 
HETATM    5  O   UNL     1     -12.415  14.519  63.972  1.00  0.00    -0.778 OA 
ENDROOT
BRANCH   3   6
HETATM    6  C   UNL     1     -11.652  13.569  66.780  1.00  0.00    -0.363 C  
BRANCH   6   7
HETATM    7  C   UNL     1     -10.275  13.062  67.218  1.00  0.00    -0.239 C  
HETATM    8  O   UNL     1      -9.549  14.130  67.857  1.00  0.00    -0.211 OA 
HETATM    9  H   UNL     1      -8.694  13.815  68.128  1.00  0.00     0.000 HD 
BRANCH   7  10
HETATM   10  C   UNL     1     -10.378  11.916  68.248  1.00  0.00    -0.201 C  
HETATM   11  H   UNL     1     -11.234  11.661  70.007  1.00  0.00     0.000 HD 
HETATM   12  O   UNL     1     -11.171  12.365  69.373  1.00  0.00    -0.229 OA 
BRANCH  10  13
HETATM   13  C   UNL     1     -11.022  10.608  67.751  1.00  0.00    -0.306 C  
HETATM   14  O   UNL     1     -12.004  10.227  68.737  1.00  0.00    -0.649 OA 
HETATM   15  H   UNL     1     -12.400   9.421  68.430  1.00  0.00     0.000 HD 
BRANCH  13  16
HETATM   16  C   UNL     1     -10.052   9.437  67.512  1.00  0.00    -0.215 C  
HETATM   17  H   UNL     1     -10.219   7.563  66.963  1.00  0.00     0.000 HD 
HETATM   18  O   UNL     1     -10.817   8.285  67.111  1.00  0.00    -0.244 OA 
BRANCH  16  19
HETATM   19  C   UNL     1      -9.203   9.096  68.742  1.00  0.00    -0.136 C  
BRANCH  19  20
HETATM   20  O   UNL     1      -8.371  10.227  69.035  1.00  0.00    -0.127 OA 
HETATM   21  S   UNL     1      -7.050   9.943  69.940  1.00  0.00    -0.135 S  
HETATM   22  C   UNL     1      -6.428  11.608  69.970  1.00  0.00    -0.039 C  
HETATM   23  O   UNL     1      -6.139   9.115  69.177  1.00  0.00    -0.041 OA 
HETATM   24  O   UNL     1      -7.482   9.585  71.276  1.00  0.00    -0.332 OA 
ENDBRANCH  19  20
ENDBRANCH  16  19
ENDBRANCH  13  16
ENDBRANCH  10  13
ENDBRANCH   7  10
ENDBRANCH   6   7
ENDBRANCH   3   6
TORSDOF 7
ENDMDL
MODEL      285
REMARK 921   NORMALIZED FREE ENERGY PREDICTED BY IDOCK:   -3.15 KCAL/MOL
REMARK 922        TOTAL FREE ENERGY PREDICTED BY IDOCK:   -5.68 KCAL/MOL
REMARK 923 INTER-LIGAND FREE ENERGY PREDICTED BY IDOCK:   -4.70 KCAL/MOL
REMARK 924 INTRA-LIGAND FREE ENERGY PREDICTED BY IDOCK:   -0.97 KCAL/MOL
REMARK 927      BINDING AFFINITY PREDICTED BY RF-SCORE:    0.00 PKD
ROOT
HETATM    1  C   UNL     1      -6.085  15.025  68.390  1.00  0.00    -0.105 C  
HETATM    2  S   UNL     1      -7.032  16.364  67.713  1.00  0.00    -0.150 S  
HETATM    3  O   UNL     1      -8.515  15.957  68.281  1.00  0.00    -0.164 OA 
HETATM    4  O   UNL     1      -6.620  17.591  68.359  1.00  0.00    -0.178 OA 
HETATM    5  O   UNL     1      -7.055  16.227  66.270  1.00  0.00    -0.074 OA 
ENDROOT
BRANCH   3   6
HETATM    6  C   UNL     1      -9.550  16.877  67.919  1.00  0.00    -0.244 C  
BRANCH   6   7
HETATM    7  C   UNL     1     -10.456  16.320  66.817  1.00  0.00    -0.287 C  
HETATM    8  O   UNL     1      -9.823  16.505  65.535  1.00  0.00    -0.537 OA 
HETATM    9  H   UNL     1     -10.385  16.159  64.851  1.00  0.00     0.000 HD 
BRANCH   7  10
HETATM   10  C   UNL     1     -10.700  14.804  66.977  1.00  0.00    -0.300 C  
HETATM   11  H   UNL     1     -12.187  13.558  66.615  1.00  0.00     0.000 HD 
HETATM   12  O   UNL     1     -12.036  14.491  66.516  1.00  0.00    -0.396 OA 
BRANCH  10  13
HETATM   13  C   UNL     1      -9.742  13.874  66.208  1.00  0.00    -0.289 C  
HETATM   14  O   UNL     1     -10.457  13.409  65.045  1.00  0.00    -0.327 OA 
HETATM   15  H   UNL     1      -9.867  12.836  64.571  1.00  0.00     0.000 HD 
BRANCH  13  16
HETATM   16  C   UNL     1      -9.207  12.667  66.999  1.00  0.00    -0.212 C  
HETATM   17  H   UNL     1      -8.597  10.857  66.560  1.00  0.00     0.000 HD 
HETATM   18  O   UNL     1      -8.928  11.602  66.072  1.00  0.00    -0.205 OA 
BRANCH  16  19
HETATM   19  C   UNL     1     -10.175  12.177  68.081  1.00  0.00    -0.203 C  
BRANCH  19  20
HETATM   20  O   UNL     1     -10.302  10.754  67.953  1.00  0.00    -0.172 OA 
HETATM   21  S   UNL     1      -9.984   9.873  69.282  1.00  0.00    -0.221 S  
HETATM   22  C   UNL     1     -10.299   8.272  68.579  1.00  0.00    -0.199 C  
HETATM   23  O   UNL     1     -10.998  10.158  70.276  1.00  0.00    -0.278 OA 
HETATM   24  O   UNL     1      -8.568   9.982  69.571  1.00  0.00    -0.162 OA 
ENDBRANCH  19  20
ENDBRANCH  16  19
ENDBRANCH  13  16
ENDBRANCH  10  13
ENDBRANCH   7  10
ENDBRANCH   6   7
ENDBRANCH   3   6
TORSDOF 7
ENDMDL
MODEL      286
REMARK 921   NORMALIZED FREE ENERGY PREDICTED BY IDOCK:   -3.14 KCAL/MOL
REMARK 922        TOTAL FREE ENERGY PREDICTED BY IDOCK:   -5.67 KCAL/MOL
REMARK 923 INTER-LIGAND FREE ENERGY PREDICTED BY IDOCK:   -4.81 KCAL/MOL
REMARK 924 INTRA-LIGAND FREE ENERGY PREDICTED BY IDOCK:   -0.87 KCAL/MOL
REMARK 927      BINDING AFFINITY PREDICTED BY RF-SCORE:    0.00 PKD
ROOT
HETATM    1  C   UNL     1      -9.867   4.414  70.036  1.00  0.00    -0.223 C  
HETATM    2  S   UNL     1      -9.897   5.207  71.623  1.00  0.00    -0.180 S  
HETATM    3  O   UNL     1     -11.174   6.210  71.397  1.00  0.00    -0.279 OA 
HETATM    4  O   UNL     1     -10.262   4.224  72.620  1.00  0.00    -0.161 OA 
HETATM    5  O   UNL     1      -8.706   6.023  71.751  1.00  0.00    -0.137 OA 
ENDROOT
BRANCH   3   6
HETATM    6  C   UNL     1     -11.494   7.012  72.539  1.00  0.00    -0.237 C  
BRANCH   6   7
HETATM    7  C   UNL     1     -11.134   8.485  72.327  1.00  0.00    -0.360 C  
HETATM    8  O   UNL     1      -9.712   8.660  72.483  1.00  0.00    -0.276 OA 
HETATM    9  H   UNL     1      -9.489   9.575  72.352  1.00  0.00     0.000 HD 
BRANCH   7  10
HETATM   10  C   UNL     1     -11.488   8.971  70.905  1.00  0.00    -0.291 C  
HETATM   11  H   UNL     1     -12.647  10.366  70.127  1.00  0.00     0.000 HD 
HETATM   12  O   UNL     1     -12.429  10.067  71.003  1.00  0.00    -0.316 OA 
BRANCH  10  13
HETATM   13  C   UNL     1     -10.314   9.475  70.045  1.00  0.00    -0.247 C  
HETATM   14  O   UNL     1     -10.524  10.888  69.842  1.00  0.00    -0.446 OA 
HETATM   15  H   UNL     1      -9.800  11.199  69.311  1.00  0.00     0.000 HD 
BRANCH  13  16
HETATM   16  C   UNL     1     -10.138   8.780  68.684  1.00  0.00    -0.189 C  
HETATM   17  H   UNL     1      -8.647   7.982  67.694  1.00  0.00     0.000 HD 
HETATM   18  O   UNL     1      -8.755   8.411  68.534  1.00  0.00    -0.135 OA 
BRANCH  16  19
HETATM   19  C   UNL     1     -10.576   9.651  67.500  1.00  0.00    -0.277 C  
BRANCH  19  20
HETATM   20  O   UNL     1      -9.766   9.304  66.369  1.00  0.00    -0.214 OA 
HETATM   21  S   UNL     1      -9.479  10.487  65.290  1.00  0.00    -0.253 S  
HETATM   22  C   UNL     1      -8.469   9.542  64.174  1.00  0.00    -0.186 C  
HETATM   23  O   UNL     1      -8.659  11.499  65.924  1.00  0.00    -0.116 OA 
HETATM   24  O   UNL     1     -10.726  10.809  64.627  1.00  0.00    -0.284 OA 
ENDBRANCH  19  20
ENDBRANCH  16  19
ENDBRANCH  13  16
ENDBRANCH  10  13
ENDBRANCH   7  10
ENDBRANCH   6   7
ENDBRANCH   3   6
TORSDOF 7
ENDMDL
MODEL      287
REMARK 921   NORMALIZED FREE ENERGY PREDICTED BY IDOCK:   -3.14 KCAL/MOL
REMARK 922        TOTAL FREE ENERGY PREDICTED BY IDOCK:   -5.67 KCAL/MOL
REMARK 923 INTER-LIGAND FREE ENERGY PREDICTED BY IDOCK:   -5.06 KCAL/MOL
REMARK 924 INTRA-LIGAND FREE ENERGY PREDICTED BY IDOCK:   -0.61 KCAL/MOL
REMARK 927      BINDING AFFINITY PREDICTED BY RF-SCORE:    0.00 PKD
ROOT
HETATM    1  C   UNL     1     -12.262  15.075  70.276  1.00  0.00    -0.340 C  
HETATM    2  S   UNL     1     -12.835  13.899  71.475  1.00  0.00    -0.362 S  
HETATM    3  O   UNL     1     -12.349  12.514  70.746  1.00  0.00    -0.377 OA 
HETATM    4  O   UNL     1     -12.064  14.069  72.688  1.00  0.00     0.159 OA 
HETATM    5  O   UNL     1     -14.284  13.916  71.479  1.00  0.00    -0.250 OA 
ENDROOT
BRANCH   3   6
HETATM    6  C   UNL     1     -12.649  11.328  71.488  1.00  0.00    -0.312 C  
BRANCH   6   7
HETATM    7  C   UNL     1     -12.755  10.095  70.586  1.00  0.00    -0.255 C  
HETATM    8  O   UNL     1     -12.546  10.484  69.214  1.00  0.00    -0.726 OA 
HETATM    9  H   UNL     1     -12.611   9.718  68.654  1.00  0.00     0.000 HD 
BRANCH   7  10
HETATM   10  C   UNL     1     -11.678   9.039  70.918  1.00  0.00    -0.276 C  
HETATM   11  H   UNL     1     -10.529   8.619  72.465  1.00  0.00     0.000 HD 
HETATM   12  O   UNL     1     -11.192   9.269  72.261  1.00  0.00    -0.156 OA 
BRANCH  10  13
HETATM   13  C   UNL     1     -12.127   7.567  70.858  1.00  0.00    -0.226 C  
HETATM   14  O   UNL     1     -12.695   7.253  72.147  1.00  0.00    -0.484 OA 
HETATM   15  H   UNL     1     -12.971   6.345  72.111  1.00  0.00     0.000 HD 
BRANCH  13  16
HETATM   16  C   UNL     1     -11.024   6.547  70.521  1.00  0.00    -0.294 C  
HETATM   17  H   UNL     1     -10.723   5.214  69.117  1.00  0.00     0.000 HD 
HETATM   18  O   UNL     1     -11.404   5.843  69.325  1.00  0.00    -0.325 OA 
BRANCH  16  19
HETATM   19  C   UNL     1     -10.759   5.548  71.653  1.00  0.00    -0.231 C  
BRANCH  19  20
HETATM   20  O   UNL     1     -10.006   6.219  72.672  1.00  0.00    -0.171 OA 
HETATM   21  S   UNL     1      -8.387   6.095  72.581  1.00  0.00    -0.121 S  
HETATM   22  C   UNL     1      -7.999   7.079  74.010  1.00  0.00    -0.110 C  
HETATM   23  O   UNL     1      -7.939   6.794  71.394  1.00  0.00    -0.107 OA 
HETATM   24  O   UNL     1      -8.021   4.720  72.851  1.00  0.00    -0.095 OA 
ENDBRANCH  19  20
ENDBRANCH  16  19
ENDBRANCH  13  16
ENDBRANCH  10  13
ENDBRANCH   7  10
ENDBRANCH   6   7
ENDBRANCH   3   6
TORSDOF 7
ENDMDL
MODEL      288
REMARK 921   NORMALIZED FREE ENERGY PREDICTED BY IDOCK:   -3.12 KCAL/MOL
REMARK 922        TOTAL FREE ENERGY PREDICTED BY IDOCK:   -5.64 KCAL/MOL
REMARK 923 INTER-LIGAND FREE ENERGY PREDICTED BY IDOCK:   -5.45 KCAL/MOL
REMARK 924 INTRA-LIGAND FREE ENERGY PREDICTED BY IDOCK:   -0.19 KCAL/MOL
REMARK 927      BINDING AFFINITY PREDICTED BY RF-SCORE:    0.00 PKD
ROOT
HETATM    1  C   UNL     1      -7.842  17.804  68.073  1.00  0.00    -0.241 C  
HETATM    2  S   UNL     1      -7.734  16.308  67.124  1.00  0.00    -0.211 S  
HETATM    3  O   UNL     1      -8.228  15.234  68.260  1.00  0.00    -0.136 OA 
HETATM    4  O   UNL     1      -8.734  16.355  66.079  1.00  0.00    -0.366 OA 
HETATM    5  O   UNL     1      -6.338  16.045  66.838  1.00  0.00    -0.306 OA 
ENDROOT
BRANCH   3   6
HETATM    6  C   UNL     1      -8.278  13.880  67.799  1.00  0.00    -0.173 C  
BRANCH   6   7
HETATM    7  C   UNL     1      -9.698  13.308  67.844  1.00  0.00    -0.224 C  
HETATM    8  O   UNL     1     -10.617  14.255  67.266  1.00  0.00    -0.274 OA 
HETATM    9  H   UNL     1     -11.498  13.899  67.294  1.00  0.00     0.000 HD 
BRANCH   7  10
HETATM   10  C   UNL     1      -9.825  12.006  67.024  1.00  0.00    -0.194 C  
HETATM   11  H   UNL     1      -8.833  10.306  66.892  1.00  0.00     0.000 HD 
HETATM   12  O   UNL     1      -8.755  11.107  67.397  1.00  0.00    -0.131 OA 
BRANCH  10  13
HETATM   13  C   UNL     1     -11.139  11.220  67.193  1.00  0.00    -0.301 C  
HETATM   14  O   UNL     1     -12.155  11.948  66.472  1.00  0.00    -0.568 OA 
HETATM   15  H   UNL     1     -12.965  11.463  66.577  1.00  0.00     0.000 HD 
BRANCH  13  16
HETATM   16  C   UNL     1     -11.599  10.997  68.645  1.00  0.00    -0.316 C  
HETATM   17  H   UNL     1     -12.307  12.123  70.084  1.00  0.00     0.000 HD 
HETATM   18  O   UNL     1     -12.023  12.261  69.189  1.00  0.00    -0.297 OA 
BRANCH  16  19
HETATM   19  C   UNL     1     -10.513  10.384  69.535  1.00  0.00    -0.247 C  
BRANCH  19  20
HETATM   20  O   UNL     1     -10.891   9.032  69.831  1.00  0.00    -0.228 OA 
HETATM   21  S   UNL     1     -10.993   8.633  71.405  1.00  0.00    -0.297 S  
HETATM   22  C   UNL     1     -11.484   6.940  71.182  1.00  0.00    -0.304 C  
HETATM   23  O   UNL     1     -12.092   9.368  71.995  1.00  0.00    -0.362 OA 
HETATM   24  O   UNL     1      -9.658   8.658  71.967  1.00  0.00    -0.271 OA 
ENDBRANCH  19  20
ENDBRANCH  16  19
ENDBRANCH  13  16
ENDBRANCH  10  13
ENDBRANCH   7  10
ENDBRANCH   6   7
ENDBRANCH   3   6
TORSDOF 7
ENDMDL
MODEL      289
REMARK 921   NORMALIZED FREE ENERGY PREDICTED BY IDOCK:   -3.11 KCAL/MOL
REMARK 922        TOTAL FREE ENERGY PREDICTED BY IDOCK:   -5.63 KCAL/MOL
REMARK 923 INTER-LIGAND FREE ENERGY PREDICTED BY IDOCK:   -5.80 KCAL/MOL
REMARK 924 INTRA-LIGAND FREE ENERGY PREDICTED BY IDOCK:    0.17 KCAL/MOL
REMARK 927      BINDING AFFINITY PREDICTED BY RF-SCORE:    0.00 PKD
ROOT
HETATM    1  C   UNL     1     -10.283  11.408  66.391  1.00  0.00    -0.230 C  
HETATM    2  S   UNL     1     -11.518  12.293  67.309  1.00  0.00    -0.362 S  
HETATM    3  O   UNL     1     -10.545  13.124  68.334  1.00  0.00    -0.239 OA 
HETATM    4  O   UNL     1     -12.158  13.240  66.422  1.00  0.00    -0.403 OA 
HETATM    5  O   UNL     1     -12.279  11.340  68.092  1.00  0.00    -0.622 OA 
ENDROOT
BRANCH   3   6
HETATM    6  C   UNL     1     -11.248  13.986  69.234  1.00  0.00    -0.261 C  
BRANCH   6   7
HETATM    7  C   UNL     1     -11.267  15.438  68.746  1.00  0.00    -0.301 C  
HETATM    8  O   UNL     1     -12.470  16.084  69.206  1.00  0.00    -0.398 OA 
HETATM    9  H   UNL     1     -12.481  16.985  68.903  1.00  0.00     0.000 HD 
BRANCH   7  10
HETATM   10  C   UNL     1     -10.082  16.254  69.306  1.00  0.00    -0.267 C  
HETATM   11  H   UNL     1      -8.177  15.912  69.692  1.00  0.00     0.000 HD 
HETATM   12  O   UNL     1      -8.907  15.410  69.348  1.00  0.00    -0.245 OA 
BRANCH  10  13
HETATM   13  C   UNL     1      -9.689  17.516  68.513  1.00  0.00    -0.319 C  
HETATM   14  O   UNL     1     -10.658  18.532  68.844  1.00  0.00    -0.382 OA 
HETATM   15  H   UNL     1     -10.416  19.310  68.356  1.00  0.00     0.000 HD 
BRANCH  13  16
HETATM   16  C   UNL     1      -9.621  17.348  66.985  1.00  0.00    -0.273 C  
HETATM   17  H   UNL     1      -9.877  15.875  65.719  1.00  0.00     0.000 HD 
HETATM   18  O   UNL     1      -9.919  15.977  66.662  1.00  0.00    -0.247 OA 
BRANCH  16  19
HETATM   19  C   UNL     1      -8.262  17.740  66.395  1.00  0.00    -0.255 C  
BRANCH  19  20
HETATM   20  O   UNL     1      -7.270  17.580  67.418  1.00  0.00    -0.164 OA 
HETATM   21  S   UNL     1      -6.017  16.602  67.071  1.00  0.00    -0.112 S  
HETATM   22  C   UNL     1      -5.147  16.786  68.610  1.00  0.00    -0.122 C  
HETATM   23  O   UNL     1      -5.236  17.213  66.014  1.00  0.00    -0.344 OA 
HETATM   24  O   UNL     1      -6.513  15.245  66.978  1.00  0.00    -0.250 OA 
ENDBRANCH  19  20
ENDBRANCH  16  19
ENDBRANCH  13  16
ENDBRANCH  10  13
ENDBRANCH   7  10
ENDBRANCH   6   7
ENDBRANCH   3   6
TORSDOF 7
ENDMDL
MODEL      290
REMARK 921   NORMALIZED FREE ENERGY PREDICTED BY IDOCK:   -3.11 KCAL/MOL
REMARK 922        TOTAL FREE ENERGY PREDICTED BY IDOCK:   -5.62 KCAL/MOL
REMARK 923 INTER-LIGAND FREE ENERGY PREDICTED BY IDOCK:   -4.84 KCAL/MOL
REMARK 924 INTRA-LIGAND FREE ENERGY PREDICTED BY IDOCK:   -0.78 KCAL/MOL
REMARK 927      BINDING AFFINITY PREDICTED BY RF-SCORE:    0.00 PKD
ROOT
HETATM    1  C   UNL     1      -6.490  19.411  67.418  1.00  0.00    -0.195 C  
HETATM    2  S   UNL     1      -7.750  18.889  66.283  1.00  0.00    -0.261 S  
HETATM    3  O   UNL     1      -8.129  17.441  66.952  1.00  0.00    -0.204 OA 
HETATM    4  O   UNL     1      -8.891  19.767  66.429  1.00  0.00    -0.350 OA 
HETATM    5  O   UNL     1      -7.135  18.639  64.996  1.00  0.00    -0.403 OA 
ENDROOT
BRANCH   3   6
HETATM    6  C   UNL     1      -9.169  16.736  66.266  1.00  0.00    -0.279 C  
BRANCH   6   7
HETATM    7  C   UNL     1      -9.742  15.593  67.108  1.00  0.00    -0.223 C  
HETATM    8  O   UNL     1      -8.663  14.850  67.709  1.00  0.00    -0.158 OA 
HETATM    9  H   UNL     1      -9.019  14.140  68.232  1.00  0.00     0.000 HD 
BRANCH   7  10
HETATM   10  C   UNL     1     -10.624  16.110  68.266  1.00  0.00    -0.288 C  
HETATM   11  H   UNL     1     -11.494  17.817  68.736  1.00  0.00     0.000 HD 
HETATM   12  O   UNL     1     -10.951  17.499  68.023  1.00  0.00    -0.328 OA 
BRANCH  10  13
HETATM   13  C   UNL     1     -11.960  15.375  68.485  1.00  0.00    -0.181 C  
HETATM   14  O   UNL     1     -12.754  16.207  69.356  1.00  0.00    -0.417 OA 
HETATM   15  H   UNL     1     -13.577  15.754  69.491  1.00  0.00     0.000 HD 
BRANCH  13  16
HETATM   16  C   UNL     1     -11.852  13.961  69.083  1.00  0.00    -0.358 C  
HETATM   17  H   UNL     1     -10.727  13.085  70.428  1.00  0.00     0.000 HD 
HETATM   18  O   UNL     1     -10.793  13.958  70.058  1.00  0.00     0.128 OA 
BRANCH  16  19
HETATM   19  C   UNL     1     -11.595  12.878  68.030  1.00  0.00    -0.342 C  
BRANCH  19  20
HETATM   20  O   UNL     1     -10.293  12.326  68.268  1.00  0.00    -0.209 OA 
HETATM   21  S   UNL     1     -10.190  10.704  68.330  1.00  0.00    -0.175 S  
HETATM   22  C   UNL     1      -8.440  10.594  68.617  1.00  0.00    -0.142 C  
HETATM   23  O   UNL     1     -10.484  10.174  67.014  1.00  0.00    -0.232 OA 
HETATM   24  O   UNL     1     -10.884  10.250  69.517  1.00  0.00    -0.222 OA 
ENDBRANCH  19  20
ENDBRANCH  16  19
ENDBRANCH  13  16
ENDBRANCH  10  13
ENDBRANCH   7  10
ENDBRANCH   6   7
ENDBRANCH   3   6
TORSDOF 7
ENDMDL
MODEL      291
REMARK 921   NORMALIZED FREE ENERGY PREDICTED BY IDOCK:   -3.11 KCAL/MOL
REMARK 922        TOTAL FREE ENERGY PREDICTED BY IDOCK:   -5.62 KCAL/MOL
REMARK 923 INTER-LIGAND FREE ENERGY PREDICTED BY IDOCK:   -4.88 KCAL/MOL
REMARK 924 INTRA-LIGAND FREE ENERGY PREDICTED BY IDOCK:   -0.74 KCAL/MOL
REMARK 927      BINDING AFFINITY PREDICTED BY RF-SCORE:    0.00 PKD
ROOT
HETATM    1  C   UNL     1      -5.541  19.548  66.657  1.00  0.00    -0.165 C  
HETATM    2  S   UNL     1      -7.277  19.895  66.773  1.00  0.00    -0.242 S  
HETATM    3  O   UNL     1      -7.713  18.729  67.838  1.00  0.00    -0.248 OA 
HETATM    4  O   UNL     1      -7.447  21.182  67.414  1.00  0.00    -0.406 OA 
HETATM    5  O   UNL     1      -7.894  19.587  65.498  1.00  0.00    -0.402 OA 
ENDROOT
BRANCH   3   6
HETATM    6  C   UNL     1      -9.103  18.740  68.179  1.00  0.00    -0.307 C  
BRANCH   6   7
HETATM    7  C   UNL     1      -9.558  17.411  68.789  1.00  0.00    -0.267 C  
HETATM    8  O   UNL     1     -10.710  17.635  69.626  1.00  0.00    -0.298 OA 
HETATM    9  H   UNL     1     -10.992  16.809  70.004  1.00  0.00     0.000 HD 
BRANCH   7  10
HETATM   10  C   UNL     1      -9.984  16.392  67.710  1.00  0.00    -0.248 C  
HETATM   11  H   UNL     1     -10.874  16.473  65.951  1.00  0.00     0.000 HD 
HETATM   12  O   UNL     1     -10.612  17.101  66.615  1.00  0.00    -0.277 OA 
BRANCH  10  13
HETATM   13  C   UNL     1      -8.857  15.541  67.094  1.00  0.00    -0.212 C  
HETATM   14  O   UNL     1      -8.269  16.331  66.039  1.00  0.00    -0.263 OA 
HETATM   15  H   UNL     1      -7.575  15.806  65.659  1.00  0.00     0.000 HD 
BRANCH  13  16
HETATM   16  C   UNL     1      -9.285  14.173  66.534  1.00  0.00    -0.224 C  
HETATM   17  H   UNL     1     -10.841  12.998  66.730  1.00  0.00     0.000 HD 
HETATM   18  O   UNL     1     -10.577  13.842  67.076  1.00  0.00    -0.275 OA 
BRANCH  16  19
HETATM   19  C   UNL     1      -8.287  13.053  66.846  1.00  0.00    -0.022 C  
BRANCH  19  20
HETATM   20  O   UNL     1      -9.000  11.809  66.854  1.00  0.00    -0.182 OA 
HETATM   21  S   UNL     1      -8.939  10.927  65.489  1.00  0.00    -0.186 S  
HETATM   22  C   UNL     1      -9.933   9.564  66.049  1.00  0.00    -0.278 C  
HETATM   23  O   UNL     1      -7.578  10.469  65.298  1.00  0.00    -0.141 OA 
HETATM   24  O   UNL     1      -9.666  11.637  64.456  1.00  0.00    -0.236 OA 
ENDBRANCH  19  20
ENDBRANCH  16  19
ENDBRANCH  13  16
ENDBRANCH  10  13
ENDBRANCH   7  10
ENDBRANCH   6   7
ENDBRANCH   3   6
TORSDOF 7
ENDMDL
MODEL      292
REMARK 921   NORMALIZED FREE ENERGY PREDICTED BY IDOCK:   -3.10 KCAL/MOL
REMARK 922        TOTAL FREE ENERGY PREDICTED BY IDOCK:   -5.61 KCAL/MOL
REMARK 923 INTER-LIGAND FREE ENERGY PREDICTED BY IDOCK:   -4.67 KCAL/MOL
REMARK 924 INTRA-LIGAND FREE ENERGY PREDICTED BY IDOCK:   -0.94 KCAL/MOL
REMARK 927      BINDING AFFINITY PREDICTED BY RF-SCORE:    0.00 PKD
ROOT
HETATM    1  C   UNL     1     -11.690  12.772  67.733  1.00  0.00    -0.359 C  
HETATM    2  S   UNL     1     -10.120  11.959  67.885  1.00  0.00    -0.198 S  
HETATM    3  O   UNL     1     -10.103  11.142  66.464  1.00  0.00    -0.210 OA 
HETATM    4  O   UNL     1      -9.078  12.963  67.844  1.00  0.00    -0.184 OA 
HETATM    5  O   UNL     1     -10.207  10.989  68.957  1.00  0.00    -0.210 OA 
ENDROOT
BRANCH   3   6
HETATM    6  C   UNL     1      -8.918  10.369  66.251  1.00  0.00    -0.155 C  
BRANCH   6   7
HETATM    7  C   UNL     1      -9.230   8.887  66.021  1.00  0.00    -0.228 C  
HETATM    8  O   UNL     1      -8.805   8.505  64.698  1.00  0.00    -0.405 OA 
HETATM    9  H   UNL     1      -8.999   7.586  64.556  1.00  0.00     0.000 HD 
BRANCH   7  10
HETATM   10  C   UNL     1      -8.474   7.974  67.011  1.00  0.00    -0.120 C  
HETATM   11  H   UNL     1      -6.845   8.116  68.114  1.00  0.00     0.000 HD 
HETATM   12  O   UNL     1      -7.310   8.678  67.505  1.00  0.00    -0.086 OA 
BRANCH  10  13
HETATM   13  C   UNL     1      -9.265   7.508  68.248  1.00  0.00    -0.138 C  
HETATM   14  O   UNL     1      -8.316   7.394  69.329  1.00  0.00    -0.129 OA 
HETATM   15  H   UNL     1      -8.803   7.106  70.091  1.00  0.00     0.000 HD 
BRANCH  13  16
HETATM   16  C   UNL     1     -10.026   6.180  68.091  1.00  0.00    -0.142 C  
HETATM   17  H   UNL     1     -11.749   5.628  67.338  1.00  0.00     0.000 HD 
HETATM   18  O   UNL     1     -11.280   6.448  67.435  1.00  0.00    -0.352 OA 
BRANCH  16  19
HETATM   19  C   UNL     1     -10.277   5.466  69.423  1.00  0.00    -0.264 C  
BRANCH  19  20
HETATM   20  O   UNL     1     -11.491   5.984  69.984  1.00  0.00    -0.372 OA 
HETATM   21  S   UNL     1     -11.378   6.673  71.453  1.00  0.00    -0.305 S  
HETATM   22  C   UNL     1     -13.088   7.122  71.631  1.00  0.00    -0.361 C  
HETATM   23  O   UNL     1     -10.584   7.879  71.336  1.00  0.00    -0.209 OA 
HETATM   24  O   UNL     1     -11.068   5.637  72.418  1.00  0.00    -0.248 OA 
ENDBRANCH  19  20
ENDBRANCH  16  19
ENDBRANCH  13  16
ENDBRANCH  10  13
ENDBRANCH   7  10
ENDBRANCH   6   7
ENDBRANCH   3   6
TORSDOF 7
ENDMDL
MODEL      293
REMARK 921   NORMALIZED FREE ENERGY PREDICTED BY IDOCK:   -3.10 KCAL/MOL
REMARK 922        TOTAL FREE ENERGY PREDICTED BY IDOCK:   -5.61 KCAL/MOL
REMARK 923 INTER-LIGAND FREE ENERGY PREDICTED BY IDOCK:   -5.13 KCAL/MOL
REMARK 924 INTRA-LIGAND FREE ENERGY PREDICTED BY IDOCK:   -0.48 KCAL/MOL
REMARK 927      BINDING AFFINITY PREDICTED BY RF-SCORE:    0.00 PKD
ROOT
HETATM    1  C   UNL     1      -9.267  12.098  67.652  1.00  0.00    -0.181 C  
HETATM    2  S   UNL     1     -10.999  12.056  68.034  1.00  0.00    -0.240 S  
HETATM    3  O   UNL     1     -10.950  11.155  69.403  1.00  0.00    -0.238 OA 
HETATM    4  O   UNL     1     -11.424  13.394  68.386  1.00  0.00    -0.273 OA 
HETATM    5  O   UNL     1     -11.676  11.280  67.014  1.00  0.00    -0.503 OA 
ENDROOT
BRANCH   3   6
HETATM    6  C   UNL     1     -12.230  10.940  70.005  1.00  0.00    -0.347 C  
BRANCH   6   7
HETATM    7  C   UNL     1     -12.157   9.958  71.179  1.00  0.00    -0.374 C  
HETATM    8  O   UNL     1     -13.252  10.206  72.082  1.00  0.00    -0.469 OA 
HETATM    9  H   UNL     1     -13.207   9.596  72.810  1.00  0.00     0.000 HD 
BRANCH   7  10
HETATM   10  C   UNL     1     -12.286   8.491  70.717  1.00  0.00    -0.007 C  
HETATM   11  H   UNL     1     -11.328   7.307  69.462  1.00  0.00     0.000 HD 
HETATM   12  O   UNL     1     -11.249   8.210  69.747  1.00  0.00    -0.129 OA 
BRANCH  10  13
HETATM   13  C   UNL     1     -12.163   7.417  71.815  1.00  0.00    -0.326 C  
HETATM   14  O   UNL     1     -12.329   8.094  73.078  1.00  0.00    -0.666 OA 
HETATM   15  H   UNL     1     -12.253   7.433  73.755  1.00  0.00     0.000 HD 
BRANCH  13  16
HETATM   16  C   UNL     1     -10.844   6.625  71.827  1.00  0.00    -0.233 C  
HETATM   17  H   UNL     1     -10.301   4.804  72.309  1.00  0.00     0.000 HD 
HETATM   18  O   UNL     1     -11.115   5.293  72.302  1.00  0.00    -0.221 OA 
BRANCH  16  19
HETATM   19  C   UNL     1      -9.757   7.274  72.690  1.00  0.00    -0.159 C  
BRANCH  19  20
HETATM   20  O   UNL     1      -8.510   7.172  71.988  1.00  0.00    -0.108 OA 
HETATM   21  S   UNL     1      -7.697   8.559  71.743  1.00  0.00    -0.093 S  
HETATM   22  C   UNL     1      -6.303   7.862  70.890  1.00  0.00    -0.037 C  
HETATM   23  O   UNL     1      -7.256   9.066  73.027  1.00  0.00    -0.326 OA 
HETATM   24  O   UNL     1      -8.453   9.370  70.812  1.00  0.00    -0.200 OA 
ENDBRANCH  19  20
ENDBRANCH  16  19
ENDBRANCH  13  16
ENDBRANCH  10  13
ENDBRANCH   7  10
ENDBRANCH   6   7
ENDBRANCH   3   6
TORSDOF 7
ENDMDL
MODEL      294
REMARK 921   NORMALIZED FREE ENERGY PREDICTED BY IDOCK:   -3.08 KCAL/MOL
REMARK 922        TOTAL FREE ENERGY PREDICTED BY IDOCK:   -5.59 KCAL/MOL
REMARK 923 INTER-LIGAND FREE ENERGY PREDICTED BY IDOCK:   -4.46 KCAL/MOL
REMARK 924 INTRA-LIGAND FREE ENERGY PREDICTED BY IDOCK:   -1.13 KCAL/MOL
REMARK 927      BINDING AFFINITY PREDICTED BY RF-SCORE:    0.00 PKD
ROOT
HETATM    1  C   UNL     1     -12.225  13.308  63.797  1.00  0.00    -0.439 C  
HETATM    2  S   UNL     1     -10.535  13.408  64.330  1.00  0.00    -0.144 S  
HETATM    3  O   UNL     1     -10.613  12.441  65.651  1.00  0.00    -0.253 OA 
HETATM    4  O   UNL     1      -9.703  12.758  63.340  1.00  0.00    -0.031 OA 
HETATM    5  O   UNL     1     -10.275  14.760  64.782  1.00  0.00    -0.349 OA 
ENDROOT
BRANCH   3   6
HETATM    6  C   UNL     1      -9.364  12.283  66.332  1.00  0.00    -0.219 C  
BRANCH   6   7
HETATM    7  C   UNL     1      -9.431  12.778  67.780  1.00  0.00    -0.205 C  
HETATM    8  O   UNL     1      -9.205  11.673  68.677  1.00  0.00    -0.281 OA 
HETATM    9  H   UNL     1      -9.246  11.980  69.576  1.00  0.00     0.000 HD 
BRANCH   7  10
HETATM   10  C   UNL     1      -8.341  13.828  68.085  1.00  0.00    -0.165 C  
HETATM   11  H   UNL     1      -6.713  14.488  67.188  1.00  0.00     0.000 HD 
HETATM   12  O   UNL     1      -7.384  13.842  67.000  1.00  0.00     0.049 OA 
BRANCH  10  13
HETATM   13  C   UNL     1      -8.825  15.280  68.263  1.00  0.00    -0.171 C  
HETATM   14  O   UNL     1     -10.144  15.353  67.682  1.00  0.00    -0.233 OA 
HETATM   15  H   UNL     1     -10.442  16.248  67.791  1.00  0.00     0.000 HD 
BRANCH  13  16
HETATM   16  C   UNL     1      -7.928  16.363  67.638  1.00  0.00    -0.149 C  
HETATM   17  H   UNL     1      -6.905  17.897  68.301  1.00  0.00     0.000 HD 
HETATM   18  O   UNL     1      -7.459  17.230  68.687  1.00  0.00    -0.230 OA 
BRANCH  16  19
HETATM   19  C   UNL     1      -8.639  17.187  66.559  1.00  0.00    -0.271 C  
BRANCH  19  20
HETATM   20  O   UNL     1      -9.199  18.349  67.184  1.00  0.00    -0.257 OA 
HETATM   21  S   UNL     1      -9.420  19.652  66.235  1.00  0.00    -0.385 S  
HETATM   22  C   UNL     1     -10.115  20.723  67.471  1.00  0.00    -0.091 C  
HETATM   23  O   UNL     1     -10.440  19.339  65.256  1.00  0.00    -0.342 OA 
HETATM   24  O   UNL     1      -8.119  20.163  65.857  1.00  0.00    -0.290 OA 
ENDBRANCH  19  20
ENDBRANCH  16  19
ENDBRANCH  13  16
ENDBRANCH  10  13
ENDBRANCH   7  10
ENDBRANCH   6   7
ENDBRANCH   3   6
TORSDOF 7
ENDMDL
MODEL      295
REMARK 921   NORMALIZED FREE ENERGY PREDICTED BY IDOCK:   -3.08 KCAL/MOL
REMARK 922        TOTAL FREE ENERGY PREDICTED BY IDOCK:   -5.58 KCAL/MOL
REMARK 923 INTER-LIGAND FREE ENERGY PREDICTED BY IDOCK:   -4.99 KCAL/MOL
REMARK 924 INTRA-LIGAND FREE ENERGY PREDICTED BY IDOCK:   -0.60 KCAL/MOL
REMARK 927      BINDING AFFINITY PREDICTED BY RF-SCORE:    0.00 PKD
ROOT
HETATM    1  C   UNL     1      -9.078   4.723  68.440  1.00  0.00    -0.117 C  
HETATM    2  S   UNL     1      -9.856   6.199  69.042  1.00  0.00    -0.147 S  
HETATM    3  O   UNL     1      -9.212   7.287  67.998  1.00  0.00    -0.133 OA 
HETATM    4  O   UNL     1     -11.277   6.107  68.783  1.00  0.00    -0.367 OA 
HETATM    5  O   UNL     1      -9.336   6.487  70.363  1.00  0.00    -0.161 OA 
ENDROOT
BRANCH   3   6
HETATM    6  C   UNL     1      -9.666   8.629  68.201  1.00  0.00    -0.158 C  
BRANCH   6   7
HETATM    7  C   UNL     1      -8.607   9.661  67.802  1.00  0.00    -0.125 C  
HETATM    8  O   UNL     1      -7.607   9.031  66.977  1.00  0.00    -0.090 OA 
HETATM    9  H   UNL     1      -6.950   9.671  66.730  1.00  0.00     0.000 HD 
BRANCH   7  10
HETATM   10  C   UNL     1      -9.206  10.815  66.969  1.00  0.00    -0.152 C  
HETATM   11  H   UNL     1     -10.527  10.979  65.513  1.00  0.00     0.000 HD 
HETATM   12  O   UNL     1     -10.158  10.269  66.025  1.00  0.00    -0.235 OA 
BRANCH  10  13
HETATM   13  C   UNL     1      -9.949  11.910  67.758  1.00  0.00    -0.186 C  
HETATM   14  O   UNL     1      -9.330  11.976  69.060  1.00  0.00    -0.394 OA 
HETATM   15  H   UNL     1      -9.788  12.651  69.547  1.00  0.00     0.000 HD 
BRANCH  13  16
HETATM   16  C   UNL     1     -11.465  11.704  67.920  1.00  0.00    -0.311 C  
HETATM   17  H   UNL     1     -13.079  12.385  67.040  1.00  0.00     0.000 HD 
HETATM   18  O   UNL     1     -12.143  12.513  66.941  1.00  0.00    -0.537 OA 
BRANCH  16  19
HETATM   19  C   UNL     1     -11.975  12.047  69.324  1.00  0.00    -0.270 C  
BRANCH  19  20
HETATM   20  O   UNL     1     -12.729  10.929  69.809  1.00  0.00    -0.205 OA 
HETATM   21  S   UNL     1     -12.519  10.533  71.373  1.00  0.00    -0.408 S  
HETATM   22  C   UNL     1     -13.650   9.163  71.419  1.00  0.00    -0.288 C  
HETATM   23  O   UNL     1     -13.046  11.605  72.193  1.00  0.00    -0.457 OA 
HETATM   24  O   UNL     1     -11.172  10.028  71.537  1.00  0.00    -0.248 OA 
ENDBRANCH  19  20
ENDBRANCH  16  19
ENDBRANCH  13  16
ENDBRANCH  10  13
ENDBRANCH   7  10
ENDBRANCH   6   7
ENDBRANCH   3   6
TORSDOF 7
ENDMDL
MODEL      296
REMARK 921   NORMALIZED FREE ENERGY PREDICTED BY IDOCK:   -3.07 KCAL/MOL
REMARK 922        TOTAL FREE ENERGY PREDICTED BY IDOCK:   -5.57 KCAL/MOL
REMARK 923 INTER-LIGAND FREE ENERGY PREDICTED BY IDOCK:   -5.01 KCAL/MOL
REMARK 924 INTRA-LIGAND FREE ENERGY PREDICTED BY IDOCK:   -0.56 KCAL/MOL
REMARK 927      BINDING AFFINITY PREDICTED BY RF-SCORE:    0.00 PKD
ROOT
HETATM    1  C   UNL     1     -12.170  14.656  64.550  1.00  0.00    -0.456 C  
HETATM    2  S   UNL     1     -12.074  12.887  64.649  1.00  0.00    -0.445 S  
HETATM    3  O   UNL     1     -11.304  12.741  66.089  1.00  0.00    -0.299 OA 
HETATM    4  O   UNL     1     -13.415  12.363  64.796  1.00  0.00    -0.600 OA 
HETATM    5  O   UNL     1     -11.176  12.417  63.614  1.00  0.00    -0.407 OA 
ENDROOT
BRANCH   3   6
HETATM    6  C   UNL     1     -11.079  11.387  66.495  1.00  0.00    -0.251 C  
BRANCH   6   7
HETATM    7  C   UNL     1     -10.091  11.292  67.661  1.00  0.00    -0.179 C  
HETATM    8  O   UNL     1      -9.398  12.547  67.809  1.00  0.00    -0.184 OA 
HETATM    9  H   UNL     1      -8.786  12.488  68.533  1.00  0.00     0.000 HD 
BRANCH   7  10
HETATM   10  C   UNL     1     -10.802  11.016  69.003  1.00  0.00    -0.229 C  
HETATM   11  H   UNL     1     -12.657  10.679  69.586  1.00  0.00     0.000 HD 
HETATM   12  O   UNL     1     -12.219  10.849  68.759  1.00  0.00    -0.518 OA 
BRANCH  10  13
HETATM   13  C   UNL     1     -10.338   9.767  69.776  1.00  0.00    -0.246 C  
HETATM   14  O   UNL     1      -9.056  10.088  70.355  1.00  0.00    -0.353 OA 
HETATM   15  H   UNL     1      -8.770   9.318  70.831  1.00  0.00     0.000 HD 
BRANCH  13  16
HETATM   16  C   UNL     1     -10.219   8.476  68.947  1.00  0.00    -0.207 C  
HETATM   17  H   UNL     1      -9.879   6.585  69.330  1.00  0.00     0.000 HD 
HETATM   18  O   UNL     1      -9.953   7.381  69.842  1.00  0.00    -0.185 OA 
BRANCH  16  19
HETATM   19  C   UNL     1      -9.128   8.548  67.872  1.00  0.00    -0.140 C  
BRANCH  19  20
HETATM   20  O   UNL     1      -7.880   8.188  68.480  1.00  0.00    -0.113 OA 
HETATM   21  S   UNL     1      -6.589   9.092  68.078  1.00  0.00    -0.061 S  
HETATM   22  C   UNL     1      -5.393   8.245  69.085  1.00  0.00    -0.031 C  
HETATM   23  O   UNL     1      -6.782  10.428  68.602  1.00  0.00    -0.052 OA 
HETATM   24  O   UNL     1      -6.278   8.847  66.685  1.00  0.00    -0.059 OA 
ENDBRANCH  19  20
ENDBRANCH  16  19
ENDBRANCH  13  16
ENDBRANCH  10  13
ENDBRANCH   7  10
ENDBRANCH   6   7
ENDBRANCH   3   6
TORSDOF 7
ENDMDL
MODEL      297
REMARK 921   NORMALIZED FREE ENERGY PREDICTED BY IDOCK:   -3.07 KCAL/MOL
REMARK 922        TOTAL FREE ENERGY PREDICTED BY IDOCK:   -5.57 KCAL/MOL
REMARK 923 INTER-LIGAND FREE ENERGY PREDICTED BY IDOCK:   -4.99 KCAL/MOL
REMARK 924 INTRA-LIGAND FREE ENERGY PREDICTED BY IDOCK:   -0.58 KCAL/MOL
REMARK 927      BINDING AFFINITY PREDICTED BY RF-SCORE:    0.00 PKD
ROOT
HETATM    1  C   UNL     1     -12.261  15.665  70.248  1.00  0.00    -0.386 C  
HETATM    2  S   UNL     1     -12.829  14.322  71.260  1.00  0.00    -0.372 S  
HETATM    3  O   UNL     1     -12.173  13.068  70.434  1.00  0.00    -0.351 OA 
HETATM    4  O   UNL     1     -12.175  14.409  72.548  1.00  0.00    -0.191 OA 
HETATM    5  O   UNL     1     -14.270  14.232  71.137  1.00  0.00    -0.208 OA 
ENDROOT
BRANCH   3   6
HETATM    6  C   UNL     1     -12.433  11.786  71.015  1.00  0.00    -0.309 C  
BRANCH   6   7
HETATM    7  C   UNL     1     -12.554  10.686  69.957  1.00  0.00    -0.165 C  
HETATM    8  O   UNL     1     -12.301  11.245  68.652  1.00  0.00    -0.562 OA 
HETATM    9  H   UNL     1     -12.375  10.562  67.995  1.00  0.00     0.000 HD 
BRANCH   7  10
HETATM   10  C   UNL     1     -11.517   9.562  70.167  1.00  0.00    -0.162 C  
HETATM   11  H   UNL     1      -9.558   9.456  70.376  1.00  0.00     0.000 HD 
HETATM   12  O   UNL     1     -10.196  10.148  70.246  1.00  0.00    -0.247 OA 
BRANCH  10  13
HETATM   13  C   UNL     1     -11.693   8.702  71.433  1.00  0.00    -0.297 C  
HETATM   14  O   UNL     1     -10.594   9.024  72.311  1.00  0.00    -0.269 OA 
HETATM   15  H   UNL     1     -10.702   8.493  73.091  1.00  0.00     0.000 HD 
BRANCH  13  16
HETATM   16  C   UNL     1     -11.739   7.181  71.205  1.00  0.00    -0.313 C  
HETATM   17  H   UNL     1     -12.932   5.715  71.725  1.00  0.00     0.000 HD 
HETATM   18  O   UNL     1     -12.904   6.654  71.867  1.00  0.00    -0.328 OA 
BRANCH  16  19
HETATM   19  C   UNL     1     -10.484   6.457  71.703  1.00  0.00    -0.217 C  
BRANCH  19  20
HETATM   20  O   UNL     1      -9.341   7.087  71.109  1.00  0.00    -0.158 OA 
HETATM   21  S   UNL     1      -8.877   6.529  69.654  1.00  0.00    -0.138 S  
HETATM   22  C   UNL     1      -7.501   7.627  69.413  1.00  0.00    -0.089 C  
HETATM   23  O   UNL     1      -9.908   6.849  68.689  1.00  0.00    -0.142 OA 
HETATM   24  O   UNL     1      -8.371   5.182  69.824  1.00  0.00    -0.090 OA 
ENDBRANCH  19  20
ENDBRANCH  16  19
ENDBRANCH  13  16
ENDBRANCH  10  13
ENDBRANCH   7  10
ENDBRANCH   6   7
ENDBRANCH   3   6
TORSDOF 7
ENDMDL
MODEL      298
REMARK 921   NORMALIZED FREE ENERGY PREDICTED BY IDOCK:   -3.07 KCAL/MOL
REMARK 922        TOTAL FREE ENERGY PREDICTED BY IDOCK:   -5.57 KCAL/MOL
REMARK 923 INTER-LIGAND FREE ENERGY PREDICTED BY IDOCK:   -5.01 KCAL/MOL
REMARK 924 INTRA-LIGAND FREE ENERGY PREDICTED BY IDOCK:   -0.56 KCAL/MOL
REMARK 927      BINDING AFFINITY PREDICTED BY RF-SCORE:    0.00 PKD
ROOT
HETATM    1  C   UNL     1     -12.534  11.392  70.755  1.00  0.00    -0.365 C  
HETATM    2  S   UNL     1     -11.467  11.583  69.350  1.00  0.00    -0.331 S  
HETATM    3  O   UNL     1     -11.053  13.157  69.540  1.00  0.00    -0.142 OA 
HETATM    4  O   UNL     1     -10.286  10.774  69.558  1.00  0.00    -0.202 OA 
HETATM    5  O   UNL     1     -12.268  11.475  68.147  1.00  0.00    -0.576 OA 
ENDROOT
BRANCH   3   6
HETATM    6  C   UNL     1     -10.148  13.646  68.545  1.00  0.00    -0.219 C  
BRANCH   6   7
HETATM    7  C   UNL     1      -8.693  13.613  69.023  1.00  0.00     0.322 C  
HETATM    8  O   UNL     1      -7.936  12.704  68.201  1.00  0.00    -0.140 OA 
HETATM    9  H   UNL     1      -7.034  12.684  68.498  1.00  0.00     0.000 HD 
BRANCH   7  10
HETATM   10  C   UNL     1      -8.012  14.994  68.903  1.00  0.00    -0.169 C  
HETATM   11  H   UNL     1      -6.371  15.834  69.605  1.00  0.00     0.000 HD 
HETATM   12  O   UNL     1      -6.790  14.985  69.679  1.00  0.00    -0.159 OA 
BRANCH  10  13
HETATM   13  C   UNL     1      -7.625  15.441  67.480  1.00  0.00    -0.181 C  
HETATM   14  O   UNL     1      -6.516  14.613  67.071  1.00  0.00    -0.285 OA 
HETATM   15  H   UNL     1      -6.278  14.889  66.195  1.00  0.00     0.000 HD 
BRANCH  13  16
HETATM   16  C   UNL     1      -7.243  16.924  67.329  1.00  0.00    -0.166 C  
HETATM   17  H   UNL     1      -7.369  18.530  68.445  1.00  0.00     0.000 HD 
HETATM   18  O   UNL     1      -7.605  17.615  68.539  1.00  0.00    -0.252 OA 
BRANCH  16  19
HETATM   19  C   UNL     1      -7.908  17.599  66.124  1.00  0.00    -0.234 C  
BRANCH  19  20
HETATM   20  O   UNL     1      -8.765  18.638  66.614  1.00  0.00    -0.284 OA 
HETATM   21  S   UNL     1     -10.363  18.337  66.586  1.00  0.00    -0.371 S  
HETATM   22  C   UNL     1     -10.902  19.880  67.283  1.00  0.00    -0.246 C  
HETATM   23  O   UNL     1     -10.646  17.272  67.526  1.00  0.00    -0.354 OA 
HETATM   24  O   UNL     1     -10.791  18.278  65.203  1.00  0.00    -0.656 OA 
ENDBRANCH  19  20
ENDBRANCH  16  19
ENDBRANCH  13  16
ENDBRANCH  10  13
ENDBRANCH   7  10
ENDBRANCH   6   7
ENDBRANCH   3   6
TORSDOF 7
ENDMDL
MODEL      299
REMARK 921   NORMALIZED FREE ENERGY PREDICTED BY IDOCK:   -3.06 KCAL/MOL
REMARK 922        TOTAL FREE ENERGY PREDICTED BY IDOCK:   -5.56 KCAL/MOL
REMARK 923 INTER-LIGAND FREE ENERGY PREDICTED BY IDOCK:   -4.39 KCAL/MOL
REMARK 924 INTRA-LIGAND FREE ENERGY PREDICTED BY IDOCK:   -1.17 KCAL/MOL
REMARK 927      BINDING AFFINITY PREDICTED BY RF-SCORE:    0.00 PKD
ROOT
HETATM    1  C   UNL     1      -9.516   2.752  68.242  1.00  0.00    -0.155 C  
HETATM    2  S   UNL     1      -9.008   4.173  67.308  1.00  0.00    -0.139 S  
HETATM    3  O   UNL     1     -10.397   5.042  67.366  1.00  0.00    -0.175 OA 
HETATM    4  O   UNL     1      -7.998   4.882  68.064  1.00  0.00    -0.086 OA 
HETATM    5  O   UNL     1      -8.793   3.767  65.934  1.00  0.00    -0.113 OA 
ENDROOT
BRANCH   3   6
HETATM    6  C   UNL     1     -10.322   6.306  66.699  1.00  0.00    -0.170 C  
BRANCH   6   7
HETATM    7  C   UNL     1     -10.543   7.478  67.660  1.00  0.00    -0.233 C  
HETATM    8  O   UNL     1     -11.072   6.985  68.907  1.00  0.00    -0.429 OA 
HETATM    9  H   UNL     1     -11.209   7.712  69.503  1.00  0.00     0.000 HD 
BRANCH   7  10
HETATM   10  C   UNL     1      -9.226   8.211  67.995  1.00  0.00    -0.132 C  
HETATM   11  H   UNL     1      -7.401   8.266  67.247  1.00  0.00     0.000 HD 
HETATM   12  O   UNL     1      -8.212   7.815  67.041  1.00  0.00    -0.114 OA 
BRANCH  10  13
HETATM   13  C   UNL     1      -9.277   9.750  67.968  1.00  0.00    -0.124 C  
HETATM   14  O   UNL     1     -10.672  10.119  67.944  1.00  0.00    -0.230 OA 
HETATM   15  H   UNL     1     -10.704  11.068  67.927  1.00  0.00     0.000 HD 
BRANCH  13  16
HETATM   16  C   UNL     1      -8.547  10.421  66.792  1.00  0.00    -0.124 C  
HETATM   17  H   UNL     1      -7.200  11.831  66.592  1.00  0.00     0.000 HD 
HETATM   18  O   UNL     1      -7.651  11.417  67.318  1.00  0.00    -0.122 OA 
BRANCH  16  19
HETATM   19  C   UNL     1      -9.500  11.063  65.777  1.00  0.00    -0.210 C  
BRANCH  19  20
HETATM   20  O   UNL     1      -9.779  12.400  66.211  1.00  0.00    -0.238 OA 
HETATM   21  S   UNL     1     -11.192  13.043  65.727  1.00  0.00    -0.297 S  
HETATM   22  C   UNL     1     -11.017  14.619  66.530  1.00  0.00    -0.318 C  
HETATM   23  O   UNL     1     -12.271  12.311  66.359  1.00  0.00    -0.613 OA 
HETATM   24  O   UNL     1     -11.132  13.244  64.294  1.00  0.00    -0.367 OA 
ENDBRANCH  19  20
ENDBRANCH  16  19
ENDBRANCH  13  16
ENDBRANCH  10  13
ENDBRANCH   7  10
ENDBRANCH   6   7
ENDBRANCH   3   6
TORSDOF 7
ENDMDL
MODEL      300
REMARK 921   NORMALIZED FREE ENERGY PREDICTED BY IDOCK:   -3.03 KCAL/MOL
REMARK 922        TOTAL FREE ENERGY PREDICTED BY IDOCK:   -5.52 KCAL/MOL
REMARK 923 INTER-LIGAND FREE ENERGY PREDICTED BY IDOCK:   -4.67 KCAL/MOL
REMARK 924 INTRA-LIGAND FREE ENERGY PREDICTED BY IDOCK:   -0.85 KCAL/MOL
REMARK 927      BINDING AFFINITY PREDICTED BY RF-SCORE:    0.00 PKD
ROOT
HETATM    1  C   UNL     1     -11.088  14.090  65.498  1.00  0.00    -0.309 C  
HETATM    2  S   UNL     1     -10.860  12.446  66.127  1.00  0.00    -0.284 S  
HETATM    3  O   UNL     1      -9.740  12.755  67.284  1.00  0.00    -0.199 OA 
HETATM    4  O   UNL     1     -12.083  12.031  66.779  1.00  0.00    -0.613 OA 
HETATM    5  O   UNL     1     -10.229  11.644  65.098  1.00  0.00    -0.250 OA 
ENDROOT
BRANCH   3   6
HETATM    6  C   UNL     1      -9.334  11.600  68.026  1.00  0.00    -0.178 C  
BRANCH   6   7
HETATM    7  C   UNL     1      -7.844  11.636  68.379  1.00  0.00    -0.137 C  
HETATM    8  O   UNL     1      -7.074  11.150  67.262  1.00  0.00    -0.095 OA 
HETATM    9  H   UNL     1      -6.149  11.172  67.481  1.00  0.00     0.000 HD 
BRANCH   7  10
HETATM   10  C   UNL     1      -7.351  13.070  68.669  1.00  0.00    -0.097 C  
HETATM   11  H   UNL     1      -6.073  13.907  69.916  1.00  0.00     0.000 HD 
HETATM   12  O   UNL     1      -6.376  13.025  69.738  1.00  0.00    -0.119 OA 
BRANCH  10  13
HETATM   13  C   UNL     1      -6.682  13.811  67.495  1.00  0.00    -0.115 C  
HETATM   14  O   UNL     1      -5.259  13.626  67.644  1.00  0.00    -0.278 OA 
HETATM   15  H   UNL     1      -4.847  14.083  66.921  1.00  0.00     0.000 HD 
BRANCH  13  16
HETATM   16  C   UNL     1      -6.997  15.313  67.390  1.00  0.00    -0.179 C  
HETATM   17  H   UNL     1      -6.031  16.981  67.745  1.00  0.00     0.000 HD 
HETATM   18  O   UNL     1      -5.836  16.053  67.810  1.00  0.00    -0.121 OA 
BRANCH  16  19
HETATM   19  C   UNL     1      -8.214  15.735  68.222  1.00  0.00    -0.143 C  
BRANCH  19  20
HETATM   20  O   UNL     1      -8.995  16.645  67.437  1.00  0.00    -0.194 OA 
HETATM   21  S   UNL     1      -9.715  17.864  68.237  1.00  0.00    -0.345 S  
HETATM   22  C   UNL     1     -10.490  18.636  66.837  1.00  0.00    -0.402 C  
HETATM   23  O   UNL     1      -8.687  18.747  68.751  1.00  0.00    -0.331 OA 
HETATM   24  O   UNL     1     -10.745  17.304  69.087  1.00  0.00    -0.284 OA 
ENDBRANCH  19  20
ENDBRANCH  16  19
ENDBRANCH  13  16
ENDBRANCH  10  13
ENDBRANCH   7  10
ENDBRANCH   6   7
ENDBRANCH   3   6
TORSDOF 7
ENDMDL
MODEL      301
REMARK 921   NORMALIZED FREE ENERGY PREDICTED BY IDOCK:   -3.03 KCAL/MOL
REMARK 922        TOTAL FREE ENERGY PREDICTED BY IDOCK:   -5.51 KCAL/MOL
REMARK 923 INTER-LIGAND FREE ENERGY PREDICTED BY IDOCK:   -4.36 KCAL/MOL
REMARK 924 INTRA-LIGAND FREE ENERGY PREDICTED BY IDOCK:   -1.15 KCAL/MOL
REMARK 927      BINDING AFFINITY PREDICTED BY RF-SCORE:    0.00 PKD
ROOT
HETATM    1  C   UNL     1      -8.822   4.364  64.416  1.00  0.00    -0.149 C  
HETATM    2  S   UNL     1      -9.090   5.237  65.938  1.00  0.00    -0.155 S  
HETATM    3  O   UNL     1      -8.378   6.664  65.557  1.00  0.00    -0.140 OA 
HETATM    4  O   UNL     1     -10.510   5.465  66.092  1.00  0.00    -0.210 OA 
HETATM    5  O   UNL     1      -8.297   4.607  66.974  1.00  0.00    -0.106 OA 
ENDROOT
BRANCH   3   6
HETATM    6  C   UNL     1      -8.438   7.641  66.601  1.00  0.00    -0.130 C  
BRANCH   6   7
HETATM    7  C   UNL     1      -9.375   8.801  66.251  1.00  0.00    -0.222 C  
HETATM    8  O   UNL     1     -10.718   8.475  66.661  1.00  0.00    -0.208 OA 
HETATM    9  H   UNL     1     -11.299   9.195  66.444  1.00  0.00     0.000 HD 
BRANCH   7  10
HETATM   10  C   UNL     1      -8.989  10.102  66.989  1.00  0.00    -0.135 C  
HETATM   11  H   UNL     1      -7.324  10.902  67.683  1.00  0.00     0.000 HD 
HETATM   12  O   UNL     1      -7.562  10.101  67.229  1.00  0.00    -0.094 OA 
BRANCH  10  13
HETATM   13  C   UNL     1      -9.312  11.420  66.260  1.00  0.00    -0.212 C  
HETATM   14  O   UNL     1      -8.099  12.203  66.260  1.00  0.00    -0.382 OA 
HETATM   15  H   UNL     1      -8.298  13.015  65.811  1.00  0.00     0.000 HD 
BRANCH  13  16
HETATM   16  C   UNL     1     -10.459  12.250  66.861  1.00  0.00    -0.217 C  
HETATM   17  H   UNL     1     -12.384  11.999  67.134  1.00  0.00     0.000 HD 
HETATM   18  O   UNL     1     -11.676  11.487  66.763  1.00  0.00    -0.510 OA 
BRANCH  16  19
HETATM   19  C   UNL     1     -10.642  13.611  66.179  1.00  0.00    -0.291 C  
BRANCH  19  20
HETATM   20  O   UNL     1     -10.695  14.617  67.200  1.00  0.00    -0.282 OA 
HETATM   21  S   UNL     1      -9.413  15.611  67.310  1.00  0.00    -0.218 S  
HETATM   22  C   UNL     1     -10.005  16.604  68.660  1.00  0.00    -0.261 C  
HETATM   23  O   UNL     1      -9.360  16.427  66.114  1.00  0.00    -0.292 OA 
HETATM   24  O   UNL     1      -8.277  14.838  67.768  1.00  0.00    -0.140 OA 
ENDBRANCH  19  20
ENDBRANCH  16  19
ENDBRANCH  13  16
ENDBRANCH  10  13
ENDBRANCH   7  10
ENDBRANCH   6   7
ENDBRANCH   3   6
TORSDOF 7
ENDMDL
MODEL      302
REMARK 921   NORMALIZED FREE ENERGY PREDICTED BY IDOCK:   -3.02 KCAL/MOL
REMARK 922        TOTAL FREE ENERGY PREDICTED BY IDOCK:   -5.51 KCAL/MOL
REMARK 923 INTER-LIGAND FREE ENERGY PREDICTED BY IDOCK:   -4.19 KCAL/MOL
REMARK 924 INTRA-LIGAND FREE ENERGY PREDICTED BY IDOCK:   -1.31 KCAL/MOL
REMARK 927      BINDING AFFINITY PREDICTED BY RF-SCORE:    0.00 PKD
ROOT
HETATM    1  C   UNL     1      -9.037  16.798  67.115  1.00  0.00    -0.212 C  
HETATM    2  S   UNL     1      -9.613  15.389  68.026  1.00  0.00    -0.207 S  
HETATM    3  O   UNL     1      -8.916  14.196  67.144  1.00  0.00    -0.205 OA 
HETATM    4  O   UNL     1      -8.995  15.405  69.335  1.00  0.00    -0.250 OA 
HETATM    5  O   UNL     1     -11.048  15.288  67.857  1.00  0.00    -0.298 OA 
ENDROOT
BRANCH   3   6
HETATM    6  C   UNL     1      -9.173  12.878  67.639  1.00  0.00    -0.193 C  
BRANCH   6   7
HETATM    7  C   UNL     1      -7.914  12.224  68.216  1.00  0.00    -0.163 C  
HETATM    8  O   UNL     1      -7.539  12.895  69.435  1.00  0.00    -0.297 OA 
HETATM    9  H   UNL     1      -6.758  12.488  69.793  1.00  0.00     0.000 HD 
BRANCH   7  10
HETATM   10  C   UNL     1      -8.145  10.741  68.579  1.00  0.00    -0.133 C  
HETATM   11  H   UNL     1      -7.780   9.585  70.135  1.00  0.00     0.000 HD 
HETATM   12  O   UNL     1      -7.638  10.497  69.912  1.00  0.00    -0.146 OA 
BRANCH  10  13
HETATM   13  C   UNL     1      -9.608  10.257  68.570  1.00  0.00    -0.161 C  
HETATM   14  O   UNL     1     -10.118  10.449  69.906  1.00  0.00    -0.377 OA 
HETATM   15  H   UNL     1     -11.019  10.151  69.900  1.00  0.00     0.000 HD 
BRANCH  13  16
HETATM   16  C   UNL     1      -9.823   8.794  68.143  1.00  0.00    -0.168 C  
HETATM   17  H   UNL     1     -10.896   7.867  66.790  1.00  0.00     0.000 HD 
HETATM   18  O   UNL     1     -10.764   8.770  67.054  1.00  0.00    -0.262 OA 
BRANCH  16  19
HETATM   19  C   UNL     1     -10.323   7.900  69.283  1.00  0.00    -0.220 C  
BRANCH  19  20
HETATM   20  O   UNL     1      -9.203   7.573  70.116  1.00  0.00    -0.154 OA 
HETATM   21  S   UNL     1      -9.506   7.385  71.703  1.00  0.00    -0.149 S  
HETATM   22  C   UNL     1      -7.848   6.996  72.211  1.00  0.00    -0.091 C  
HETATM   23  O   UNL     1     -10.338   6.212  71.877  1.00  0.00    -0.201 OA 
HETATM   24  O   UNL     1      -9.869   8.676  72.252  1.00  0.00    -0.305 OA 
ENDBRANCH  19  20
ENDBRANCH  16  19
ENDBRANCH  13  16
ENDBRANCH  10  13
ENDBRANCH   7  10
ENDBRANCH   6   7
ENDBRANCH   3   6
TORSDOF 7
ENDMDL
MODEL      303
REMARK 921   NORMALIZED FREE ENERGY PREDICTED BY IDOCK:   -3.02 KCAL/MOL
REMARK 922        TOTAL FREE ENERGY PREDICTED BY IDOCK:   -5.50 KCAL/MOL
REMARK 923 INTER-LIGAND FREE ENERGY PREDICTED BY IDOCK:   -5.65 KCAL/MOL
REMARK 924 INTRA-LIGAND FREE ENERGY PREDICTED BY IDOCK:    0.15 KCAL/MOL
REMARK 927      BINDING AFFINITY PREDICTED BY RF-SCORE:    0.00 PKD
ROOT
HETATM    1  C   UNL     1     -11.440  15.738  64.246  1.00  0.00    -0.198 C  
HETATM    2  S   UNL     1     -10.637  15.285  65.763  1.00  0.00    -0.370 S  
HETATM    3  O   UNL     1     -11.949  14.840  66.638  1.00  0.00    -0.314 OA 
HETATM    4  O   UNL     1      -9.832  14.107  65.522  1.00  0.00    -0.300 OA 
HETATM    5  O   UNL     1     -10.084  16.482  66.365  1.00  0.00    -0.283 OA 
ENDROOT
BRANCH   3   6
HETATM    6  C   UNL     1     -11.641  14.383  67.959  1.00  0.00    -0.327 C  
BRANCH   6   7
HETATM    7  C   UNL     1     -10.520  13.340  67.961  1.00  0.00    -0.242 C  
HETATM    8  O   UNL     1      -9.299  13.947  68.428  1.00  0.00    -0.205 OA 
HETATM    9  H   UNL     1      -8.604  13.299  68.429  1.00  0.00     0.000 HD 
BRANCH   7  10
HETATM   10  C   UNL     1     -10.824  12.163  68.914  1.00  0.00    -0.200 C  
HETATM   11  H   UNL     1     -12.044  11.841  70.430  1.00  0.00     0.000 HD 
HETATM   12  O   UNL     1     -11.857  12.565  69.844  1.00  0.00    -0.325 OA 
BRANCH  10  13
HETATM   13  C   UNL     1     -11.311  10.859  68.252  1.00  0.00    -0.308 C  
HETATM   14  O   UNL     1     -12.516  10.468  68.943  1.00  0.00    -0.776 OA 
HETATM   15  H   UNL     1     -12.815   9.664  68.536  1.00  0.00     0.000 HD 
BRANCH  13  16
HETATM   16  C   UNL     1     -10.309   9.692  68.264  1.00  0.00    -0.204 C  
HETATM   17  H   UNL     1      -9.988   8.102  67.164  1.00  0.00     0.000 HD 
HETATM   18  O   UNL     1     -10.607   8.822  67.156  1.00  0.00    -0.291 OA 
BRANCH  16  19
HETATM   19  C   UNL     1     -10.327   8.894  69.573  1.00  0.00    -0.213 C  
BRANCH  19  20
HETATM   20  O   UNL     1     -10.082   7.516  69.257  1.00  0.00    -0.179 OA 
HETATM   21  S   UNL     1     -10.723   6.414  70.267  1.00  0.00    -0.293 S  
HETATM   22  C   UNL     1     -10.142   4.962  69.422  1.00  0.00    -0.200 C  
HETATM   23  O   UNL     1     -12.166   6.475  70.158  1.00  0.00    -0.229 OA 
HETATM   24  O   UNL     1     -10.041   6.513  71.541  1.00  0.00    -0.189 OA 
ENDBRANCH  19  20
ENDBRANCH  16  19
ENDBRANCH  13  16
ENDBRANCH  10  13
ENDBRANCH   7  10
ENDBRANCH   6   7
ENDBRANCH   3   6
TORSDOF 7
ENDMDL
MODEL      304
REMARK 921   NORMALIZED FREE ENERGY PREDICTED BY IDOCK:   -3.01 KCAL/MOL
REMARK 922        TOTAL FREE ENERGY PREDICTED BY IDOCK:   -5.49 KCAL/MOL
REMARK 923 INTER-LIGAND FREE ENERGY PREDICTED BY IDOCK:   -4.62 KCAL/MOL
REMARK 924 INTRA-LIGAND FREE ENERGY PREDICTED BY IDOCK:   -0.87 KCAL/MOL
REMARK 927      BINDING AFFINITY PREDICTED BY RF-SCORE:    0.00 PKD
ROOT
HETATM    1  C   UNL     1      -9.835  13.541  66.942  1.00  0.00    -0.257 C  
HETATM    2  S   UNL     1     -11.413  12.996  67.543  1.00  0.00    -0.349 S  
HETATM    3  O   UNL     1     -10.913  11.944  68.696  1.00  0.00    -0.204 OA 
HETATM    4  O   UNL     1     -12.065  14.110  68.197  1.00  0.00    -0.343 OA 
HETATM    5  O   UNL     1     -12.065  12.234  66.496  1.00  0.00    -0.616 OA 
ENDROOT
BRANCH   3   6
HETATM    6  C   UNL     1     -11.979  11.317  69.416  1.00  0.00    -0.341 C  
BRANCH   6   7
HETATM    7  C   UNL     1     -11.469  10.248  70.387  1.00  0.00    -0.335 C  
HETATM    8  O   UNL     1     -12.552   9.367  70.744  1.00  0.00    -0.487 OA 
HETATM    9  H   UNL     1     -12.235   8.704  71.347  1.00  0.00     0.000 HD 
BRANCH   7  10
HETATM   10  C   UNL     1     -10.369   9.368  69.755  1.00  0.00    -0.223 C  
HETATM   11  H   UNL     1      -8.594   8.702  70.301  1.00  0.00     0.000 HD 
HETATM   12  O   UNL     1      -9.271   9.244  70.690  1.00  0.00    -0.233 OA 
BRANCH  10  13
HETATM   13  C   UNL     1     -10.782   7.935  69.369  1.00  0.00    -0.168 C  
HETATM   14  O   UNL     1     -10.408   7.083  70.473  1.00  0.00    -0.199 OA 
HETATM   15  H   UNL     1     -10.662   6.200  70.235  1.00  0.00     0.000 HD 
BRANCH  13  16
HETATM   16  C   UNL     1     -10.164   7.391  68.069  1.00  0.00    -0.191 C  
HETATM   17  H   UNL     1      -8.836   6.026  67.606  1.00  0.00     0.000 HD 
HETATM   18  O   UNL     1      -9.217   6.362  68.409  1.00  0.00    -0.122 OA 
BRANCH  16  19
HETATM   19  C   UNL     1      -9.479   8.473  67.227  1.00  0.00    -0.157 C  
BRANCH  19  20
HETATM   20  O   UNL     1      -8.412   7.857  66.494  1.00  0.00    -0.123 OA 
HETATM   21  S   UNL     1      -7.015   8.686  66.407  1.00  0.00    -0.079 S  
HETATM   22  C   UNL     1      -6.103   7.501  65.446  1.00  0.00    -0.038 C  
HETATM   23  O   UNL     1      -6.440   8.756  67.735  1.00  0.00    -0.059 OA 
HETATM   24  O   UNL     1      -7.237   9.867  65.599  1.00  0.00    -0.101 OA 
ENDBRANCH  19  20
ENDBRANCH  16  19
ENDBRANCH  13  16
ENDBRANCH  10  13
ENDBRANCH   7  10
ENDBRANCH   6   7
ENDBRANCH   3   6
TORSDOF 7
ENDMDL
MODEL      305
REMARK 921   NORMALIZED FREE ENERGY PREDICTED BY IDOCK:   -2.98 KCAL/MOL
REMARK 922        TOTAL FREE ENERGY PREDICTED BY IDOCK:   -5.44 KCAL/MOL
REMARK 923 INTER-LIGAND FREE ENERGY PREDICTED BY IDOCK:   -4.98 KCAL/MOL
REMARK 924 INTRA-LIGAND FREE ENERGY PREDICTED BY IDOCK:   -0.46 KCAL/MOL
REMARK 927      BINDING AFFINITY PREDICTED BY RF-SCORE:    0.00 PKD
ROOT
HETATM    1  C   UNL     1     -11.343   7.374  72.970  1.00  0.00    -0.234 C  
HETATM    2  S   UNL     1     -10.525   6.638  71.577  1.00  0.00    -0.218 S  
HETATM    3  O   UNL     1      -9.886   7.987  70.899  1.00  0.00    -0.174 OA 
HETATM    4  O   UNL     1      -9.438   5.816  72.065  1.00  0.00    -0.151 OA 
HETATM    5  O   UNL     1     -11.532   6.119  70.674  1.00  0.00    -0.338 OA 
ENDROOT
BRANCH   3   6
HETATM    6  C   UNL     1      -9.115   7.737  69.719  1.00  0.00    -0.147 C  
BRANCH   6   7
HETATM    7  C   UNL     1      -9.285   8.844  68.675  1.00  0.00    -0.137 C  
HETATM    8  O   UNL     1     -10.666   8.914  68.268  1.00  0.00    -0.384 OA 
HETATM    9  H   UNL     1     -10.771   9.601  67.620  1.00  0.00     0.000 HD 
BRANCH   7  10
HETATM   10  C   UNL     1      -8.916  10.234  69.237  1.00  0.00    -0.179 C  
HETATM   11  H   UNL     1      -7.570  10.949  70.489  1.00  0.00     0.000 HD 
HETATM   12  O   UNL     1      -7.797  10.093  70.143  1.00  0.00    -0.170 OA 
BRANCH  10  13
HETATM   13  C   UNL     1      -8.514  11.302  68.203  1.00  0.00    -0.145 C  
HETATM   14  O   UNL     1      -7.814  12.337  68.925  1.00  0.00    -0.305 OA 
HETATM   15  H   UNL     1      -7.566  12.995  68.288  1.00  0.00     0.000 HD 
BRANCH  13  16
HETATM   16  C   UNL     1      -9.672  11.926  67.405  1.00  0.00    -0.184 C  
HETATM   17  H   UNL     1     -10.749  11.409  65.851  1.00  0.00     0.000 HD 
HETATM   18  O   UNL     1     -10.034  11.023  66.343  1.00  0.00    -0.208 OA 
BRANCH  16  19
HETATM   19  C   UNL     1      -9.332  13.303  66.824  1.00  0.00    -0.252 C  
BRANCH  19  20
HETATM   20  O   UNL     1     -10.188  13.535  65.697  1.00  0.00    -0.287 OA 
HETATM   21  S   UNL     1     -11.390  14.611  65.906  1.00  0.00    -0.327 S  
HETATM   22  C   UNL     1     -12.077  14.510  64.270  1.00  0.00    -0.425 C  
HETATM   23  O   UNL     1     -10.805  15.923  66.090  1.00  0.00    -0.296 OA 
HETATM   24  O   UNL     1     -12.342  14.052  66.844  1.00  0.00    -0.418 OA 
ENDBRANCH  19  20
ENDBRANCH  16  19
ENDBRANCH  13  16
ENDBRANCH  10  13
ENDBRANCH   7  10
ENDBRANCH   6   7
ENDBRANCH   3   6
TORSDOF 7
ENDMDL
MODEL      306
REMARK 921   NORMALIZED FREE ENERGY PREDICTED BY IDOCK:   -2.96 KCAL/MOL
REMARK 922        TOTAL FREE ENERGY PREDICTED BY IDOCK:   -5.42 KCAL/MOL
REMARK 923 INTER-LIGAND FREE ENERGY PREDICTED BY IDOCK:   -4.72 KCAL/MOL
REMARK 924 INTRA-LIGAND FREE ENERGY PREDICTED BY IDOCK:   -0.70 KCAL/MOL
REMARK 927      BINDING AFFINITY PREDICTED BY RF-SCORE:    0.00 PKD
ROOT
HETATM    1  C   UNL     1     -11.963  14.455  64.531  1.00  0.00    -0.472 C  
HETATM    2  S   UNL     1     -11.907  12.693  64.323  1.00  0.00    -0.428 S  
HETATM    3  O   UNL     1     -10.905  12.309  65.562  1.00  0.00    -0.266 OA 
HETATM    4  O   UNL     1     -13.218  12.155  64.616  1.00  0.00    -0.659 OA 
HETATM    5  O   UNL     1     -11.217  12.399  63.084  1.00  0.00    -0.387 OA 
ENDROOT
BRANCH   3   6
HETATM    6  C   UNL     1     -10.656  10.906  65.697  1.00  0.00    -0.164 C  
BRANCH   6   7
HETATM    7  C   UNL     1      -9.241  10.527  65.248  1.00  0.00    -0.200 C  
HETATM    8  O   UNL     1      -8.797  11.446  64.231  1.00  0.00    -0.383 OA 
HETATM    9  H   UNL     1      -7.919  11.211  63.953  1.00  0.00     0.000 HD 
BRANCH   7  10
HETATM   10  C   UNL     1      -8.222  10.616  66.404  1.00  0.00    -0.146 C  
HETATM   11  H   UNL     1      -7.357  12.063  67.428  1.00  0.00     0.000 HD 
HETATM   12  O   UNL     1      -7.984  12.009  66.716  1.00  0.00    -0.145 OA 
BRANCH  10  13
HETATM   13  C   UNL     1      -8.627   9.932  67.724  1.00  0.00    -0.121 C  
HETATM   14  O   UNL     1      -8.281  10.844  68.787  1.00  0.00    -0.136 OA 
HETATM   15  H   UNL     1      -8.531  10.423  69.601  1.00  0.00     0.000 HD 
BRANCH  13  16
HETATM   16  C   UNL     1      -7.980   8.562  67.991  1.00  0.00    -0.111 C  
HETATM   17  H   UNL     1      -6.687   7.414  67.069  1.00  0.00     0.000 HD 
HETATM   18  O   UNL     1      -7.087   8.259  66.903  1.00  0.00    -0.076 OA 
BRANCH  16  19
HETATM   19  C   UNL     1      -9.003   7.433  68.156  1.00  0.00    -0.129 C  
BRANCH  19  20
HETATM   20  O   UNL     1      -8.764   6.796  69.418  1.00  0.00    -0.134 OA 
HETATM   21  S   UNL     1      -9.807   7.143  70.617  1.00  0.00    -0.181 S  
HETATM   22  C   UNL     1      -9.069   6.119  71.869  1.00  0.00    -0.140 C  
HETATM   23  O   UNL     1     -11.104   6.600  70.270  1.00  0.00    -0.274 OA 
HETATM   24  O   UNL     1      -9.627   8.531  70.989  1.00  0.00    -0.168 OA 
ENDBRANCH  19  20
ENDBRANCH  16  19
ENDBRANCH  13  16
ENDBRANCH  10  13
ENDBRANCH   7  10
ENDBRANCH   6   7
ENDBRANCH   3   6
TORSDOF 7
ENDMDL
MODEL      307
REMARK 921   NORMALIZED FREE ENERGY PREDICTED BY IDOCK:   -2.95 KCAL/MOL
REMARK 922        TOTAL FREE ENERGY PREDICTED BY IDOCK:   -5.40 KCAL/MOL
REMARK 923 INTER-LIGAND FREE ENERGY PREDICTED BY IDOCK:   -4.44 KCAL/MOL
REMARK 924 INTRA-LIGAND FREE ENERGY PREDICTED BY IDOCK:   -0.96 KCAL/MOL
REMARK 927      BINDING AFFINITY PREDICTED BY RF-SCORE:    0.00 PKD
ROOT
HETATM    1  C   UNL     1     -10.598   9.797  70.418  1.00  0.00    -0.304 C  
HETATM    2  S   UNL     1     -12.007  10.741  69.896  1.00  0.00    -0.349 S  
HETATM    3  O   UNL     1     -11.426  12.253  70.151  1.00  0.00    -0.149 OA 
HETATM    4  O   UNL     1     -12.181  10.556  68.471  1.00  0.00    -0.279 OA 
HETATM    5  O   UNL     1     -13.086  10.514  70.836  1.00  0.00    -0.379 OA 
ENDROOT
BRANCH   3   6
HETATM    6  C   UNL     1     -12.340  13.296  69.799  1.00  0.00    -0.128 C  
BRANCH   6   7
HETATM    7  C   UNL     1     -11.909  14.036  68.529  1.00  0.00    -0.364 C  
HETATM    8  O   UNL     1     -12.752  13.638  67.430  1.00  0.00    -0.170 OA 
HETATM    9  H   UNL     1     -12.484  14.098  66.643  1.00  0.00     0.000 HD 
BRANCH   7  10
HETATM   10  C   UNL     1     -12.057  15.566  68.671  1.00  0.00    -0.083 C  
HETATM   11  H   UNL     1     -12.166  16.851  70.164  1.00  0.00     0.000 HD 
HETATM   12  O   UNL     1     -12.075  15.909  70.077  1.00  0.00    -0.336 OA 
BRANCH  10  13
HETATM   13  C   UNL     1     -10.950  16.421  68.024  1.00  0.00    -0.327 C  
HETATM   14  O   UNL     1     -10.328  15.600  67.014  1.00  0.00    -0.276 OA 
HETATM   15  H   UNL     1      -9.646  16.126  66.616  1.00  0.00     0.000 HD 
BRANCH  13  16
HETATM   16  C   UNL     1      -9.874  16.956  68.985  1.00  0.00    -0.247 C  
HETATM   17  H   UNL     1      -8.481  18.332  68.911  1.00  0.00     0.000 HD 
HETATM   18  O   UNL     1      -9.145  18.002  68.317  1.00  0.00    -0.265 OA 
BRANCH  16  19
HETATM   19  C   UNL     1      -8.905  15.872  69.471  1.00  0.00    -0.115 C  
BRANCH  19  20
HETATM   20  O   UNL     1      -7.726  15.933  68.657  1.00  0.00    -0.143 OA 
HETATM   21  S   UNL     1      -6.340  15.431  69.344  1.00  0.00    -0.145 S  
HETATM   22  C   UNL     1      -5.277  15.702  67.947  1.00  0.00    -0.127 C  
HETATM   23  O   UNL     1      -6.439  14.007  69.590  1.00  0.00    -0.122 OA 
HETATM   24  O   UNL     1      -5.984  16.371  70.387  1.00  0.00    -0.125 OA 
ENDBRANCH  19  20
ENDBRANCH  16  19
ENDBRANCH  13  16
ENDBRANCH  10  13
ENDBRANCH   7  10
ENDBRANCH   6   7
ENDBRANCH   3   6
TORSDOF 7
ENDMDL
MODEL      308
REMARK 921   NORMALIZED FREE ENERGY PREDICTED BY IDOCK:   -2.90 KCAL/MOL
REMARK 922        TOTAL FREE ENERGY PREDICTED BY IDOCK:   -5.33 KCAL/MOL
REMARK 923 INTER-LIGAND FREE ENERGY PREDICTED BY IDOCK:   -5.42 KCAL/MOL
REMARK 924 INTRA-LIGAND FREE ENERGY PREDICTED BY IDOCK:    0.09 KCAL/MOL
REMARK 927      BINDING AFFINITY PREDICTED BY RF-SCORE:    0.00 PKD
ROOT
HETATM    1  C   UNL     1      -9.853  14.716  67.401  1.00  0.00    -0.222 C  
HETATM    2  S   UNL     1     -11.434  14.222  68.040  1.00  0.00    -0.333 S  
HETATM    3  O   UNL     1     -10.941  13.134  69.163  1.00  0.00    -0.225 OA 
HETATM    4  O   UNL     1     -12.023  15.350  68.729  1.00  0.00    -0.331 OA 
HETATM    5  O   UNL     1     -12.144  13.501  67.003  1.00  0.00    -0.384 OA 
ENDROOT
BRANCH   3   6
HETATM    6  C   UNL     1     -12.009  12.537  69.905  1.00  0.00    -0.301 C  
BRANCH   6   7
HETATM    7  C   UNL     1     -11.699  11.090  70.298  1.00  0.00    -0.355 C  
HETATM    8  O   UNL     1     -12.740  10.224  69.803  1.00  0.00    -0.561 OA 
HETATM    9  H   UNL     1     -12.547   9.326  70.047  1.00  0.00     0.000 HD 
BRANCH   7  10
HETATM   10  C   UNL     1     -10.375  10.591  69.681  1.00  0.00    -0.193 C  
HETATM   11  H   UNL     1      -9.236   8.990  69.862  1.00  0.00     0.000 HD 
HETATM   12  O   UNL     1     -10.051   9.297  70.242  1.00  0.00    -0.189 OA 
BRANCH  10  13
HETATM   13  C   UNL     1     -10.358  10.423  68.149  1.00  0.00    -0.172 C  
HETATM   14  O   UNL     1     -11.736  10.361  67.723  1.00  0.00    -0.677 OA 
HETATM   15  H   UNL     1     -11.725  10.257  66.780  1.00  0.00     0.000 HD 
BRANCH  13  16
HETATM   16  C   UNL     1      -9.602   9.190  67.623  1.00  0.00    -0.149 C  
HETATM   17  H   UNL     1      -8.266   8.848  66.230  1.00  0.00     0.000 HD 
HETATM   18  O   UNL     1      -8.733   9.609  66.555  1.00  0.00    -0.132 OA 
BRANCH  16  19
HETATM   19  C   UNL     1     -10.533   8.075  67.131  1.00  0.00    -0.338 C  
BRANCH  19  20
HETATM   20  O   UNL     1     -10.602   7.071  68.152  1.00  0.00    -0.197 OA 
HETATM   21  S   UNL     1      -9.855   5.661  67.837  1.00  0.00    -0.142 S  
HETATM   22  C   UNL     1     -10.236   4.849  69.371  1.00  0.00    -0.159 C  
HETATM   23  O   UNL     1      -8.428   5.900  67.774  1.00  0.00    -0.108 OA 
HETATM   24  O   UNL     1     -10.573   4.995  66.769  1.00  0.00    -0.252 OA 
ENDBRANCH  19  20
ENDBRANCH  16  19
ENDBRANCH  13  16
ENDBRANCH  10  13
ENDBRANCH   7  10
ENDBRANCH   6   7
ENDBRANCH   3   6
TORSDOF 7
ENDMDL
MODEL      309
REMARK 921   NORMALIZED FREE ENERGY PREDICTED BY IDOCK:   -2.90 KCAL/MOL
REMARK 922        TOTAL FREE ENERGY PREDICTED BY IDOCK:   -5.33 KCAL/MOL
REMARK 923 INTER-LIGAND FREE ENERGY PREDICTED BY IDOCK:   -4.45 KCAL/MOL
REMARK 924 INTRA-LIGAND FREE ENERGY PREDICTED BY IDOCK:   -0.88 KCAL/MOL
REMARK 927      BINDING AFFINITY PREDICTED BY RF-SCORE:    0.00 PKD
ROOT
HETATM    1  C   UNL     1      -6.264   9.977  64.618  1.00  0.00    -0.124 C  
HETATM    2  S   UNL     1      -6.425   8.739  65.879  1.00  0.00    -0.057 S  
HETATM    3  O   UNL     1      -7.990   8.988  66.300  1.00  0.00    -0.101 OA 
HETATM    4  O   UNL     1      -6.324   7.435  65.259  1.00  0.00    -0.037 OA 
HETATM    5  O   UNL     1      -5.595   9.119  67.004  1.00  0.00    -0.040 OA 
ENDROOT
BRANCH   3   6
HETATM    6  C   UNL     1      -8.466   8.106  67.322  1.00  0.00    -0.125 C  
BRANCH   6   7
HETATM    7  C   UNL     1      -8.673   8.828  68.656  1.00  0.00    -0.134 C  
HETATM    8  O   UNL     1      -7.830   9.997  68.706  1.00  0.00    -0.086 OA 
HETATM    9  H   UNL     1      -7.959  10.445  69.535  1.00  0.00     0.000 HD 
BRANCH   7  10
HETATM   10  C   UNL     1     -10.126   9.321  68.831  1.00  0.00    -0.195 C  
HETATM   11  H   UNL     1     -11.713   8.733  69.845  1.00  0.00     0.000 HD 
HETATM   12  O   UNL     1     -10.819   8.430  69.737  1.00  0.00    -0.238 OA 
BRANCH  10  13
HETATM   13  C   UNL     1     -10.300  10.744  69.395  1.00  0.00    -0.179 C  
HETATM   14  O   UNL     1     -11.016  10.613  70.641  1.00  0.00    -0.423 OA 
HETATM   15  H   UNL     1     -11.123  11.490  70.988  1.00  0.00     0.000 HD 
BRANCH  13  16
HETATM   16  C   UNL     1     -11.037  11.737  68.480  1.00  0.00    -0.239 C  
HETATM   17  H   UNL     1     -12.810  11.835  67.649  1.00  0.00     0.000 HD 
HETATM   18  O   UNL     1     -12.354  11.221  68.213  1.00  0.00    -0.542 OA 
BRANCH  16  19
HETATM   19  C   UNL     1     -10.304  12.002  67.161  1.00  0.00    -0.213 C  
BRANCH  19  20
HETATM   20  O   UNL     1     -10.199  13.422  66.987  1.00  0.00    -0.244 OA 
HETATM   21  S   UNL     1     -11.177  14.093  65.875  1.00  0.00    -0.320 S  
HETATM   22  C   UNL     1     -10.651  15.777  66.091  1.00  0.00    -0.313 C  
HETATM   23  O   UNL     1     -12.546  13.966  66.330  1.00  0.00    -0.435 OA 
HETATM   24  O   UNL     1     -10.754  13.641  64.565  1.00  0.00    -0.399 OA 
ENDBRANCH  19  20
ENDBRANCH  16  19
ENDBRANCH  13  16
ENDBRANCH  10  13
ENDBRANCH   7  10
ENDBRANCH   6   7
ENDBRANCH   3   6
TORSDOF 7
ENDMDL
MODEL      310
REMARK 921   NORMALIZED FREE ENERGY PREDICTED BY IDOCK:   -2.89 KCAL/MOL
REMARK 922        TOTAL FREE ENERGY PREDICTED BY IDOCK:   -5.32 KCAL/MOL
REMARK 923 INTER-LIGAND FREE ENERGY PREDICTED BY IDOCK:   -4.18 KCAL/MOL
REMARK 924 INTRA-LIGAND FREE ENERGY PREDICTED BY IDOCK:   -1.14 KCAL/MOL
REMARK 927      BINDING AFFINITY PREDICTED BY RF-SCORE:    0.00 PKD
ROOT
HETATM    1  C   UNL     1     -12.140  14.091  69.182  1.00  0.00    -0.337 C  
HETATM    2  S   UNL     1     -11.400  13.818  67.593  1.00  0.00    -0.322 S  
HETATM    3  O   UNL     1     -11.056  12.221  67.729  1.00  0.00    -0.228 OA 
HETATM    4  O   UNL     1     -12.420  13.977  66.578  1.00  0.00    -0.442 OA 
HETATM    5  O   UNL     1     -10.146  14.541  67.539  1.00  0.00    -0.227 OA 
ENDROOT
BRANCH   3   6
HETATM    6  C   UNL     1     -10.445  11.655  66.565  1.00  0.00    -0.239 C  
BRANCH   6   7
HETATM    7  C   UNL     1      -8.976  11.293  66.803  1.00  0.00    -0.171 C  
HETATM    8  O   UNL     1      -8.410  12.195  67.775  1.00  0.00    -0.140 OA 
HETATM    9  H   UNL     1      -7.498  11.970  67.923  1.00  0.00     0.000 HD 
BRANCH   7  10
HETATM   10  C   UNL     1      -8.814   9.867  67.373  1.00  0.00    -0.132 C  
HETATM   11  H   UNL     1      -7.304   8.693  67.857  1.00  0.00     0.000 HD 
HETATM   12  O   UNL     1      -7.404   9.571  67.506  1.00  0.00    -0.089 OA 
BRANCH  10  13
HETATM   13  C   UNL     1      -9.450   9.609  68.752  1.00  0.00    -0.148 C  
HETATM   14  O   UNL     1      -8.626  10.286  69.724  1.00  0.00    -0.322 OA 
HETATM   15  H   UNL     1      -9.018  10.127  70.574  1.00  0.00     0.000 HD 
BRANCH  13  16
HETATM   16  C   UNL     1      -9.602   8.130  69.149  1.00  0.00    -0.157 C  
HETATM   17  H   UNL     1     -10.819   6.666  68.681  1.00  0.00     0.000 HD 
HETATM   18  O   UNL     1     -10.726   7.579  68.436  1.00  0.00    -0.164 OA 
BRANCH  16  19
HETATM   19  C   UNL     1      -9.791   7.925  70.656  1.00  0.00    -0.185 C  
BRANCH  19  20
HETATM   20  O   UNL     1      -8.599   7.320  71.176  1.00  0.00    -0.128 OA 
HETATM   21  S   UNL     1      -7.920   8.041  72.466  1.00  0.00    -0.141 S  
HETATM   22  C   UNL     1      -6.562   6.914  72.673  1.00  0.00    -0.061 C  
HETATM   23  O   UNL     1      -8.819   7.905  73.594  1.00  0.00    -0.235 OA 
HETATM   24  O   UNL     1      -7.397   9.325  72.047  1.00  0.00    -0.313 OA 
ENDBRANCH  19  20
ENDBRANCH  16  19
ENDBRANCH  13  16
ENDBRANCH  10  13
ENDBRANCH   7  10
ENDBRANCH   6   7
ENDBRANCH   3   6
TORSDOF 7
ENDMDL
MODEL      311
REMARK 921   NORMALIZED FREE ENERGY PREDICTED BY IDOCK:   -2.89 KCAL/MOL
REMARK 922        TOTAL FREE ENERGY PREDICTED BY IDOCK:   -5.31 KCAL/MOL
REMARK 923 INTER-LIGAND FREE ENERGY PREDICTED BY IDOCK:   -4.75 KCAL/MOL
REMARK 924 INTRA-LIGAND FREE ENERGY PREDICTED BY IDOCK:   -0.56 KCAL/MOL
REMARK 927      BINDING AFFINITY PREDICTED BY RF-SCORE:    0.00 PKD
ROOT
HETATM    1  C   UNL     1     -11.500   9.171  70.483  1.00  0.00    -0.229 C  
HETATM    2  S   UNL     1     -10.458   9.927  69.261  1.00  0.00    -0.235 S  
HETATM    3  O   UNL     1     -11.074  11.445  69.285  1.00  0.00    -0.234 OA 
HETATM    4  O   UNL     1      -9.107   9.977  69.778  1.00  0.00    -0.215 OA 
HETATM    5  O   UNL     1     -10.764   9.342  67.971  1.00  0.00    -0.232 OA 
ENDROOT
BRANCH   3   6
HETATM    6  C   UNL     1     -10.421  12.354  68.394  1.00  0.00    -0.235 C  
BRANCH   6   7
HETATM    7  C   UNL     1     -11.314  12.744  67.212  1.00  0.00    -0.314 C  
HETATM    8  O   UNL     1     -12.303  13.696  67.651  1.00  0.00    -0.360 OA 
HETATM    9  H   UNL     1     -12.857  13.938  66.918  1.00  0.00     0.000 HD 
BRANCH   7  10
HETATM   10  C   UNL     1     -10.514  13.425  66.080  1.00  0.00    -0.295 C  
HETATM   11  H   UNL     1     -10.775  13.748  64.151  1.00  0.00     0.000 HD 
HETATM   12  O   UNL     1     -11.267  13.329  64.848  1.00  0.00    -0.302 OA 
BRANCH  10  13
HETATM   13  C   UNL     1     -10.186  14.917  66.280  1.00  0.00    -0.294 C  
HETATM   14  O   UNL     1     -10.697  15.613  65.123  1.00  0.00    -0.397 OA 
HETATM   15  H   UNL     1     -10.494  16.532  65.246  1.00  0.00     0.000 HD 
BRANCH  13  16
HETATM   16  C   UNL     1      -8.696  15.253  66.465  1.00  0.00    -0.279 C  
HETATM   17  H   UNL     1      -7.481  15.466  67.988  1.00  0.00     0.000 HD 
HETATM   18  O   UNL     1      -8.401  15.260  67.874  1.00  0.00    -0.142 OA 
BRANCH  16  19
HETATM   19  C   UNL     1      -8.298  16.596  65.843  1.00  0.00     0.060 C  
BRANCH  19  20
HETATM   20  O   UNL     1      -7.749  17.421  66.880  1.00  0.00    -0.189 OA 
HETATM   21  S   UNL     1      -6.420  18.279  66.500  1.00  0.00    -0.209 S  
HETATM   22  C   UNL     1      -6.206  19.081  68.072  1.00  0.00    -0.216 C  
HETATM   23  O   UNL     1      -6.782  19.273  65.511  1.00  0.00    -0.257 OA 
HETATM   24  O   UNL     1      -5.324  17.353  66.299  1.00  0.00    -0.179 OA 
ENDBRANCH  19  20
ENDBRANCH  16  19
ENDBRANCH  13  16
ENDBRANCH  10  13
ENDBRANCH   7  10
ENDBRANCH   6   7
ENDBRANCH   3   6
TORSDOF 7
ENDMDL
MODEL      312
REMARK 921   NORMALIZED FREE ENERGY PREDICTED BY IDOCK:   -2.87 KCAL/MOL
REMARK 922        TOTAL FREE ENERGY PREDICTED BY IDOCK:   -5.29 KCAL/MOL
REMARK 923 INTER-LIGAND FREE ENERGY PREDICTED BY IDOCK:   -4.76 KCAL/MOL
REMARK 924 INTRA-LIGAND FREE ENERGY PREDICTED BY IDOCK:   -0.54 KCAL/MOL
REMARK 927      BINDING AFFINITY PREDICTED BY RF-SCORE:    0.00 PKD
ROOT
HETATM    1  C   UNL     1      -9.945  19.955  66.625  1.00  0.00    -0.457 C  
HETATM    2  S   UNL     1      -9.812  18.275  67.182  1.00  0.00    -0.340 S  
HETATM    3  O   UNL     1      -9.847  17.510  65.733  1.00  0.00    -0.537 OA 
HETATM    4  O   UNL     1      -8.500  18.087  67.763  1.00  0.00    -0.240 OA 
HETATM    5  O   UNL     1     -11.024  17.931  67.897  1.00  0.00    -0.294 OA 
ENDROOT
BRANCH   3   6
HETATM    6  C   UNL     1      -9.735  16.086  65.823  1.00  0.00    -0.305 C  
BRANCH   6   7
HETATM    7  C   UNL     1     -11.104  15.403  65.890  1.00  0.00    -0.247 C  
HETATM    8  O   UNL     1     -11.657  15.303  64.562  1.00  0.00    -0.552 OA 
HETATM    9  H   UNL     1     -12.507  14.879  64.604  1.00  0.00     0.000 HD 
BRANCH   7  10
HETATM   10  C   UNL     1     -11.009  13.964  66.441  1.00  0.00    -0.303 C  
HETATM   11  H   UNL     1      -9.990  12.335  65.993  1.00  0.00     0.000 HD 
HETATM   12  O   UNL     1     -10.049  13.221  65.654  1.00  0.00    -0.287 OA 
BRANCH  10  13
HETATM   13  C   UNL     1     -10.573  13.825  67.912  1.00  0.00    -0.252 C  
HETATM   14  O   UNL     1      -9.313  13.122  67.907  1.00  0.00    -0.199 OA 
HETATM   15  H   UNL     1      -9.045  13.036  68.814  1.00  0.00     0.000 HD 
BRANCH  13  16
HETATM   16  C   UNL     1     -11.565  13.097  68.835  1.00  0.00    -0.311 C  
HETATM   17  H   UNL     1     -13.062  13.622  69.986  1.00  0.00     0.000 HD 
HETATM   18  O   UNL     1     -12.449  14.073  69.417  1.00  0.00    -0.283 OA 
BRANCH  16  19
HETATM   19  C   UNL     1     -10.879  12.290  69.943  1.00  0.00     0.613 C  
BRANCH  19  20
HETATM   20  O   UNL     1     -10.852  10.914  69.540  1.00  0.00    -0.239 OA 
HETATM   21  S   UNL     1     -11.568   9.849  70.539  1.00  0.00    -0.319 S  
HETATM   22  C   UNL     1     -11.259   8.386  69.579  1.00  0.00     0.163 C  
HETATM   23  O   UNL     1     -12.993  10.113  70.547  1.00  0.00    -0.285 OA 
HETATM   24  O   UNL     1     -10.791   9.777  71.759  1.00  0.00    -0.085 OA 
ENDBRANCH  19  20
ENDBRANCH  16  19
ENDBRANCH  13  16
ENDBRANCH  10  13
ENDBRANCH   7  10
ENDBRANCH   6   7
ENDBRANCH   3   6
TORSDOF 7
ENDMDL
MODEL      313
REMARK 921   NORMALIZED FREE ENERGY PREDICTED BY IDOCK:   -2.87 KCAL/MOL
REMARK 922        TOTAL FREE ENERGY PREDICTED BY IDOCK:   -5.29 KCAL/MOL
REMARK 923 INTER-LIGAND FREE ENERGY PREDICTED BY IDOCK:   -4.23 KCAL/MOL
REMARK 924 INTRA-LIGAND FREE ENERGY PREDICTED BY IDOCK:   -1.07 KCAL/MOL
REMARK 927      BINDING AFFINITY PREDICTED BY RF-SCORE:    0.00 PKD
ROOT
HETATM    1  C   UNL     1     -10.138   3.705  63.914  1.00  0.00    -0.208 C  
HETATM    2  S   UNL     1      -9.599   4.449  65.432  1.00  0.00    -0.194 S  
HETATM    3  O   UNL     1      -8.560   5.565  64.830  1.00  0.00    -0.146 OA 
HETATM    4  O   UNL     1     -10.721   5.147  66.024  1.00  0.00    -0.264 OA 
HETATM    5  O   UNL     1      -8.826   3.473  66.173  1.00  0.00    -0.118 OA 
ENDROOT
BRANCH   3   6
HETATM    6  C   UNL     1      -7.941   6.383  65.827  1.00  0.00    -0.117 C  
BRANCH   6   7
HETATM    7  C   UNL     1      -7.962   7.867  65.449  1.00  0.00    -0.123 C  
HETATM    8  O   UNL     1      -8.603   8.028  64.168  1.00  0.00    -0.391 OA 
HETATM    9  H   UNL     1      -8.616   8.949  63.933  1.00  0.00     0.000 HD 
BRANCH   7  10
HETATM   10  C   UNL     1      -8.768   8.713  66.458  1.00  0.00    -0.126 C  
HETATM   11  H   UNL     1     -10.357   9.880  66.386  1.00  0.00     0.000 HD 
HETATM   12  O   UNL     1      -9.861   9.359  65.764  1.00  0.00    -0.297 OA 
BRANCH  10  13
HETATM   13  C   UNL     1      -9.390   7.949  67.643  1.00  0.00    -0.143 C  
HETATM   14  O   UNL     1     -10.761   8.387  67.746  1.00  0.00    -0.424 OA 
HETATM   15  H   UNL     1     -11.145   7.917  68.476  1.00  0.00     0.000 HD 
BRANCH  13  16
HETATM   16  C   UNL     1      -8.688   8.136  68.999  1.00  0.00    -0.144 C  
HETATM   17  H   UNL     1      -6.983   8.887  69.608  1.00  0.00     0.000 HD 
HETATM   18  O   UNL     1      -7.416   8.771  68.771  1.00  0.00    -0.081 OA 
BRANCH  16  19
HETATM   19  C   UNL     1      -8.484   6.821  69.760  1.00  0.00    -0.133 C  
BRANCH  19  20
HETATM   20  O   UNL     1      -9.446   6.768  70.823  1.00  0.00    -0.165 OA 
HETATM   21  S   UNL     1     -10.638   5.673  70.672  1.00  0.00    -0.264 S  
HETATM   22  C   UNL     1     -11.475   6.028  72.199  1.00  0.00    -0.302 C  
HETATM   23  O   UNL     1     -10.058   4.348  70.751  1.00  0.00    -0.204 OA 
HETATM   24  O   UNL     1     -11.490   6.076  69.572  1.00  0.00    -0.384 OA 
ENDBRANCH  19  20
ENDBRANCH  16  19
ENDBRANCH  13  16
ENDBRANCH  10  13
ENDBRANCH   7  10
ENDBRANCH   6   7
ENDBRANCH   3   6
TORSDOF 7
ENDMDL
MODEL      314
REMARK 921   NORMALIZED FREE ENERGY PREDICTED BY IDOCK:   -2.87 KCAL/MOL
REMARK 922        TOTAL FREE ENERGY PREDICTED BY IDOCK:   -5.29 KCAL/MOL
REMARK 923 INTER-LIGAND FREE ENERGY PREDICTED BY IDOCK:   -4.43 KCAL/MOL
REMARK 924 INTRA-LIGAND FREE ENERGY PREDICTED BY IDOCK:   -0.86 KCAL/MOL
REMARK 927      BINDING AFFINITY PREDICTED BY RF-SCORE:    0.00 PKD
ROOT
HETATM    1  C   UNL     1     -10.689  11.794  64.970  1.00  0.00    -0.292 C  
HETATM    2  S   UNL     1      -9.914  11.112  66.413  1.00  0.00    -0.224 S  
HETATM    3  O   UNL     1      -9.193   9.804  65.737  1.00  0.00    -0.163 OA 
HETATM    4  O   UNL     1      -8.879  12.023  66.853  1.00  0.00    -0.186 OA 
HETATM    5  O   UNL     1     -10.948  10.637  67.310  1.00  0.00    -0.296 OA 
ENDROOT
BRANCH   3   6
HETATM    6  C   UNL     1      -8.436   9.013  66.659  1.00  0.00    -0.122 C  
BRANCH   6   7
HETATM    7  C   UNL     1      -8.476   7.523  66.309  1.00  0.00    -0.140 C  
HETATM    8  O   UNL     1      -7.193   6.929  66.587  1.00  0.00    -0.072 OA 
HETATM    9  H   UNL     1      -7.218   6.004  66.369  1.00  0.00     0.000 HD 
BRANCH   7  10
HETATM   10  C   UNL     1      -9.514   6.755  67.157  1.00  0.00    -0.142 C  
HETATM   11  H   UNL     1     -10.626   5.142  66.923  1.00  0.00     0.000 HD 
HETATM   12  O   UNL     1      -9.987   5.614  66.402  1.00  0.00    -0.161 OA 
BRANCH  10  13
HETATM   13  C   UNL     1      -9.020   6.212  68.511  1.00  0.00    -0.115 C  
HETATM   14  O   UNL     1      -8.913   4.780  68.370  1.00  0.00    -0.105 OA 
HETATM   15  H   UNL     1      -8.609   4.445  69.205  1.00  0.00     0.000 HD 
BRANCH  13  16
HETATM   16  C   UNL     1      -9.904   6.545  69.725  1.00  0.00    -0.165 C  
HETATM   17  H   UNL     1     -11.636   5.936  70.412  1.00  0.00     0.000 HD 
HETATM   18  O   UNL     1     -11.090   5.731  69.663  1.00  0.00    -0.372 OA 
BRANCH  16  19
HETATM   19  C   UNL     1     -10.292   8.026  69.802  1.00  0.00    -0.219 C  
BRANCH  19  20
HETATM   20  O   UNL     1     -11.648   8.108  70.263  1.00  0.00    -0.150 OA 
HETATM   21  S   UNL     1     -11.901   8.945  71.634  1.00  0.00    -0.371 S  
HETATM   22  C   UNL     1     -13.663   8.735  71.712  1.00  0.00    -0.419 C  
HETATM   23  O   UNL     1     -11.605  10.341  71.381  1.00  0.00    -0.317 OA 
HETATM   24  O   UNL     1     -11.298   8.215  72.730  1.00  0.00    -0.397 OA 
ENDBRANCH  19  20
ENDBRANCH  16  19
ENDBRANCH  13  16
ENDBRANCH  10  13
ENDBRANCH   7  10
ENDBRANCH   6   7
ENDBRANCH   3   6
TORSDOF 7
ENDMDL
MODEL      315
REMARK 921   NORMALIZED FREE ENERGY PREDICTED BY IDOCK:   -2.87 KCAL/MOL
REMARK 922        TOTAL FREE ENERGY PREDICTED BY IDOCK:   -5.29 KCAL/MOL
REMARK 923 INTER-LIGAND FREE ENERGY PREDICTED BY IDOCK:   -4.51 KCAL/MOL
REMARK 924 INTRA-LIGAND FREE ENERGY PREDICTED BY IDOCK:   -0.78 KCAL/MOL
REMARK 927      BINDING AFFINITY PREDICTED BY RF-SCORE:    0.00 PKD
ROOT
HETATM    1  C   UNL     1     -10.962  10.959  63.895  1.00  0.00     0.172 C  
HETATM    2  S   UNL     1     -11.345  12.497  64.692  1.00  0.00    -0.335 S  
HETATM    3  O   UNL     1     -10.352  12.379  65.992  1.00  0.00    -0.241 OA 
HETATM    4  O   UNL     1     -10.871  13.578  63.856  1.00  0.00    -0.209 OA 
HETATM    5  O   UNL     1     -12.712  12.439  65.170  1.00  0.00    -0.630 OA 
ENDROOT
BRANCH   3   6
HETATM    6  C   UNL     1     -10.401  13.510  66.867  1.00  0.00    -0.265 C  
BRANCH   6   7
HETATM    7  C   UNL     1      -9.037  14.193  67.002  1.00  0.00    -0.243 C  
HETATM    8  O   UNL     1      -8.305  14.055  65.768  1.00  0.00     0.862 OA 
HETATM    9  H   UNL     1      -7.458  14.479  65.853  1.00  0.00     0.000 HD 
BRANCH   7  10
HETATM   10  C   UNL     1      -9.170  15.708  67.272  1.00  0.00    -0.204 C  
HETATM   11  H   UNL     1      -8.838  17.367  66.257  1.00  0.00     0.000 HD 
HETATM   12  O   UNL     1      -8.756  16.435  66.091  1.00  0.00    -0.312 OA 
BRANCH  10  13
HETATM   13  C   UNL     1     -10.581  16.215  67.628  1.00  0.00    -0.315 C  
HETATM   14  O   UNL     1     -10.771  17.451  66.909  1.00  0.00    -0.253 OA 
HETATM   15  H   UNL     1     -11.641  17.764  67.128  1.00  0.00     0.000 HD 
BRANCH  13  16
HETATM   16  C   UNL     1     -10.848  16.445  69.125  1.00  0.00    -0.329 C  
HETATM   17  H   UNL     1      -9.853  16.166  70.791  1.00  0.00     0.000 HD 
HETATM   18  O   UNL     1      -9.688  16.023  69.866  1.00  0.00    -0.162 OA 
BRANCH  16  19
HETATM   19  C   UNL     1     -12.090  15.707  69.638  1.00  0.00    -0.308 C  
BRANCH  19  20
HETATM   20  O   UNL     1     -12.249  16.016  71.029  1.00  0.00    -0.407 OA 
HETATM   21  S   UNL     1     -12.955  14.878  71.951  1.00  0.00    -0.361 S  
HETATM   22  C   UNL     1     -12.880  15.753  73.496  1.00  0.00    -0.584 C  
HETATM   23  O   UNL     1     -12.075  13.729  72.018  1.00  0.00     0.068 OA 
HETATM   24  O   UNL     1     -14.343  14.765  71.550  1.00  0.00    -0.458 OA 
ENDBRANCH  19  20
ENDBRANCH  16  19
ENDBRANCH  13  16
ENDBRANCH  10  13
ENDBRANCH   7  10
ENDBRANCH   6   7
ENDBRANCH   3   6
TORSDOF 7
ENDMDL
MODEL      316
REMARK 921   NORMALIZED FREE ENERGY PREDICTED BY IDOCK:   -2.86 KCAL/MOL
REMARK 922        TOTAL FREE ENERGY PREDICTED BY IDOCK:   -5.28 KCAL/MOL
REMARK 923 INTER-LIGAND FREE ENERGY PREDICTED BY IDOCK:   -4.24 KCAL/MOL
REMARK 924 INTRA-LIGAND FREE ENERGY PREDICTED BY IDOCK:   -1.05 KCAL/MOL
REMARK 927      BINDING AFFINITY PREDICTED BY RF-SCORE:    0.00 PKD
ROOT
HETATM    1  C   UNL     1      -5.992   9.539  67.603  1.00  0.00    -0.052 C  
HETATM    2  S   UNL     1      -6.727  10.659  66.439  1.00  0.00    -0.132 S  
HETATM    3  O   UNL     1      -8.089  11.047  67.265  1.00  0.00    -0.119 OA 
HETATM    4  O   UNL     1      -5.897  11.841  66.353  1.00  0.00    -0.212 OA 
HETATM    5  O   UNL     1      -7.118   9.908  65.263  1.00  0.00    -0.116 OA 
ENDROOT
BRANCH   3   6
HETATM    6  C   UNL     1      -8.932  11.986  66.591  1.00  0.00    -0.204 C  
BRANCH   6   7
HETATM    7  C   UNL     1      -9.745  12.838  67.570  1.00  0.00    -0.201 C  
HETATM    8  O   UNL     1      -9.797  12.180  68.851  1.00  0.00    -0.405 OA 
HETATM    9  H   UNL     1     -10.302  12.709  69.459  1.00  0.00     0.000 HD 
BRANCH   7  10
HETATM   10  C   UNL     1      -9.102  14.222  67.807  1.00  0.00    -0.195 C  
HETATM   11  H   UNL     1      -7.522  15.189  67.131  1.00  0.00     0.000 HD 
HETATM   12  O   UNL     1      -7.917  14.337  66.985  1.00  0.00    -0.142 OA 
BRANCH  10  13
HETATM   13  C   UNL     1      -9.982  15.445  67.486  1.00  0.00    -0.226 C  
HETATM   14  O   UNL     1      -9.286  16.202  66.474  1.00  0.00    -0.229 OA 
HETATM   15  H   UNL     1      -9.828  16.957  66.276  1.00  0.00     0.000 HD 
BRANCH  13  16
HETATM   16  C   UNL     1     -10.310  16.361  68.678  1.00  0.00    -0.273 C  
HETATM   17  H   UNL     1     -11.940  17.095  69.481  1.00  0.00     0.000 HD 
HETATM   18  O   UNL     1     -11.738  16.531  68.745  1.00  0.00    -0.186 OA 
BRANCH  16  19
HETATM   19  C   UNL     1      -9.626  17.731  68.594  1.00  0.00    -0.322 C  
BRANCH  19  20
HETATM   20  O   UNL     1      -8.245  17.560  68.939  1.00  0.00    -0.253 OA 
HETATM   21  S   UNL     1      -7.189  18.580  68.238  1.00  0.00    -0.272 S  
HETATM   22  C   UNL     1      -5.715  17.948  69.003  1.00  0.00    -0.200 C  
HETATM   23  O   UNL     1      -7.441  19.917  68.737  1.00  0.00    -0.304 OA 
HETATM   24  O   UNL     1      -7.141  18.282  66.822  1.00  0.00    -0.193 OA 
ENDBRANCH  19  20
ENDBRANCH  16  19
ENDBRANCH  13  16
ENDBRANCH  10  13
ENDBRANCH   7  10
ENDBRANCH   6   7
ENDBRANCH   3   6
TORSDOF 7
ENDMDL
MODEL      317
REMARK 921   NORMALIZED FREE ENERGY PREDICTED BY IDOCK:   -2.86 KCAL/MOL
REMARK 922        TOTAL FREE ENERGY PREDICTED BY IDOCK:   -5.28 KCAL/MOL
REMARK 923 INTER-LIGAND FREE ENERGY PREDICTED BY IDOCK:   -4.17 KCAL/MOL
REMARK 924 INTRA-LIGAND FREE ENERGY PREDICTED BY IDOCK:   -1.11 KCAL/MOL
REMARK 927      BINDING AFFINITY PREDICTED BY RF-SCORE:    0.00 PKD
ROOT
HETATM    1  C   UNL     1      -6.705   9.660  64.536  1.00  0.00    -0.103 C  
HETATM    2  S   UNL     1      -8.070   8.539  64.367  1.00  0.00    -0.153 S  
HETATM    3  O   UNL     1      -7.946   7.749  65.797  1.00  0.00    -0.101 OA 
HETATM    4  O   UNL     1      -9.297   9.306  64.377  1.00  0.00    -0.087 OA 
HETATM    5  O   UNL     1      -7.764   7.598  63.309  1.00  0.00    -0.119 OA 
ENDROOT
BRANCH   3   6
HETATM    6  C   UNL     1      -8.950   6.749  66.000  1.00  0.00    -0.106 C  
BRANCH   6   7
HETATM    7  C   UNL     1      -9.986   7.176  67.044  1.00  0.00    -0.217 C  
HETATM    8  O   UNL     1     -11.262   6.586  66.725  1.00  0.00    -0.661 OA 
HETATM    9  H   UNL     1     -11.905   6.851  67.373  1.00  0.00     0.000 HD 
BRANCH   7  10
HETATM   10  C   UNL     1      -9.615   6.693  68.462  1.00  0.00    -0.125 C  
HETATM   11  H   UNL     1      -7.968   6.598  69.545  1.00  0.00     0.000 HD 
HETATM   12  O   UNL     1      -8.197   6.895  68.672  1.00  0.00    -0.119 OA 
BRANCH  10  13
HETATM   13  C   UNL     1     -10.337   7.390  69.631  1.00  0.00    -0.223 C  
HETATM   14  O   UNL     1     -11.534   7.982  69.085  1.00  0.00    -0.203 OA 
HETATM   15  H   UNL     1     -11.979   8.412  69.805  1.00  0.00     0.000 HD 
BRANCH  13  16
HETATM   16  C   UNL     1      -9.522   8.466  70.371  1.00  0.00    -0.168 C  
HETATM   17  H   UNL     1      -9.442   9.156  72.203  1.00  0.00     0.000 HD 
HETATM   18  O   UNL     1      -9.945   8.493  71.746  1.00  0.00    -0.220 OA 
BRANCH  16  19
HETATM   19  C   UNL     1      -9.665   9.862  69.754  1.00  0.00    -0.236 C  
BRANCH  19  20
HETATM   20  O   UNL     1     -10.690  10.562  70.472  1.00  0.00    -0.166 OA 
HETATM   21  S   UNL     1     -11.598  11.603  69.613  1.00  0.00    -0.330 S  
HETATM   22  C   UNL     1     -12.652  12.139  70.939  1.00  0.00    -0.247 C  
HETATM   23  O   UNL     1     -12.387  10.847  68.662  1.00  0.00    -0.501 OA 
HETATM   24  O   UNL     1     -10.759  12.713  69.209  1.00  0.00    -0.084 OA 
ENDBRANCH  19  20
ENDBRANCH  16  19
ENDBRANCH  13  16
ENDBRANCH  10  13
ENDBRANCH   7  10
ENDBRANCH   6   7
ENDBRANCH   3   6
TORSDOF 7
ENDMDL
MODEL      318
REMARK 921   NORMALIZED FREE ENERGY PREDICTED BY IDOCK:   -2.86 KCAL/MOL
REMARK 922        TOTAL FREE ENERGY PREDICTED BY IDOCK:   -5.27 KCAL/MOL
REMARK 923 INTER-LIGAND FREE ENERGY PREDICTED BY IDOCK:   -3.83 KCAL/MOL
REMARK 924 INTRA-LIGAND FREE ENERGY PREDICTED BY IDOCK:   -1.44 KCAL/MOL
REMARK 927      BINDING AFFINITY PREDICTED BY RF-SCORE:    0.00 PKD
ROOT
HETATM    1  C   UNL     1      -6.412   8.876  69.548  1.00  0.00    -0.043 C  
HETATM    2  S   UNL     1      -7.953   9.053  68.688  1.00  0.00    -0.103 S  
HETATM    3  O   UNL     1      -8.721   7.712  69.234  1.00  0.00    -0.135 OA 
HETATM    4  O   UNL     1      -8.640  10.214  69.212  1.00  0.00    -0.151 OA 
HETATM    5  O   UNL     1      -7.710   8.882  67.269  1.00  0.00    -0.092 OA 
ENDROOT
BRANCH   3   6
HETATM    6  C   UNL     1     -10.051   7.555  68.729  1.00  0.00    -0.185 C  
BRANCH   6   7
HETATM    7  C   UNL     1     -11.056   7.244  69.842  1.00  0.00    -0.212 C  
HETATM    8  O   UNL     1     -10.780   5.939  70.389  1.00  0.00    -0.259 OA 
HETATM    9  H   UNL     1     -11.403   5.746  71.080  1.00  0.00     0.000 HD 
BRANCH   7  10
HETATM   10  C   UNL     1     -10.956   8.246  71.012  1.00  0.00    -0.245 C  
HETATM   11  H   UNL     1     -12.114   9.641  71.792  1.00  0.00     0.000 HD 
HETATM   12  O   UNL     1     -12.176   9.024  71.072  1.00  0.00    -0.289 OA 
BRANCH  10  13
HETATM   13  C   UNL     1     -10.753   7.640  72.414  1.00  0.00    -0.280 C  
HETATM   14  O   UNL     1     -11.914   7.994  73.193  1.00  0.00    -0.646 OA 
HETATM   15  H   UNL     1     -11.789   7.621  74.056  1.00  0.00     0.000 HD 
BRANCH  13  16
HETATM   16  C   UNL     1      -9.481   8.088  73.155  1.00  0.00    -0.280 C  
HETATM   17  H   UNL     1      -8.011   9.334  72.799  1.00  0.00     0.000 HD 
HETATM   18  O   UNL     1      -8.795   9.058  72.341  1.00  0.00    -0.337 OA 
BRANCH  16  19
HETATM   19  C   UNL     1      -8.536   6.928  73.489  1.00  0.00    -0.131 C  
BRANCH  19  20
HETATM   20  O   UNL     1      -8.160   6.292  72.260  1.00  0.00    -0.108 OA 
HETATM   21  S   UNL     1      -8.145   4.665  72.257  1.00  0.00    -0.103 S  
HETATM   22  C   UNL     1      -7.649   4.441  70.566  1.00  0.00    -0.052 C  
HETATM   23  O   UNL     1      -9.506   4.193  72.414  1.00  0.00    -0.122 OA 
HETATM   24  O   UNL     1      -7.070   4.220  73.119  1.00  0.00    -0.063 OA 
ENDBRANCH  19  20
ENDBRANCH  16  19
ENDBRANCH  13  16
ENDBRANCH  10  13
ENDBRANCH   7  10
ENDBRANCH   6   7
ENDBRANCH   3   6
TORSDOF 7
ENDMDL
MODEL      319
REMARK 921   NORMALIZED FREE ENERGY PREDICTED BY IDOCK:   -2.86 KCAL/MOL
REMARK 922        TOTAL FREE ENERGY PREDICTED BY IDOCK:   -5.27 KCAL/MOL
REMARK 923 INTER-LIGAND FREE ENERGY PREDICTED BY IDOCK:   -4.60 KCAL/MOL
REMARK 924 INTRA-LIGAND FREE ENERGY PREDICTED BY IDOCK:   -0.67 KCAL/MOL
REMARK 927      BINDING AFFINITY PREDICTED BY RF-SCORE:    0.00 PKD
ROOT
HETATM    1  C   UNL     1      -6.156  10.316  64.884  1.00  0.00    -0.128 C  
HETATM    2  S   UNL     1      -7.641   9.808  65.713  1.00  0.00    -0.112 S  
HETATM    3  O   UNL     1      -8.481  11.213  65.644  1.00  0.00    -0.145 OA 
HETATM    4  O   UNL     1      -8.318   8.834  64.884  1.00  0.00    -0.153 OA 
HETATM    5  O   UNL     1      -7.325   9.544  67.102  1.00  0.00    -0.087 OA 
ENDROOT
BRANCH   3   6
HETATM    6  C   UNL     1      -9.786  11.142  66.229  1.00  0.00    -0.211 C  
BRANCH   6   7
HETATM    7  C   UNL     1     -10.183  12.454  66.913  1.00  0.00    -0.225 C  
HETATM    8  O   UNL     1      -9.312  12.695  68.035  1.00  0.00    -0.197 OA 
HETATM    9  H   UNL     1      -9.558  13.509  68.459  1.00  0.00     0.000 HD 
BRANCH   7  10
HETATM   10  C   UNL     1     -10.038  13.667  65.969  1.00  0.00    -0.312 C  
HETATM   11  H   UNL     1     -11.133  14.513  64.563  1.00  0.00     0.000 HD 
HETATM   12  O   UNL     1     -11.222  13.766  65.143  1.00  0.00    -0.301 OA 
BRANCH  10  13
HETATM   13  C   UNL     1      -9.858  15.039  66.646  1.00  0.00    -0.254 C  
HETATM   14  O   UNL     1     -10.724  15.962  65.952  1.00  0.00    -0.323 OA 
HETATM   15  H   UNL     1     -10.613  16.808  66.369  1.00  0.00     0.000 HD 
BRANCH  13  16
HETATM   16  C   UNL     1      -8.422  15.593  66.659  1.00  0.00    -0.288 C  
HETATM   17  H   UNL     1      -6.959  15.676  67.960  1.00  0.00     0.000 HD 
HETATM   18  O   UNL     1      -7.845  15.335  67.953  1.00  0.00    -0.125 OA 
BRANCH  16  19
HETATM   19  C   UNL     1      -8.350  17.092  66.346  1.00  0.00    -0.284 C  
BRANCH  19  20
HETATM   20  O   UNL     1      -7.695  17.744  67.442  1.00  0.00    -0.198 OA 
HETATM   21  S   UNL     1      -8.161  19.269  67.765  1.00  0.00    -0.295 S  
HETATM   22  C   UNL     1      -7.085  19.551  69.150  1.00  0.00    -0.357 C  
HETATM   23  O   UNL     1      -9.532  19.241  68.233  1.00  0.00    -0.323 OA 
HETATM   24  O   UNL     1      -7.738  20.115  66.669  1.00  0.00    -0.286 OA 
ENDBRANCH  19  20
ENDBRANCH  16  19
ENDBRANCH  13  16
ENDBRANCH  10  13
ENDBRANCH   7  10
ENDBRANCH   6   7
ENDBRANCH   3   6
TORSDOF 7
ENDMDL
MODEL      320
REMARK 921   NORMALIZED FREE ENERGY PREDICTED BY IDOCK:   -2.85 KCAL/MOL
REMARK 922        TOTAL FREE ENERGY PREDICTED BY IDOCK:   -5.26 KCAL/MOL
REMARK 923 INTER-LIGAND FREE ENERGY PREDICTED BY IDOCK:   -4.10 KCAL/MOL
REMARK 924 INTRA-LIGAND FREE ENERGY PREDICTED BY IDOCK:   -1.16 KCAL/MOL
REMARK 927      BINDING AFFINITY PREDICTED BY RF-SCORE:    0.00 PKD
ROOT
HETATM    1  C   UNL     1     -10.350  10.720  64.400  1.00  0.00    -0.335 C  
HETATM    2  S   UNL     1      -9.221   9.900  65.497  1.00  0.00    -0.223 S  
HETATM    3  O   UNL     1     -10.288   9.335  66.606  1.00  0.00    -0.259 OA 
HETATM    4  O   UNL     1      -8.647   8.768  64.802  1.00  0.00    -0.174 OA 
HETATM    5  O   UNL     1      -8.397  10.902  66.142  1.00  0.00    -0.162 OA 
ENDROOT
BRANCH   3   6
HETATM    6  C   UNL     1      -9.687   8.579  67.661  1.00  0.00    -0.160 C  
BRANCH   6   7
HETATM    7  C   UNL     1     -10.069   7.097  67.599  1.00  0.00    -0.180 C  
HETATM    8  O   UNL     1     -10.738   6.825  66.352  1.00  0.00    -0.490 OA 
HETATM    9  H   UNL     1     -10.975   5.905  66.314  1.00  0.00     0.000 HD 
BRANCH   7  10
HETATM   10  C   UNL     1      -8.831   6.175  67.651  1.00  0.00    -0.103 C  
HETATM   11  H   UNL     1      -6.878   6.410  67.501  1.00  0.00     0.000 HD 
HETATM   12  O   UNL     1      -7.640   6.977  67.470  1.00  0.00    -0.104 OA 
BRANCH  10  13
HETATM   13  C   UNL     1      -8.630   5.376  68.952  1.00  0.00    -0.099 C  
HETATM   14  O   UNL     1      -9.838   4.616  69.164  1.00  0.00    -0.183 OA 
HETATM   15  H   UNL     1      -9.715   4.123  69.966  1.00  0.00     0.000 HD 
BRANCH  13  16
HETATM   16  C   UNL     1      -8.324   6.213  70.207  1.00  0.00    -0.125 C  
HETATM   17  H   UNL     1      -6.817   6.387  71.448  1.00  0.00     0.000 HD 
HETATM   18  O   UNL     1      -7.006   5.870  70.674  1.00  0.00    -0.058 OA 
BRANCH  16  19
HETATM   19  C   UNL     1      -9.345   6.010  71.332  1.00  0.00    -0.146 C  
BRANCH  19  20
HETATM   20  O   UNL     1     -10.235   7.135  71.334  1.00  0.00    -0.193 OA 
HETATM   21  S   UNL     1     -11.817   6.811  71.140  1.00  0.00    -0.370 S  
HETATM   22  C   UNL     1     -12.408   8.484  71.234  1.00  0.00    -0.271 C  
HETATM   23  O   UNL     1     -12.283   6.082  72.301  1.00  0.00    -0.281 OA 
HETATM   24  O   UNL     1     -12.019   6.324  69.791  1.00  0.00    -0.185 OA 
ENDBRANCH  19  20
ENDBRANCH  16  19
ENDBRANCH  13  16
ENDBRANCH  10  13
ENDBRANCH   7  10
ENDBRANCH   6   7
ENDBRANCH   3   6
TORSDOF 7
ENDMDL
MODEL      321
REMARK 921   NORMALIZED FREE ENERGY PREDICTED BY IDOCK:   -2.84 KCAL/MOL
REMARK 922        TOTAL FREE ENERGY PREDICTED BY IDOCK:   -5.25 KCAL/MOL
REMARK 923 INTER-LIGAND FREE ENERGY PREDICTED BY IDOCK:   -5.51 KCAL/MOL
REMARK 924 INTRA-LIGAND FREE ENERGY PREDICTED BY IDOCK:    0.26 KCAL/MOL
REMARK 927      BINDING AFFINITY PREDICTED BY RF-SCORE:    0.00 PKD
ROOT
HETATM    1  C   UNL     1      -8.006  10.316  64.553  1.00  0.00    -0.133 C  
HETATM    2  S   UNL     1      -7.983  10.468  66.321  1.00  0.00    -0.149 S  
HETATM    3  O   UNL     1      -8.468  12.027  66.463  1.00  0.00    -0.160 OA 
HETATM    4  O   UNL     1      -9.019   9.619  66.869  1.00  0.00    -0.133 OA 
HETATM    5  O   UNL     1      -6.608  10.386  66.771  1.00  0.00    -0.070 OA 
ENDROOT
BRANCH   3   6
HETATM    6  C   UNL     1      -8.578  12.483  67.815  1.00  0.00    -0.178 C  
BRANCH   6   7
HETATM    7  C   UNL     1     -10.037  12.655  68.248  1.00  0.00    -0.233 C  
HETATM    8  O   UNL     1     -10.148  13.792  69.127  1.00  0.00    -0.426 OA 
HETATM    9  H   UNL     1     -11.053  13.898  69.395  1.00  0.00     0.000 HD 
BRANCH   7  10
HETATM   10  C   UNL     1     -10.970  12.928  67.048  1.00  0.00    -0.262 C  
HETATM   11  H   UNL     1     -12.664  12.181  66.367  1.00  0.00     0.000 HD 
HETATM   12  O   UNL     1     -12.090  12.013  67.105  1.00  0.00    -0.587 OA 
BRANCH  10  13
HETATM   13  C   UNL     1     -11.565  14.346  66.957  1.00  0.00    -0.384 C  
HETATM   14  O   UNL     1     -11.872  14.579  65.567  1.00  0.00    -0.351 OA 
HETATM   15  H   UNL     1     -12.239  15.453  65.510  1.00  0.00     0.000 HD 
BRANCH  13  16
HETATM   16  C   UNL     1     -10.666  15.480  67.481  1.00  0.00    -0.300 C  
HETATM   17  H   UNL     1     -10.850  16.931  68.787  1.00  0.00     0.000 HD 
HETATM   18  O   UNL     1     -11.405  16.231  68.463  1.00  0.00    -0.367 OA 
BRANCH  16  19
HETATM   19  C   UNL     1     -10.169  16.417  66.375  1.00  0.00    -0.316 C  
BRANCH  19  20
HETATM   20  O   UNL     1      -9.630  17.592  66.996  1.00  0.00    -0.253 OA 
HETATM   21  S   UNL     1      -8.011  17.748  66.975  1.00  0.00    -0.226 S  
HETATM   22  C   UNL     1      -7.918  19.307  67.823  1.00  0.00    -0.277 C  
HETATM   23  O   UNL     1      -7.584  17.934  65.603  1.00  0.00    -0.546 OA 
HETATM   24  O   UNL     1      -7.445  16.722  67.827  1.00  0.00    -0.156 OA 
ENDBRANCH  19  20
ENDBRANCH  16  19
ENDBRANCH  13  16
ENDBRANCH  10  13
ENDBRANCH   7  10
ENDBRANCH   6   7
ENDBRANCH   3   6
TORSDOF 7
ENDMDL
MODEL      322
REMARK 921   NORMALIZED FREE ENERGY PREDICTED BY IDOCK:   -2.84 KCAL/MOL
REMARK 922        TOTAL FREE ENERGY PREDICTED BY IDOCK:   -5.24 KCAL/MOL
REMARK 923 INTER-LIGAND FREE ENERGY PREDICTED BY IDOCK:   -4.56 KCAL/MOL
REMARK 924 INTRA-LIGAND FREE ENERGY PREDICTED BY IDOCK:   -0.68 KCAL/MOL
REMARK 927      BINDING AFFINITY PREDICTED BY RF-SCORE:    0.00 PKD
ROOT
HETATM    1  C   UNL     1     -11.924  13.460  69.956  1.00  0.00    -0.337 C  
HETATM    2  S   UNL     1     -11.002  14.014  68.545  1.00  0.00    -0.266 S  
HETATM    3  O   UNL     1     -10.172  15.247  69.235  1.00  0.00    -0.226 OA 
HETATM    4  O   UNL     1     -10.058  12.980  68.180  1.00  0.00    -0.225 OA 
HETATM    5  O   UNL     1     -11.927  14.581  67.585  1.00  0.00    -0.374 OA 
ENDROOT
BRANCH   3   6
HETATM    6  C   UNL     1      -9.282  15.924  68.341  1.00  0.00    -0.197 C  
BRANCH   6   7
HETATM    7  C   UNL     1      -8.051  15.077  68.004  1.00  0.00    -0.130 C  
HETATM    8  O   UNL     1      -8.098  14.692  66.616  1.00  0.00    -0.358 OA 
HETATM    9  H   UNL     1      -7.333  14.167  66.407  1.00  0.00     0.000 HD 
BRANCH   7  10
HETATM   10  C   UNL     1      -6.736  15.861  68.203  1.00  0.00    -0.123 C  
HETATM   11  H   UNL     1      -4.811  15.427  68.220  1.00  0.00     0.000 HD 
HETATM   12  O   UNL     1      -5.621  14.945  68.097  1.00  0.00    -0.111 OA 
BRANCH  10  13
HETATM   13  C   UNL     1      -6.464  17.002  67.203  1.00  0.00    -0.178 C  
HETATM   14  O   UNL     1      -5.532  16.487  66.230  1.00  0.00    -0.174 OA 
HETATM   15  H   UNL     1      -5.364  17.190  65.614  1.00  0.00     0.000 HD 
BRANCH  13  16
HETATM   16  C   UNL     1      -5.908  18.302  67.811  1.00  0.00    -0.158 C  
HETATM   17  H   UNL     1      -5.460  18.934  69.611  1.00  0.00     0.000 HD 
HETATM   18  O   UNL     1      -5.804  18.132  69.236  1.00  0.00    -0.209 OA 
BRANCH  16  19
HETATM   19  C   UNL     1      -6.767  19.532  67.494  1.00  0.00    -0.210 C  
BRANCH  19  20
HETATM   20  O   UNL     1      -7.934  19.486  68.326  1.00  0.00    -0.314 OA 
HETATM   21  S   UNL     1      -9.360  19.758  67.594  1.00  0.00    -0.358 S  
HETATM   22  C   UNL     1     -10.395  19.572  69.027  1.00  0.00    -0.097 C  
HETATM   23  O   UNL     1      -9.623  18.665  66.680  1.00  0.00    -0.307 OA 
HETATM   24  O   UNL     1      -9.398  21.143  67.171  1.00  0.00    -0.208 OA 
ENDBRANCH  19  20
ENDBRANCH  16  19
ENDBRANCH  13  16
ENDBRANCH  10  13
ENDBRANCH   7  10
ENDBRANCH   6   7
ENDBRANCH   3   6
TORSDOF 7
ENDMDL
MODEL      323
REMARK 921   NORMALIZED FREE ENERGY PREDICTED BY IDOCK:   -2.83 KCAL/MOL
REMARK 922        TOTAL FREE ENERGY PREDICTED BY IDOCK:   -5.23 KCAL/MOL
REMARK 923 INTER-LIGAND FREE ENERGY PREDICTED BY IDOCK:   -4.22 KCAL/MOL
REMARK 924 INTRA-LIGAND FREE ENERGY PREDICTED BY IDOCK:   -1.01 KCAL/MOL
REMARK 927      BINDING AFFINITY PREDICTED BY RF-SCORE:    0.00 PKD
ROOT
HETATM    1  C   UNL     1     -11.649  11.854  66.821  1.00  0.00    -0.268 C  
HETATM    2  S   UNL     1      -9.916  11.665  67.157  1.00  0.00    -0.201 S  
HETATM    3  O   UNL     1      -9.666  13.020  68.045  1.00  0.00    -0.211 OA 
HETATM    4  O   UNL     1      -9.739  10.517  68.020  1.00  0.00    -0.145 OA 
HETATM    5  O   UNL     1      -9.189  11.808  65.912  1.00  0.00    -0.223 OA 
ENDROOT
BRANCH   3   6
HETATM    6  C   UNL     1      -8.322  13.171  68.512  1.00  0.00    -0.063 C  
BRANCH   6   7
HETATM    7  C   UNL     1      -7.940  14.642  68.703  1.00  0.00    -0.141 C  
HETATM    8  O   UNL     1      -6.985  14.755  69.777  1.00  0.00    -0.169 OA 
HETATM    9  H   UNL     1      -6.748  15.668  69.895  1.00  0.00     0.000 HD 
BRANCH   7  10
HETATM   10  C   UNL     1      -7.269  15.236  67.446  1.00  0.00    -0.204 C  
HETATM   11  H   UNL     1      -6.024  14.588  66.060  1.00  0.00     0.000 HD 
HETATM   12  O   UNL     1      -6.437  14.222  66.833  1.00  0.00     0.198 OA 
BRANCH  10  13
HETATM   13  C   UNL     1      -8.217  15.750  66.346  1.00  0.00    -0.171 C  
HETATM   14  O   UNL     1      -7.558  16.870  65.719  1.00  0.00    -0.206 OA 
HETATM   15  H   UNL     1      -8.142  17.187  65.041  1.00  0.00     0.000 HD 
BRANCH  13  16
HETATM   16  C   UNL     1      -9.617  16.179  66.820  1.00  0.00    -0.240 C  
HETATM   17  H   UNL     1     -11.462  15.676  66.392  1.00  0.00     0.000 HD 
HETATM   18  O   UNL     1     -10.599  15.411  66.099  1.00  0.00    -0.298 OA 
BRANCH  16  19
HETATM   19  C   UNL     1      -9.886  17.676  66.633  1.00  0.00    -0.309 C  
BRANCH  19  20
HETATM   20  O   UNL     1      -8.916  18.402  67.401  1.00  0.00    -0.258 OA 
HETATM   21  S   UNL     1      -8.663  19.951  66.975  1.00  0.00    -0.349 S  
HETATM   22  C   UNL     1      -7.442  20.333  68.209  1.00  0.00    -0.139 C  
HETATM   23  O   UNL     1      -9.866  20.707  67.255  1.00  0.00    -0.471 OA 
HETATM   24  O   UNL     1      -8.027  19.966  65.674  1.00  0.00    -0.353 OA 
ENDBRANCH  19  20
ENDBRANCH  16  19
ENDBRANCH  13  16
ENDBRANCH  10  13
ENDBRANCH   7  10
ENDBRANCH   6   7
ENDBRANCH   3   6
TORSDOF 7
ENDMDL
MODEL      324
REMARK 921   NORMALIZED FREE ENERGY PREDICTED BY IDOCK:   -2.82 KCAL/MOL
REMARK 922        TOTAL FREE ENERGY PREDICTED BY IDOCK:   -5.22 KCAL/MOL
REMARK 923 INTER-LIGAND FREE ENERGY PREDICTED BY IDOCK:   -4.65 KCAL/MOL
REMARK 924 INTRA-LIGAND FREE ENERGY PREDICTED BY IDOCK:   -0.57 KCAL/MOL
REMARK 927      BINDING AFFINITY PREDICTED BY RF-SCORE:    0.00 PKD
ROOT
HETATM    1  C   UNL     1     -11.323  11.233  63.255  1.00  0.00     0.174 C  
HETATM    2  S   UNL     1     -11.902  12.764  63.940  1.00  0.00    -0.511 S  
HETATM    3  O   UNL     1     -10.717  13.030  65.041  1.00  0.00    -0.293 OA 
HETATM    4  O   UNL     1     -11.811  13.787  62.920  1.00  0.00     0.168 OA 
HETATM    5  O   UNL     1     -13.133  12.509  64.662  1.00  0.00    -0.845 OA 
ENDROOT
BRANCH   3   6
HETATM    6  C   UNL     1     -10.874  14.243  65.785  1.00  0.00    -0.303 C  
BRANCH   6   7
HETATM    7  C   UNL     1      -9.831  15.295  65.396  1.00  0.00    -0.283 C  
HETATM    8  O   UNL     1     -10.389  16.184  64.409  1.00  0.00    -0.380 OA 
HETATM    9  H   UNL     1      -9.741  16.837  64.168  1.00  0.00     0.000 HD 
BRANCH   7  10
HETATM   10  C   UNL     1      -9.414  16.170  66.598  1.00  0.00    -0.247 C  
HETATM   11  H   UNL     1     -10.340  17.322  67.906  1.00  0.00     0.000 HD 
HETATM   12  O   UNL     1     -10.596  16.783  67.166  1.00  0.00    -0.315 OA 
BRANCH  10  13
HETATM   13  C   UNL     1      -8.696  15.446  67.753  1.00  0.00    -0.164 C  
HETATM   14  O   UNL     1      -9.702  15.145  68.743  1.00  0.00    -0.205 OA 
HETATM   15  H   UNL     1      -9.259  14.698  69.455  1.00  0.00     0.000 HD 
BRANCH  13  16
HETATM   16  C   UNL     1      -7.542  16.222  68.411  1.00  0.00    -0.166 C  
HETATM   17  H   UNL     1      -6.033  15.775  69.579  1.00  0.00     0.000 HD 
HETATM   18  O   UNL     1      -6.745  15.296  69.173  1.00  0.00    -0.118 OA 
BRANCH  16  19
HETATM   19  C   UNL     1      -8.021  17.364  69.315  1.00  0.00     0.126 C  
BRANCH  19  20
HETATM   20  O   UNL     1      -7.616  18.603  68.719  1.00  0.00    -0.306 OA 
HETATM   21  S   UNL     1      -6.261  19.285  69.306  1.00  0.00    -0.291 S  
HETATM   22  C   UNL     1      -6.237  20.708  68.242  1.00  0.00    -0.327 C  
HETATM   23  O   UNL     1      -5.137  18.432  68.976  1.00  0.00    -0.179 OA 
HETATM   24  O   UNL     1      -6.524  19.723  70.661  1.00  0.00    -0.182 OA 
ENDBRANCH  19  20
ENDBRANCH  16  19
ENDBRANCH  13  16
ENDBRANCH  10  13
ENDBRANCH   7  10
ENDBRANCH   6   7
ENDBRANCH   3   6
TORSDOF 7
ENDMDL
MODEL      325
REMARK 921   NORMALIZED FREE ENERGY PREDICTED BY IDOCK:   -2.81 KCAL/MOL
REMARK 922        TOTAL FREE ENERGY PREDICTED BY IDOCK:   -5.21 KCAL/MOL
REMARK 923 INTER-LIGAND FREE ENERGY PREDICTED BY IDOCK:   -4.86 KCAL/MOL
REMARK 924 INTRA-LIGAND FREE ENERGY PREDICTED BY IDOCK:   -0.34 KCAL/MOL
REMARK 927      BINDING AFFINITY PREDICTED BY RF-SCORE:    0.00 PKD
ROOT
HETATM    1  C   UNL     1     -12.046  14.234  66.344  1.00  0.00    -0.419 C  
HETATM    2  S   UNL     1     -11.646  13.801  64.671  1.00  0.00    -0.396 S  
HETATM    3  O   UNL     1     -11.605  12.169  64.820  1.00  0.00    -0.331 OA 
HETATM    4  O   UNL     1     -12.768  14.151  63.826  1.00  0.00    -0.761 OA 
HETATM    5  O   UNL     1     -10.301  14.257  64.387  1.00  0.00    -0.240 OA 
ENDROOT
BRANCH   3   6
HETATM    6  C   UNL     1     -11.317  11.479  63.599  1.00  0.00    -0.318 C  
BRANCH   6   7
HETATM    7  C   UNL     1      -9.880  10.950  63.561  1.00  0.00    -0.359 C  
HETATM    8  O   UNL     1      -8.992  12.003  63.138  1.00  0.00    -0.579 OA 
HETATM    9  H   UNL     1      -8.100  11.675  63.115  1.00  0.00     0.000 HD 
BRANCH   7  10
HETATM   10  C   UNL     1      -9.394  10.490  64.952  1.00  0.00    -0.232 C  
HETATM   11  H   UNL     1      -8.802  11.372  66.614  1.00  0.00     0.000 HD 
HETATM   12  O   UNL     1      -9.101  11.656  65.758  1.00  0.00    -0.201 OA 
BRANCH  10  13
HETATM   13  C   UNL     1     -10.377   9.628  65.766  1.00  0.00     0.040 C  
HETATM   14  O   UNL     1     -10.849  10.450  66.854  1.00  0.00    -0.236 OA 
HETATM   15  H   UNL     1     -11.454   9.919  67.356  1.00  0.00     0.000 HD 
BRANCH  13  16
HETATM   16  C   UNL     1      -9.805   8.314  66.327  1.00  0.00    -0.157 C  
HETATM   17  H   UNL     1     -10.427   6.920  67.556  1.00  0.00     0.000 HD 
HETATM   18  O   UNL     1     -10.780   7.731  67.211  1.00  0.00    -0.307 OA 
BRANCH  16  19
HETATM   19  C   UNL     1      -8.476   8.501  67.068  1.00  0.00    -0.114 C  
BRANCH  19  20
HETATM   20  O   UNL     1      -7.605   7.423  66.699  1.00  0.00    -0.095 OA 
HETATM   21  S   UNL     1      -6.206   7.832  65.977  1.00  0.00    -0.042 S  
HETATM   22  C   UNL     1      -5.562   6.189  65.772  1.00  0.00    -0.017 C  
HETATM   23  O   UNL     1      -5.385   8.543  66.936  1.00  0.00    -0.035 OA 
HETATM   24  O   UNL     1      -6.512   8.377  64.670  1.00  0.00    -0.064 OA 
ENDBRANCH  19  20
ENDBRANCH  16  19
ENDBRANCH  13  16
ENDBRANCH  10  13
ENDBRANCH   7  10
ENDBRANCH   6   7
ENDBRANCH   3   6
TORSDOF 7
ENDMDL
MODEL      326
REMARK 921   NORMALIZED FREE ENERGY PREDICTED BY IDOCK:   -2.81 KCAL/MOL
REMARK 922        TOTAL FREE ENERGY PREDICTED BY IDOCK:   -5.20 KCAL/MOL
REMARK 923 INTER-LIGAND FREE ENERGY PREDICTED BY IDOCK:   -5.42 KCAL/MOL
REMARK 924 INTRA-LIGAND FREE ENERGY PREDICTED BY IDOCK:    0.22 KCAL/MOL
REMARK 927      BINDING AFFINITY PREDICTED BY RF-SCORE:    0.00 PKD
ROOT
HETATM    1  C   UNL     1      -7.245  14.424  67.355  1.00  0.00    -0.122 C  
HETATM    2  S   UNL     1      -8.295  15.844  67.177  1.00  0.00    -0.223 S  
HETATM    3  O   UNL     1      -9.338  15.266  66.052  1.00  0.00    -0.307 OA 
HETATM    4  O   UNL     1      -9.022  16.035  68.414  1.00  0.00    -0.179 OA 
HETATM    5  O   UNL     1      -7.527  16.910  66.567  1.00  0.00    -0.236 OA 
ENDROOT
BRANCH   3   6
HETATM    6  C   UNL     1     -10.367  16.189  65.682  1.00  0.00    -0.382 C  
BRANCH   6   7
HETATM    7  C   UNL     1     -11.637  15.477  65.207  1.00  0.00     0.000 C  
HETATM    8  O   UNL     1     -11.611  15.355  63.771  1.00  0.00    -0.659 OA 
HETATM    9  H   UNL     1     -12.399  14.913  63.476  1.00  0.00     0.000 HD 
BRANCH   7  10
HETATM   10  C   UNL     1     -11.745  14.044  65.772  1.00  0.00    -0.363 C  
HETATM   11  H   UNL     1     -11.209  12.239  65.183  1.00  0.00     0.000 HD 
HETATM   12  O   UNL     1     -11.142  13.121  64.835  1.00  0.00    -0.296 OA 
BRANCH  10  13
HETATM   13  C   UNL     1     -11.065  13.796  67.132  1.00  0.00    -0.302 C  
HETATM   14  O   UNL     1     -10.530  12.456  67.091  1.00  0.00    -0.218 OA 
HETATM   15  H   UNL     1     -10.112  12.303  67.929  1.00  0.00     0.000 HD 
BRANCH  13  16
HETATM   16  C   UNL     1     -11.970  13.950  68.368  1.00  0.00    -0.356 C  
HETATM   17  H   UNL     1     -12.864  15.436  69.280  1.00  0.00     0.000 HD 
HETATM   18  O   UNL     1     -12.305  15.342  68.517  1.00  0.00    -0.044 OA 
BRANCH  16  19
HETATM   19  C   UNL     1     -11.326  13.427  69.657  1.00  0.00    -0.137 C  
BRANCH  19  20
HETATM   20  O   UNL     1     -12.208  12.454  70.232  1.00  0.00    -0.327 OA 
HETATM   21  S   UNL     1     -11.953  10.903  69.814  1.00  0.00    -0.359 S  
HETATM   22  C   UNL     1     -13.258  10.184  70.783  1.00  0.00    -0.226 C  
HETATM   23  O   UNL     1     -10.678  10.484  70.359  1.00  0.00    -0.217 OA 
HETATM   24  O   UNL     1     -12.279  10.751  68.411  1.00  0.00    -0.470 OA 
ENDBRANCH  19  20
ENDBRANCH  16  19
ENDBRANCH  13  16
ENDBRANCH  10  13
ENDBRANCH   7  10
ENDBRANCH   6   7
ENDBRANCH   3   6
TORSDOF 7
ENDMDL
MODEL      327
REMARK 921   NORMALIZED FREE ENERGY PREDICTED BY IDOCK:   -2.80 KCAL/MOL
REMARK 922        TOTAL FREE ENERGY PREDICTED BY IDOCK:   -5.20 KCAL/MOL
REMARK 923 INTER-LIGAND FREE ENERGY PREDICTED BY IDOCK:   -4.36 KCAL/MOL
REMARK 924 INTRA-LIGAND FREE ENERGY PREDICTED BY IDOCK:   -0.84 KCAL/MOL
REMARK 927      BINDING AFFINITY PREDICTED BY RF-SCORE:    0.00 PKD
ROOT
HETATM    1  C   UNL     1     -12.155  14.090  66.957  1.00  0.00    -0.420 C  
HETATM    2  S   UNL     1     -11.092  13.062  65.976  1.00  0.00    -0.284 S  
HETATM    3  O   UNL     1     -10.167  12.419  67.166  1.00  0.00    -0.215 OA 
HETATM    4  O   UNL     1     -11.887  12.001  65.396  1.00  0.00    -0.338 OA 
HETATM    5  O   UNL     1     -10.246  13.915  65.166  1.00  0.00    -0.359 OA 
ENDROOT
BRANCH   3   6
HETATM    6  C   UNL     1      -9.180  11.492  66.702  1.00  0.00    -0.186 C  
BRANCH   6   7
HETATM    7  C   UNL     1      -9.435  10.073  67.219  1.00  0.00    -0.154 C  
HETATM    8  O   UNL     1     -10.585  10.076  68.087  1.00  0.00    -0.198 OA 
HETATM    9  H   UNL     1     -10.743   9.195  68.407  1.00  0.00     0.000 HD 
BRANCH   7  10
HETATM   10  C   UNL     1      -9.744   9.085  66.073  1.00  0.00    -0.269 C  
HETATM   11  H   UNL     1      -9.479   9.047  64.119  1.00  0.00     0.000 HD 
HETATM   12  O   UNL     1      -9.289   9.655  64.824  1.00  0.00    -0.250 OA 
BRANCH  10  13
HETATM   13  C   UNL     1      -9.098   7.691  66.182  1.00  0.00    -0.144 C  
HETATM   14  O   UNL     1      -8.862   7.235  64.833  1.00  0.00    -0.351 OA 
HETATM   15  H   UNL     1      -8.464   6.376  64.900  1.00  0.00     0.000 HD 
BRANCH  13  16
HETATM   16  C   UNL     1      -9.916   6.634  66.946  1.00  0.00    -0.180 C  
HETATM   17  H   UNL     1     -11.742   6.506  67.645  1.00  0.00     0.000 HD 
HETATM   18  O   UNL     1     -11.237   7.158  67.175  1.00  0.00    -0.276 OA 
BRANCH  16  19
HETATM   19  C   UNL     1      -9.279   6.225  68.279  1.00  0.00    -0.111 C  
BRANCH  19  20
HETATM   20  O   UNL     1      -9.393   4.802  68.407  1.00  0.00    -0.118 OA 
HETATM   21  S   UNL     1      -9.046   4.173  69.867  1.00  0.00    -0.128 S  
HETATM   22  C   UNL     1      -9.354   2.470  69.464  1.00  0.00    -0.102 C  
HETATM   23  O   UNL     1     -10.050   4.622  70.810  1.00  0.00    -0.224 OA 
HETATM   24  O   UNL     1      -7.628   4.343  70.110  1.00  0.00    -0.049 OA 
ENDBRANCH  19  20
ENDBRANCH  16  19
ENDBRANCH  13  16
ENDBRANCH  10  13
ENDBRANCH   7  10
ENDBRANCH   6   7
ENDBRANCH   3   6
TORSDOF 7
ENDMDL
MODEL      328
REMARK 921   NORMALIZED FREE ENERGY PREDICTED BY IDOCK:   -2.80 KCAL/MOL
REMARK 922        TOTAL FREE ENERGY PREDICTED BY IDOCK:   -5.20 KCAL/MOL
REMARK 923 INTER-LIGAND FREE ENERGY PREDICTED BY IDOCK:   -4.29 KCAL/MOL
REMARK 924 INTRA-LIGAND FREE ENERGY PREDICTED BY IDOCK:   -0.90 KCAL/MOL
REMARK 927      BINDING AFFINITY PREDICTED BY RF-SCORE:    0.00 PKD
ROOT
HETATM    1  C   UNL     1     -12.496  11.239  70.863  1.00  0.00    -0.394 C  
HETATM    2  S   UNL     1     -11.442  11.585  69.478  1.00  0.00    -0.318 S  
HETATM    3  O   UNL     1     -11.116  13.163  69.777  1.00  0.00    -0.033 OA 
HETATM    4  O   UNL     1     -10.216  10.831  69.635  1.00  0.00    -0.180 OA 
HETATM    5  O   UNL     1     -12.235  11.515  68.268  1.00  0.00    -0.561 OA 
ENDROOT
BRANCH   3   6
HETATM    6  C   UNL     1     -10.239  13.769  68.822  1.00  0.00    -0.163 C  
BRANCH   6   7
HETATM    7  C   UNL     1     -10.916  14.917  68.066  1.00  0.00    -0.279 C  
HETATM    8  O   UNL     1      -9.951  15.955  67.804  1.00  0.00    -0.225 OA 
HETATM    9  H   UNL     1     -10.371  16.667  67.335  1.00  0.00     0.000 HD 
BRANCH   7  10
HETATM   10  C   UNL     1     -11.465  14.465  66.695  1.00  0.00    -0.363 C  
HETATM   11  H   UNL     1     -12.712  15.197  65.353  1.00  0.00     0.000 HD 
HETATM   12  O   UNL     1     -12.374  15.475  66.197  1.00  0.00     0.725 OA 
BRANCH  10  13
HETATM   13  C   UNL     1     -10.421  14.227  65.588  1.00  0.00    -0.324 C  
HETATM   14  O   UNL     1     -10.377  15.431  64.793  1.00  0.00    -0.449 OA 
HETATM   15  H   UNL     1      -9.734  15.284  64.110  1.00  0.00     0.000 HD 
BRANCH  13  16
HETATM   16  C   UNL     1     -10.684  13.017  64.673  1.00  0.00    -0.367 C  
HETATM   17  H   UNL     1     -12.076  11.646  64.521  1.00  0.00     0.000 HD 
HETATM   18  O   UNL     1     -11.914  12.392  65.085  1.00  0.00    -0.392 OA 
BRANCH  16  19
HETATM   19  C   UNL     1      -9.546  11.990  64.689  1.00  0.00     0.021 C  
BRANCH  19  20
HETATM   20  O   UNL     1      -9.997  10.838  65.415  1.00  0.00    -0.238 OA 
HETATM   21  S   UNL     1      -8.954   9.595  65.526  1.00  0.00    -0.199 S  
HETATM   22  C   UNL     1      -9.984   8.515  66.491  1.00  0.00    -0.280 C  
HETATM   23  O   UNL     1      -7.826  10.013  66.333  1.00  0.00    -0.109 OA 
HETATM   24  O   UNL     1      -8.788   9.021  64.207  1.00  0.00    -0.164 OA 
ENDBRANCH  19  20
ENDBRANCH  16  19
ENDBRANCH  13  16
ENDBRANCH  10  13
ENDBRANCH   7  10
ENDBRANCH   6   7
ENDBRANCH   3   6
TORSDOF 7
ENDMDL
MODEL      329
REMARK 921   NORMALIZED FREE ENERGY PREDICTED BY IDOCK:   -2.79 KCAL/MOL
REMARK 922        TOTAL FREE ENERGY PREDICTED BY IDOCK:   -5.18 KCAL/MOL
REMARK 923 INTER-LIGAND FREE ENERGY PREDICTED BY IDOCK:   -3.97 KCAL/MOL
REMARK 924 INTRA-LIGAND FREE ENERGY PREDICTED BY IDOCK:   -1.21 KCAL/MOL
REMARK 927      BINDING AFFINITY PREDICTED BY RF-SCORE:    0.00 PKD
ROOT
HETATM    1  C   UNL     1      -9.374   4.072  69.154  1.00  0.00    -0.167 C  
HETATM    2  S   UNL     1      -8.356   5.056  70.224  1.00  0.00    -0.093 S  
HETATM    3  O   UNL     1      -9.519   5.964  70.939  1.00  0.00    -0.162 OA 
HETATM    4  O   UNL     1      -7.775   4.192  71.228  1.00  0.00    -0.066 OA 
HETATM    5  O   UNL     1      -7.545   5.935  69.405  1.00  0.00    -0.088 OA 
ENDROOT
BRANCH   3   6
HETATM    6  C   UNL     1      -9.021   6.888  71.912  1.00  0.00    -0.137 C  
BRANCH   6   7
HETATM    7  C   UNL     1      -9.177   8.342  71.458  1.00  0.00    -0.196 C  
HETATM    8  O   UNL     1      -8.039   8.721  70.658  1.00  0.00    -0.104 OA 
HETATM    9  H   UNL     1      -8.136   9.624  70.376  1.00  0.00     0.000 HD 
BRANCH   7  10
HETATM   10  C   UNL     1     -10.427   8.545  70.575  1.00  0.00    -0.204 C  
HETATM   11  H   UNL     1     -12.377   8.626  70.869  1.00  0.00     0.000 HD 
HETATM   12  O   UNL     1     -11.607   8.502  71.412  1.00  0.00    -0.266 OA 
BRANCH  10  13
HETATM   13  C   UNL     1     -10.497   9.865  69.784  1.00  0.00    -0.261 C  
HETATM   14  O   UNL     1     -11.238  10.798  70.599  1.00  0.00    -0.427 OA 
HETATM   15  H   UNL     1     -11.281  11.612  70.111  1.00  0.00     0.000 HD 
BRANCH  13  16
HETATM   16  C   UNL     1     -11.143   9.774  68.391  1.00  0.00    -0.088 C  
HETATM   17  H   UNL     1     -10.620   9.059  66.643  1.00  0.00     0.000 HD 
HETATM   18  O   UNL     1     -10.221   9.115  67.502  1.00  0.00    -0.212 OA 
BRANCH  16  19
HETATM   19  C   UNL     1     -11.534  11.140  67.816  1.00  0.00    -0.272 C  
BRANCH  19  20
HETATM   20  O   UNL     1     -10.452  12.050  68.055  1.00  0.00    -0.195 OA 
HETATM   21  S   UNL     1     -10.846  13.617  68.237  1.00  0.00    -0.260 S  
HETATM   22  C   UNL     1      -9.203  14.239  68.507  1.00  0.00    -0.197 C  
HETATM   23  O   UNL     1     -11.609  13.761  69.460  1.00  0.00    -0.269 OA 
HETATM   24  O   UNL     1     -11.327  14.116  66.965  1.00  0.00    -0.306 OA 
ENDBRANCH  19  20
ENDBRANCH  16  19
ENDBRANCH  13  16
ENDBRANCH  10  13
ENDBRANCH   7  10
ENDBRANCH   6   7
ENDBRANCH   3   6
TORSDOF 7
ENDMDL
MODEL      330
REMARK 921   NORMALIZED FREE ENERGY PREDICTED BY IDOCK:   -2.76 KCAL/MOL
REMARK 922        TOTAL FREE ENERGY PREDICTED BY IDOCK:   -5.14 KCAL/MOL
REMARK 923 INTER-LIGAND FREE ENERGY PREDICTED BY IDOCK:   -4.34 KCAL/MOL
REMARK 924 INTRA-LIGAND FREE ENERGY PREDICTED BY IDOCK:   -0.80 KCAL/MOL
REMARK 927      BINDING AFFINITY PREDICTED BY RF-SCORE:    0.00 PKD
ROOT
HETATM    1  C   UNL     1      -5.631   8.553  69.863  1.00  0.00    -0.028 C  
HETATM    2  S   UNL     1      -7.013   8.926  70.912  1.00  0.00    -0.089 S  
HETATM    3  O   UNL     1      -8.176   8.070  70.137  1.00  0.00    -0.116 OA 
HETATM    4  O   UNL     1      -6.786   8.316  72.204  1.00  0.00    -0.069 OA 
HETATM    5  O   UNL     1      -7.328  10.333  70.773  1.00  0.00    -0.216 OA 
ENDROOT
BRANCH   3   6
HETATM    6  C   UNL     1      -9.464   8.141  70.758  1.00  0.00    -0.162 C  
BRANCH   6   7
HETATM    7  C   UNL     1     -10.549   7.466  69.914  1.00  0.00    -0.236 C  
HETATM    8  O   UNL     1     -11.529   8.446  69.518  1.00  0.00    -0.404 OA 
HETATM    9  H   UNL     1     -12.202   8.027  68.994  1.00  0.00     0.000 HD 
BRANCH   7  10
HETATM   10  C   UNL     1      -9.979   6.857  68.615  1.00  0.00    -0.149 C  
HETATM   11  H   UNL     1      -9.994   5.084  67.750  1.00  0.00     0.000 HD 
HETATM   12  O   UNL     1     -10.345   5.458  68.550  1.00  0.00    -0.180 OA 
BRANCH  10  13
HETATM   13  C   UNL     1     -10.454   7.498  67.297  1.00  0.00    -0.321 C  
HETATM   14  O   UNL     1     -11.476   6.632  66.759  1.00  0.00    -0.776 OA 
HETATM   15  H   UNL     1     -11.769   7.026  65.946  1.00  0.00     0.000 HD 
BRANCH  13  16
HETATM   16  C   UNL     1      -9.364   7.726  66.235  1.00  0.00    -0.151 C  
HETATM   17  H   UNL     1      -7.613   6.945  65.827  1.00  0.00     0.000 HD 
HETATM   18  O   UNL     1      -8.286   6.804  66.483  1.00  0.00    -0.111 OA 
BRANCH  16  19
HETATM   19  C   UNL     1      -8.828   9.162  66.220  1.00  0.00    -0.148 C  
BRANCH  19  20
HETATM   20  O   UNL     1      -9.879  10.034  66.657  1.00  0.00    -0.184 OA 
HETATM   21  S   UNL     1     -10.035  11.443  65.858  1.00  0.00    -0.245 S  
HETATM   22  C   UNL     1     -11.426  12.072  66.768  1.00  0.00    -0.345 C  
HETATM   23  O   UNL     1     -10.452  11.157  64.500  1.00  0.00    -0.318 OA 
HETATM   24  O   UNL     1      -8.878  12.263  66.153  1.00  0.00    -0.089 OA 
ENDBRANCH  19  20
ENDBRANCH  16  19
ENDBRANCH  13  16
ENDBRANCH  10  13
ENDBRANCH   7  10
ENDBRANCH   6   7
ENDBRANCH   3   6
TORSDOF 7
ENDMDL
MODEL      331
REMARK 921   NORMALIZED FREE ENERGY PREDICTED BY IDOCK:   -2.75 KCAL/MOL
REMARK 922        TOTAL FREE ENERGY PREDICTED BY IDOCK:   -5.13 KCAL/MOL
REMARK 923 INTER-LIGAND FREE ENERGY PREDICTED BY IDOCK:   -4.09 KCAL/MOL
REMARK 924 INTRA-LIGAND FREE ENERGY PREDICTED BY IDOCK:   -1.04 KCAL/MOL
REMARK 927      BINDING AFFINITY PREDICTED BY RF-SCORE:    0.00 PKD
ROOT
HETATM    1  C   UNL     1     -11.954  14.448  64.501  1.00  0.00    -0.472 C  
HETATM    2  S   UNL     1     -12.013  12.748  63.996  1.00  0.00    -0.489 S  
HETATM    3  O   UNL     1     -11.089  12.085  65.177  1.00  0.00    -0.304 OA 
HETATM    4  O   UNL     1     -13.369  12.268  64.158  1.00  0.00    -0.731 OA 
HETATM    5  O   UNL     1     -11.298  12.616  62.743  1.00  0.00     0.203 OA 
ENDROOT
BRANCH   3   6
HETATM    6  C   UNL     1     -10.944  10.665  65.075  1.00  0.00     0.284 C  
BRANCH   6   7
HETATM    7  C   UNL     1      -9.524  10.259  64.669  1.00  0.00    -0.293 C  
HETATM    8  O   UNL     1      -8.888  11.354  63.981  1.00  0.00    -0.390 OA 
HETATM    9  H   UNL     1      -8.007  11.102  63.729  1.00  0.00     0.000 HD 
BRANCH   7  10
HETATM   10  C   UNL     1      -8.641   9.931  65.893  1.00  0.00    -0.137 C  
HETATM   11  H   UNL     1      -7.242   8.609  66.323  1.00  0.00     0.000 HD 
HETATM   12  O   UNL     1      -7.785   8.810  65.569  1.00  0.00    -0.088 OA 
BRANCH  10  13
HETATM   13  C   UNL     1      -7.718  11.061  66.389  1.00  0.00    -0.146 C  
HETATM   14  O   UNL     1      -6.444  10.454  66.689  1.00  0.00    -0.071 OA 
HETATM   15  H   UNL     1      -5.875  11.150  66.995  1.00  0.00     0.000 HD 
BRANCH  13  16
HETATM   16  C   UNL     1      -8.219  11.839  67.618  1.00  0.00    -0.145 C  
HETATM   17  H   UNL     1      -9.748  11.710  68.837  1.00  0.00     0.000 HD 
HETATM   18  O   UNL     1      -9.440  11.230  68.078  1.00  0.00    -0.162 OA 
BRANCH  16  19
HETATM   19  C   UNL     1      -8.453  13.327  67.337  1.00  0.00    -0.206 C  
BRANCH  19  20
HETATM   20  O   UNL     1      -7.689  14.085  68.286  1.00  0.00    -0.121 OA 
HETATM   21  S   UNL     1      -6.346  14.811  67.725  1.00  0.00    -0.124 S  
HETATM   22  C   UNL     1      -5.842  15.573  69.249  1.00  0.00    -0.106 C  
HETATM   23  O   UNL     1      -6.739  15.845  66.790  1.00  0.00    -0.249 OA 
HETATM   24  O   UNL     1      -5.385  13.784  67.380  1.00  0.00    -0.343 OA 
ENDBRANCH  19  20
ENDBRANCH  16  19
ENDBRANCH  13  16
ENDBRANCH  10  13
ENDBRANCH   7  10
ENDBRANCH   6   7
ENDBRANCH   3   6
TORSDOF 7
ENDMDL
MODEL      332
REMARK 921   NORMALIZED FREE ENERGY PREDICTED BY IDOCK:   -2.74 KCAL/MOL
REMARK 922        TOTAL FREE ENERGY PREDICTED BY IDOCK:   -5.11 KCAL/MOL
REMARK 923 INTER-LIGAND FREE ENERGY PREDICTED BY IDOCK:   -4.56 KCAL/MOL
REMARK 924 INTRA-LIGAND FREE ENERGY PREDICTED BY IDOCK:   -0.56 KCAL/MOL
REMARK 927      BINDING AFFINITY PREDICTED BY RF-SCORE:    0.00 PKD
ROOT
HETATM    1  C   UNL     1      -8.968   5.110  68.655  1.00  0.00    -0.105 C  
HETATM    2  S   UNL     1     -10.284   6.025  67.893  1.00  0.00    -0.201 S  
HETATM    3  O   UNL     1      -9.459   7.375  67.466  1.00  0.00    -0.134 OA 
HETATM    4  O   UNL     1     -10.682   5.335  66.685  1.00  0.00    -0.291 OA 
HETATM    5  O   UNL     1     -11.241   6.393  68.916  1.00  0.00    -0.343 OA 
ENDROOT
BRANCH   3   6
HETATM    6  C   UNL     1     -10.251   8.352  66.783  1.00  0.00    -0.306 C  
BRANCH   6   7
HETATM    7  C   UNL     1     -10.220   9.712  67.484  1.00  0.00    -0.220 C  
HETATM    8  O   UNL     1     -10.551   9.543  68.877  1.00  0.00    -0.215 OA 
HETATM    9  H   UNL     1     -10.531  10.388  69.312  1.00  0.00     0.000 HD 
BRANCH   7  10
HETATM   10  C   UNL     1      -8.819  10.359  67.435  1.00  0.00    -0.132 C  
HETATM   11  H   UNL     1      -7.273  10.309  66.211  1.00  0.00     0.000 HD 
HETATM   12  O   UNL     1      -8.135   9.911  66.241  1.00  0.00    -0.112 OA 
BRANCH  10  13
HETATM   13  C   UNL     1      -8.780  11.899  67.412  1.00  0.00    -0.166 C  
HETATM   14  O   UNL     1      -8.557  12.329  68.772  1.00  0.00    -0.354 OA 
HETATM   15  H   UNL     1      -8.533  13.278  68.758  1.00  0.00     0.000 HD 
BRANCH  13  16
HETATM   16  C   UNL     1     -10.037  12.589  66.855  1.00  0.00    -0.225 C  
HETATM   17  H   UNL     1     -10.980  12.619  65.137  1.00  0.00     0.000 HD 
HETATM   18  O   UNL     1     -10.204  12.193  65.481  1.00  0.00    -0.252 OA 
BRANCH  16  19
HETATM   19  C   UNL     1      -9.981  14.118  66.953  1.00  0.00    -0.261 C  
BRANCH  19  20
HETATM   20  O   UNL     1      -9.932  14.473  68.341  1.00  0.00    -0.227 OA 
HETATM   21  S   UNL     1     -11.209  15.290  68.929  1.00  0.00    -0.306 S  
HETATM   22  C   UNL     1     -10.638  15.439  70.605  1.00  0.00    -0.127 C  
HETATM   23  O   UNL     1     -12.365  14.417  68.903  1.00  0.00    -0.229 OA 
HETATM   24  O   UNL     1     -11.223  16.607  68.325  1.00  0.00    -0.349 OA 
ENDBRANCH  19  20
ENDBRANCH  16  19
ENDBRANCH  13  16
ENDBRANCH  10  13
ENDBRANCH   7  10
ENDBRANCH   6   7
ENDBRANCH   3   6
TORSDOF 7
ENDMDL
MODEL      333
REMARK 921   NORMALIZED FREE ENERGY PREDICTED BY IDOCK:   -2.74 KCAL/MOL
REMARK 922        TOTAL FREE ENERGY PREDICTED BY IDOCK:   -5.11 KCAL/MOL
REMARK 923 INTER-LIGAND FREE ENERGY PREDICTED BY IDOCK:   -4.40 KCAL/MOL
REMARK 924 INTRA-LIGAND FREE ENERGY PREDICTED BY IDOCK:   -0.70 KCAL/MOL
REMARK 927      BINDING AFFINITY PREDICTED BY RF-SCORE:    0.00 PKD
ROOT
HETATM    1  C   UNL     1      -9.587   4.200  70.202  1.00  0.00    -0.202 C  
HETATM    2  S   UNL     1      -9.022   5.635  71.080  1.00  0.00    -0.142 S  
HETATM    3  O   UNL     1      -8.729   6.628  69.809  1.00  0.00    -0.138 OA 
HETATM    4  O   UNL     1     -10.131   6.178  71.834  1.00  0.00    -0.186 OA 
HETATM    5  O   UNL     1      -7.752   5.322  71.703  1.00  0.00    -0.102 OA 
ENDROOT
BRANCH   3   6
HETATM    6  C   UNL     1      -8.261   7.929  70.181  1.00  0.00    -0.125 C  
BRANCH   6   7
HETATM    7  C   UNL     1      -8.842   9.028  69.287  1.00  0.00    -0.139 C  
HETATM    8  O   UNL     1      -8.036   9.158  68.099  1.00  0.00    -0.103 OA 
HETATM    9  H   UNL     1      -8.397   9.840  67.544  1.00  0.00     0.000 HD 
BRANCH   7  10
HETATM   10  C   UNL     1     -10.275   8.697  68.817  1.00  0.00    -0.207 C  
HETATM   11  H   UNL     1     -12.041   8.495  69.675  1.00  0.00     0.000 HD 
HETATM   12  O   UNL     1     -11.159   8.699  69.964  1.00  0.00    -0.237 OA 
BRANCH  10  13
HETATM   13  C   UNL     1     -10.893   9.659  67.784  1.00  0.00    -0.217 C  
HETATM   14  O   UNL     1     -10.165   9.469  66.553  1.00  0.00    -0.254 OA 
HETATM   15  H   UNL     1     -10.546  10.062  65.916  1.00  0.00     0.000 HD 
BRANCH  13  16
HETATM   16  C   UNL     1     -10.875  11.149  68.168  1.00  0.00    -0.219 C  
HETATM   17  H   UNL     1     -12.218  12.558  68.398  1.00  0.00     0.000 HD 
HETATM   18  O   UNL     1     -12.229  11.638  68.161  1.00  0.00    -0.537 OA 
BRANCH  16  19
HETATM   19  C   UNL     1     -10.008  12.002  67.236  1.00  0.00    -0.194 C  
BRANCH  19  20
HETATM   20  O   UNL     1      -9.788  13.269  67.869  1.00  0.00    -0.220 OA 
HETATM   21  S   UNL     1     -10.349  14.581  67.087  1.00  0.00    -0.267 S  
HETATM   22  C   UNL     1      -9.835  15.797  68.276  1.00  0.00    -0.213 C  
HETATM   23  O   UNL     1     -11.796  14.522  67.071  1.00  0.00    -0.394 OA 
HETATM   24  O   UNL     1      -9.571  14.756  65.878  1.00  0.00    -0.309 OA 
ENDBRANCH  19  20
ENDBRANCH  16  19
ENDBRANCH  13  16
ENDBRANCH  10  13
ENDBRANCH   7  10
ENDBRANCH   6   7
ENDBRANCH   3   6
TORSDOF 7
ENDMDL
MODEL      334
REMARK 921   NORMALIZED FREE ENERGY PREDICTED BY IDOCK:   -2.73 KCAL/MOL
REMARK 922        TOTAL FREE ENERGY PREDICTED BY IDOCK:   -5.10 KCAL/MOL
REMARK 923 INTER-LIGAND FREE ENERGY PREDICTED BY IDOCK:   -4.25 KCAL/MOL
REMARK 924 INTRA-LIGAND FREE ENERGY PREDICTED BY IDOCK:   -0.85 KCAL/MOL
REMARK 927      BINDING AFFINITY PREDICTED BY RF-SCORE:    0.00 PKD
ROOT
HETATM    1  C   UNL     1      -9.797   4.352  65.359  1.00  0.00    -0.210 C  
HETATM    2  S   UNL     1      -9.919   5.481  66.723  1.00  0.00    -0.205 S  
HETATM    3  O   UNL     1      -8.975   6.693  66.153  1.00  0.00    -0.153 OA 
HETATM    4  O   UNL     1     -11.282   5.963  66.798  1.00  0.00    -0.184 OA 
HETATM    5  O   UNL     1      -9.250   4.894  67.866  1.00  0.00    -0.113 OA 
ENDROOT
BRANCH   3   6
HETATM    6  C   UNL     1      -8.872   7.816  67.035  1.00  0.00    -0.127 C  
BRANCH   6   7
HETATM    7  C   UNL     1      -7.415   8.171  67.346  1.00  0.00    -0.093 C  
HETATM    8  O   UNL     1      -6.553   7.108  66.895  1.00  0.00    -0.052 OA 
HETATM    9  H   UNL     1      -5.649   7.329  67.088  1.00  0.00     0.000 HD 
BRANCH   7  10
HETATM   10  C   UNL     1      -6.961   9.453  66.615  1.00  0.00    -0.081 C  
HETATM   11  H   UNL     1      -5.906   9.869  65.000  1.00  0.00     0.000 HD 
HETATM   12  O   UNL     1      -6.186   9.080  65.450  1.00  0.00    -0.061 OA 
BRANCH  10  13
HETATM   13  C   UNL     1      -8.081  10.386  66.117  1.00  0.00    -0.139 C  
HETATM   14  O   UNL     1      -7.694  10.835  64.802  1.00  0.00    -0.351 OA 
HETATM   15  H   UNL     1      -8.384  11.411  64.495  1.00  0.00     0.000 HD 
BRANCH  13  16
HETATM   16  C   UNL     1      -8.377  11.605  67.009  1.00  0.00    -0.169 C  
HETATM   17  H   UNL     1      -8.271  12.005  68.925  1.00  0.00     0.000 HD 
HETATM   18  O   UNL     1      -8.088  11.253  68.375  1.00  0.00    -0.128 OA 
BRANCH  16  19
HETATM   19  C   UNL     1      -9.823  12.100  66.894  1.00  0.00    -0.203 C  
BRANCH  19  20
HETATM   20  O   UNL     1     -10.230  11.970  65.525  1.00  0.00    -0.243 OA 
HETATM   21  S   UNL     1     -11.428  12.951  65.026  1.00  0.00    -0.330 S  
HETATM   22  C   UNL     1     -11.499  12.391  63.341  1.00  0.00    -0.448 C  
HETATM   23  O   UNL     1     -10.944  14.316  65.048  1.00  0.00    -0.344 OA 
HETATM   24  O   UNL     1     -12.649  12.555  65.698  1.00  0.00    -0.612 OA 
ENDBRANCH  19  20
ENDBRANCH  16  19
ENDBRANCH  13  16
ENDBRANCH  10  13
ENDBRANCH   7  10
ENDBRANCH   6   7
ENDBRANCH   3   6
TORSDOF 7
ENDMDL
MODEL      335
REMARK 921   NORMALIZED FREE ENERGY PREDICTED BY IDOCK:   -2.72 KCAL/MOL
REMARK 922        TOTAL FREE ENERGY PREDICTED BY IDOCK:   -5.08 KCAL/MOL
REMARK 923 INTER-LIGAND FREE ENERGY PREDICTED BY IDOCK:   -4.16 KCAL/MOL
REMARK 924 INTRA-LIGAND FREE ENERGY PREDICTED BY IDOCK:   -0.93 KCAL/MOL
REMARK 927      BINDING AFFINITY PREDICTED BY RF-SCORE:    0.00 PKD
ROOT
HETATM    1  C   UNL     1     -11.152   7.055  71.895  1.00  0.00    -0.242 C  
HETATM    2  S   UNL     1      -9.642   7.645  71.171  1.00  0.00    -0.158 S  
HETATM    3  O   UNL     1     -10.228   8.935  70.345  1.00  0.00    -0.184 OA 
HETATM    4  O   UNL     1      -8.787   8.136  72.231  1.00  0.00    -0.148 OA 
HETATM    5  O   UNL     1      -9.183   6.668  70.205  1.00  0.00    -0.155 OA 
ENDROOT
BRANCH   3   6
HETATM    6  C   UNL     1      -9.229   9.676  69.637  1.00  0.00    -0.211 C  
BRANCH   6   7
HETATM    7  C   UNL     1      -9.798  10.946  68.998  1.00  0.00    -0.180 C  
HETATM    8  O   UNL     1      -8.768  11.604  68.235  1.00  0.00    -0.153 OA 
HETATM    9  H   UNL     1      -9.122  12.392  67.838  1.00  0.00     0.000 HD 
BRANCH   7  10
HETATM   10  C   UNL     1     -10.950  10.636  68.017  1.00  0.00    -0.282 C  
HETATM   11  H   UNL     1     -12.884  11.016  67.930  1.00  0.00     0.000 HD 
HETATM   12  O   UNL     1     -12.175  11.207  68.534  1.00  0.00    -0.600 OA 
BRANCH  10  13
HETATM   13  C   UNL     1     -10.785  11.174  66.583  1.00  0.00    -0.269 C  
HETATM   14  O   UNL     1     -12.053  11.753  66.208  1.00  0.00    -0.446 OA 
HETATM   15  H   UNL     1     -11.952  12.084  65.324  1.00  0.00     0.000 HD 
BRANCH  13  16
HETATM   16  C   UNL     1     -10.362  10.138  65.527  1.00  0.00    -0.126 C  
HETATM   17  H   UNL     1      -9.924   8.227  65.528  1.00  0.00     0.000 HD 
HETATM   18  O   UNL     1     -10.185   8.867  66.180  1.00  0.00    -0.259 OA 
BRANCH  16  19
HETATM   19  C   UNL     1      -9.079  10.524  64.782  1.00  0.00    -0.211 C  
BRANCH  19  20
HETATM   20  O   UNL     1      -8.048   9.603  65.164  1.00  0.00    -0.115 OA 
HETATM   21  S   UNL     1      -6.529  10.182  65.191  1.00  0.00    -0.121 S  
HETATM   22  C   UNL     1      -5.722   8.690  65.718  1.00  0.00    -0.046 C  
HETATM   23  O   UNL     1      -6.432  11.168  66.248  1.00  0.00    -0.132 OA 
HETATM   24  O   UNL     1      -6.128  10.470  63.829  1.00  0.00    -0.119 OA 
ENDBRANCH  19  20
ENDBRANCH  16  19
ENDBRANCH  13  16
ENDBRANCH  10  13
ENDBRANCH   7  10
ENDBRANCH   6   7
ENDBRANCH   3   6
TORSDOF 7
ENDMDL
MODEL      336
REMARK 921   NORMALIZED FREE ENERGY PREDICTED BY IDOCK:   -2.72 KCAL/MOL
REMARK 922        TOTAL FREE ENERGY PREDICTED BY IDOCK:   -5.08 KCAL/MOL
REMARK 923 INTER-LIGAND FREE ENERGY PREDICTED BY IDOCK:   -4.09 KCAL/MOL
REMARK 924 INTRA-LIGAND FREE ENERGY PREDICTED BY IDOCK:   -0.99 KCAL/MOL
REMARK 927      BINDING AFFINITY PREDICTED BY RF-SCORE:    0.00 PKD
ROOT
HETATM    1  C   UNL     1      -6.092  10.015  64.849  1.00  0.00    -0.116 C  
HETATM    2  S   UNL     1      -7.825   9.797  65.161  1.00  0.00    -0.133 S  
HETATM    3  O   UNL     1      -7.879  10.288  66.725  1.00  0.00    -0.110 OA 
HETATM    4  O   UNL     1      -8.560  10.753  64.361  1.00  0.00    -0.144 OA 
HETATM    5  O   UNL     1      -8.123   8.380  65.128  1.00  0.00    -0.130 OA 
ENDROOT
BRANCH   3   6
HETATM    6  C   UNL     1      -9.188  10.254  67.301  1.00  0.00    -0.141 C  
BRANCH   6   7
HETATM    7  C   UNL     1      -9.240   9.390  68.565  1.00  0.00    -0.131 C  
HETATM    8  O   UNL     1      -9.221  10.239  69.730  1.00  0.00    -0.357 OA 
HETATM    9  H   UNL     1      -9.253   9.703  70.513  1.00  0.00     0.000 HD 
BRANCH   7  10
HETATM   10  C   UNL     1     -10.535   8.554  68.645  1.00  0.00    -0.169 C  
HETATM   11  H   UNL     1     -11.478   7.278  67.472  1.00  0.00     0.000 HD 
HETATM   12  O   UNL     1     -10.680   7.792  67.423  1.00  0.00    -0.278 OA 
BRANCH  10  13
HETATM   13  C   UNL     1     -10.625   7.545  69.806  1.00  0.00    -0.241 C  
HETATM   14  O   UNL     1     -10.851   6.249  69.213  1.00  0.00    -0.268 OA 
HETATM   15  H   UNL     1     -10.907   5.627  69.928  1.00  0.00     0.000 HD 
BRANCH  13  16
HETATM   16  C   UNL     1     -11.717   7.829  70.852  1.00  0.00    -0.265 C  
HETATM   17  H   UNL     1     -11.939   9.073  72.350  1.00  0.00     0.000 HD 
HETATM   18  O   UNL     1     -11.265   8.898  71.705  1.00  0.00    -0.294 OA 
BRANCH  16  19
HETATM   19  C   UNL     1     -12.075   6.603  71.699  1.00  0.00    -0.355 C  
BRANCH  19  20
HETATM   20  O   UNL     1     -11.122   6.506  72.767  1.00  0.00    -0.247 OA 
HETATM   21  S   UNL     1     -10.319   5.099  72.900  1.00  0.00    -0.209 S  
HETATM   22  C   UNL     1      -9.321   5.534  74.305  1.00  0.00    -0.133 C  
HETATM   23  O   UNL     1      -9.460   4.949  71.743  1.00  0.00    -0.143 OA 
HETATM   24  O   UNL     1     -11.261   4.074  73.299  1.00  0.00    -0.222 OA 
ENDBRANCH  19  20
ENDBRANCH  16  19
ENDBRANCH  13  16
ENDBRANCH  10  13
ENDBRANCH   7  10
ENDBRANCH   6   7
ENDBRANCH   3   6
TORSDOF 7
ENDMDL
MODEL      337
REMARK 921   NORMALIZED FREE ENERGY PREDICTED BY IDOCK:   -2.72 KCAL/MOL
REMARK 922        TOTAL FREE ENERGY PREDICTED BY IDOCK:   -5.08 KCAL/MOL
REMARK 923 INTER-LIGAND FREE ENERGY PREDICTED BY IDOCK:   -4.29 KCAL/MOL
REMARK 924 INTRA-LIGAND FREE ENERGY PREDICTED BY IDOCK:   -0.78 KCAL/MOL
REMARK 927      BINDING AFFINITY PREDICTED BY RF-SCORE:    0.00 PKD
ROOT
HETATM    1  C   UNL     1      -5.960   8.664  70.502  1.00  0.00    -0.031 C  
HETATM    2  S   UNL     1      -7.259   7.957  71.482  1.00  0.00    -0.072 S  
HETATM    3  O   UNL     1      -7.947   6.986  70.354  1.00  0.00    -0.109 OA 
HETATM    4  O   UNL     1      -6.663   7.119  72.499  1.00  0.00    -0.062 OA 
HETATM    5  O   UNL     1      -8.208   9.002  71.809  1.00  0.00    -0.351 OA 
ENDROOT
BRANCH   3   6
HETATM    6  C   UNL     1      -9.059   6.226  70.839  1.00  0.00    -0.151 C  
BRANCH   6   7
HETATM    7  C   UNL     1      -9.881   5.616  69.700  1.00  0.00    -0.184 C  
HETATM    8  O   UNL     1     -11.261   6.011  69.838  1.00  0.00    -0.386 OA 
HETATM    9  H   UNL     1     -11.771   5.633  69.131  1.00  0.00     0.000 HD 
BRANCH   7  10
HETATM   10  C   UNL     1      -9.413   6.114  68.316  1.00  0.00    -0.117 C  
HETATM   11  H   UNL     1      -8.758   5.279  66.652  1.00  0.00     0.000 HD 
HETATM   12  O   UNL     1      -9.046   4.973  67.505  1.00  0.00    -0.113 OA 
BRANCH  10  13
HETATM   13  C   UNL     1     -10.440   6.922  67.499  1.00  0.00    -0.247 C  
HETATM   14  O   UNL     1     -10.583   6.250  66.230  1.00  0.00    -0.468 OA 
HETATM   15  H   UNL     1     -11.215   6.748  65.727  1.00  0.00     0.000 HD 
BRANCH  13  16
HETATM   16  C   UNL     1     -10.086   8.401  67.261  1.00  0.00    -0.253 C  
HETATM   17  H   UNL     1      -8.436   9.454  67.163  1.00  0.00     0.000 HD 
HETATM   18  O   UNL     1      -8.654   8.541  67.311  1.00  0.00    -0.121 OA 
BRANCH  16  19
HETATM   19  C   UNL     1     -10.739   9.348  68.273  1.00  0.00    -0.171 C  
BRANCH  19  20
HETATM   20  O   UNL     1     -11.194  10.510  67.566  1.00  0.00    -0.320 OA 
HETATM   21  S   UNL     1     -11.033  11.937  68.330  1.00  0.00    -0.249 S  
HETATM   22  C   UNL     1     -11.709  12.964  67.047  1.00  0.00    -0.385 C  
HETATM   23  O   UNL     1      -9.620  12.227  68.468  1.00  0.00    -0.197 OA 
HETATM   24  O   UNL     1     -11.937  11.951  69.461  1.00  0.00    -0.304 OA 
ENDBRANCH  19  20
ENDBRANCH  16  19
ENDBRANCH  13  16
ENDBRANCH  10  13
ENDBRANCH   7  10
ENDBRANCH   6   7
ENDBRANCH   3   6
TORSDOF 7
ENDMDL
MODEL      338
REMARK 921   NORMALIZED FREE ENERGY PREDICTED BY IDOCK:   -2.72 KCAL/MOL
REMARK 922        TOTAL FREE ENERGY PREDICTED BY IDOCK:   -5.07 KCAL/MOL
REMARK 923 INTER-LIGAND FREE ENERGY PREDICTED BY IDOCK:   -3.74 KCAL/MOL
REMARK 924 INTRA-LIGAND FREE ENERGY PREDICTED BY IDOCK:   -1.33 KCAL/MOL
REMARK 927      BINDING AFFINITY PREDICTED BY RF-SCORE:    0.00 PKD
ROOT
HETATM    1  C   UNL     1      -7.392  10.932  66.018  1.00  0.00    -0.081 C  
HETATM    2  S   UNL     1      -8.519   9.654  65.523  1.00  0.00    -0.150 S  
HETATM    3  O   UNL     1      -8.511   8.747  66.888  1.00  0.00    -0.110 OA 
HETATM    4  O   UNL     1      -9.835  10.236  65.372  1.00  0.00    -0.255 OA 
HETATM    5  O   UNL     1      -7.899   8.877  64.468  1.00  0.00    -0.113 OA 
ENDROOT
BRANCH   3   6
HETATM    6  C   UNL     1      -9.366   7.601  66.832  1.00  0.00    -0.161 C  
BRANCH   6   7
HETATM    7  C   UNL     1      -8.590   6.293  67.012  1.00  0.00    -0.104 C  
HETATM    8  O   UNL     1      -7.297   6.411  66.385  1.00  0.00    -0.077 OA 
HETATM    9  H   UNL     1      -6.816   5.599  66.497  1.00  0.00     0.000 HD 
BRANCH   7  10
HETATM   10  C   UNL     1      -8.334   5.969  68.500  1.00  0.00    -0.113 C  
HETATM   11  H   UNL     1      -6.809   6.109  69.743  1.00  0.00     0.000 HD 
HETATM   12  O   UNL     1      -6.966   6.309  68.827  1.00  0.00    -0.070 OA 
BRANCH  10  13
HETATM   13  C   UNL     1      -9.225   6.704  69.519  1.00  0.00    -0.143 C  
HETATM   14  O   UNL     1      -8.348   7.508  70.335  1.00  0.00    -0.125 OA 
HETATM   15  H   UNL     1      -8.897   7.960  70.964  1.00  0.00     0.000 HD 
BRANCH  13  16
HETATM   16  C   UNL     1     -10.085   5.803  70.423  1.00  0.00    -0.210 C  
HETATM   17  H   UNL     1     -10.806   3.984  70.319  1.00  0.00     0.000 HD 
HETATM   18  O   UNL     1     -10.276   4.540  69.760  1.00  0.00    -0.201 OA 
BRANCH  16  19
HETATM   19  C   UNL     1     -11.445   6.419  70.772  1.00  0.00    -0.353 C  
BRANCH  19  20
HETATM   20  O   UNL     1     -11.467   7.762  70.270  1.00  0.00    -0.223 OA 
HETATM   21  S   UNL     1     -11.646   8.947  71.370  1.00  0.00    -0.337 S  
HETATM   22  C   UNL     1     -11.590  10.320  70.243  1.00  0.00    -0.316 C  
HETATM   23  O   UNL     1     -10.464   8.979  72.208  1.00  0.00    -0.269 OA 
HETATM   24  O   UNL     1     -12.981   8.855  71.924  1.00  0.00    -0.333 OA 
ENDBRANCH  19  20
ENDBRANCH  16  19
ENDBRANCH  13  16
ENDBRANCH  10  13
ENDBRANCH   7  10
ENDBRANCH   6   7
ENDBRANCH   3   6
TORSDOF 7
ENDMDL
MODEL      339
REMARK 921   NORMALIZED FREE ENERGY PREDICTED BY IDOCK:   -2.71 KCAL/MOL
REMARK 922        TOTAL FREE ENERGY PREDICTED BY IDOCK:   -5.06 KCAL/MOL
REMARK 923 INTER-LIGAND FREE ENERGY PREDICTED BY IDOCK:   -4.26 KCAL/MOL
REMARK 924 INTRA-LIGAND FREE ENERGY PREDICTED BY IDOCK:   -0.80 KCAL/MOL
REMARK 927      BINDING AFFINITY PREDICTED BY RF-SCORE:    0.00 PKD
ROOT
HETATM    1  C   UNL     1      -9.703   8.543  71.777  1.00  0.00    -0.267 C  
HETATM    2  S   UNL     1      -8.665   7.294  71.060  1.00  0.00    -0.140 S  
HETATM    3  O   UNL     1      -8.084   8.133  69.777  1.00  0.00    -0.112 OA 
HETATM    4  O   UNL     1      -7.568   7.033  71.966  1.00  0.00    -0.090 OA 
HETATM    5  O   UNL     1      -9.509   6.231  70.552  1.00  0.00    -0.160 OA 
ENDROOT
BRANCH   3   6
HETATM    6  C   UNL     1      -7.163   7.395  68.967  1.00  0.00    -0.085 C  
BRANCH   6   7
HETATM    7  C   UNL     1      -7.036   7.983  67.558  1.00  0.00    -0.075 C  
HETATM    8  O   UNL     1      -5.661   7.912  67.130  1.00  0.00    -0.035 OA 
HETATM    9  H   UNL     1      -5.583   8.277  66.256  1.00  0.00     0.000 HD 
BRANCH   7  10
HETATM   10  C   UNL     1      -7.866   7.195  66.522  1.00  0.00    -0.106 C  
HETATM   11  H   UNL     1      -8.966   5.557  66.532  1.00  0.00     0.000 HD 
HETATM   12  O   UNL     1      -8.455   6.042  67.170  1.00  0.00    -0.106 OA 
BRANCH  10  13
HETATM   13  C   UNL     1      -9.022   7.960  65.850  1.00  0.00    -0.123 C  
HETATM   14  O   UNL     1      -8.577   8.301  64.521  1.00  0.00    -0.369 OA 
HETATM   15  H   UNL     1      -9.289   8.773  64.106  1.00  0.00     0.000 HD 
BRANCH  13  16
HETATM   16  C   UNL     1      -9.490   9.233  66.577  1.00  0.00    -0.202 C  
HETATM   17  H   UNL     1     -10.699   9.638  68.065  1.00  0.00     0.000 HD 
HETATM   18  O   UNL     1     -10.411   8.853  67.616  1.00  0.00    -0.246 OA 
BRANCH  16  19
HETATM   19  C   UNL     1     -10.149  10.254  65.644  1.00  0.00    -0.271 C  
BRANCH  19  20
HETATM   20  O   UNL     1     -10.004  11.554  66.232  1.00  0.00    -0.208 OA 
HETATM   21  S   UNL     1     -11.376  12.323  66.644  1.00  0.00    -0.359 S  
HETATM   22  C   UNL     1     -10.628  13.795  67.300  1.00  0.00    -0.275 C  
HETATM   23  O   UNL     1     -12.005  11.594  67.726  1.00  0.00    -0.608 OA 
HETATM   24  O   UNL     1     -12.087  12.667  65.430  1.00  0.00    -0.426 OA 
ENDBRANCH  19  20
ENDBRANCH  16  19
ENDBRANCH  13  16
ENDBRANCH  10  13
ENDBRANCH   7  10
ENDBRANCH   6   7
ENDBRANCH   3   6
TORSDOF 7
ENDMDL
MODEL      340
REMARK 921   NORMALIZED FREE ENERGY PREDICTED BY IDOCK:   -2.71 KCAL/MOL
REMARK 922        TOTAL FREE ENERGY PREDICTED BY IDOCK:   -5.06 KCAL/MOL
REMARK 923 INTER-LIGAND FREE ENERGY PREDICTED BY IDOCK:   -3.98 KCAL/MOL
REMARK 924 INTRA-LIGAND FREE ENERGY PREDICTED BY IDOCK:   -1.08 KCAL/MOL
REMARK 927      BINDING AFFINITY PREDICTED BY RF-SCORE:    0.00 PKD
ROOT
HETATM    1  C   UNL     1      -8.662   3.911  63.669  1.00  0.00    -0.102 C  
HETATM    2  S   UNL     1      -9.053   4.531  65.285  1.00  0.00    -0.154 S  
HETATM    3  O   UNL     1      -8.592   6.092  65.092  1.00  0.00    -0.132 OA 
HETATM    4  O   UNL     1     -10.490   4.500  65.454  1.00  0.00    -0.253 OA 
HETATM    5  O   UNL     1      -8.155   3.917  66.242  1.00  0.00    -0.096 OA 
ENDROOT
BRANCH   3   6
HETATM    6  C   UNL     1      -8.800   6.909  66.249  1.00  0.00    -0.148 C  
BRANCH   6   7
HETATM    7  C   UNL     1     -10.006   7.839  66.089  1.00  0.00     0.170 C  
HETATM    8  O   UNL     1     -11.160   7.241  66.711  1.00  0.00    -0.539 OA 
HETATM    9  H   UNL     1     -11.909   7.818  66.612  1.00  0.00     0.000 HD 
BRANCH   7  10
HETATM   10  C   UNL     1      -9.784   9.202  66.780  1.00  0.00    -0.210 C  
HETATM   11  H   UNL     1     -10.145  11.092  66.344  1.00  0.00     0.000 HD 
HETATM   12  O   UNL     1     -10.282  10.253  65.918  1.00  0.00    -0.254 OA 
BRANCH  10  13
HETATM   13  C   UNL     1     -10.470   9.392  68.146  1.00  0.00    -0.220 C  
HETATM   14  O   UNL     1     -11.747  10.011  67.888  1.00  0.00    -0.593 OA 
HETATM   15  H   UNL     1     -12.169  10.129  68.730  1.00  0.00     0.000 HD 
BRANCH  13  16
HETATM   16  C   UNL     1      -9.689  10.233  69.172  1.00  0.00    -0.217 C  
HETATM   17  H   UNL     1     -10.118  11.177  70.835  1.00  0.00     0.000 HD 
HETATM   18  O   UNL     1     -10.601  10.658  70.202  1.00  0.00    -0.199 OA 
BRANCH  16  19
HETATM   19  C   UNL     1      -8.998  11.452  68.552  1.00  0.00    -0.158 C  
BRANCH  19  20
HETATM   20  O   UNL     1      -9.695  12.628  68.986  1.00  0.00     0.112 OA 
HETATM   21  S   UNL     1     -10.328  13.570  67.821  1.00  0.00    -0.245 S  
HETATM   22  C   UNL     1     -11.045  14.801  68.884  1.00  0.00    -0.252 C  
HETATM   23  O   UNL     1     -11.392  12.838  67.165  1.00  0.00    -0.281 OA 
HETATM   24  O   UNL     1      -9.238  14.173  67.083  1.00  0.00    -0.211 OA 
ENDBRANCH  19  20
ENDBRANCH  16  19
ENDBRANCH  13  16
ENDBRANCH  10  13
ENDBRANCH   7  10
ENDBRANCH   6   7
ENDBRANCH   3   6
TORSDOF 7
ENDMDL
MODEL      341
REMARK 921   NORMALIZED FREE ENERGY PREDICTED BY IDOCK:   -2.69 KCAL/MOL
REMARK 922        TOTAL FREE ENERGY PREDICTED BY IDOCK:   -5.04 KCAL/MOL
REMARK 923 INTER-LIGAND FREE ENERGY PREDICTED BY IDOCK:   -4.08 KCAL/MOL
REMARK 924 INTRA-LIGAND FREE ENERGY PREDICTED BY IDOCK:   -0.96 KCAL/MOL
REMARK 927      BINDING AFFINITY PREDICTED BY RF-SCORE:    0.00 PKD
ROOT
HETATM    1  C   UNL     1     -12.782  13.966  65.218  1.00  0.00    -0.449 C  
HETATM    2  S   UNL     1     -11.101  13.511  64.877  1.00  0.00    -0.366 S  
HETATM    3  O   UNL     1     -10.756  12.705  66.261  1.00  0.00    -0.251 OA 
HETATM    4  O   UNL     1     -11.096  12.561  63.785  1.00  0.00    -0.384 OA 
HETATM    5  O   UNL     1     -10.296  14.715  64.849  1.00  0.00    -0.411 OA 
ENDROOT
BRANCH   3   6
HETATM    6  C   UNL     1      -9.430  12.167  66.307  1.00  0.00    -0.232 C  
BRANCH   6   7
HETATM    7  C   UNL     1      -9.429  10.635  66.292  1.00  0.00    -0.177 C  
HETATM    8  O   UNL     1      -8.074  10.156  66.182  1.00  0.00    -0.116 OA 
HETATM    9  H   UNL     1      -8.074   9.206  66.173  1.00  0.00     0.000 HD 
BRANCH   7  10
HETATM   10  C   UNL     1     -10.005  10.042  67.596  1.00  0.00    -0.176 C  
HETATM   11  H   UNL     1     -11.784   9.932  68.442  1.00  0.00     0.000 HD 
HETATM   12  O   UNL     1     -11.429  10.297  67.640  1.00  0.00    -0.345 OA 
BRANCH  10  13
HETATM   13  C   UNL     1      -9.824   8.524  67.791  1.00  0.00    -0.175 C  
HETATM   14  O   UNL     1      -8.449   8.316  68.176  1.00  0.00    -0.130 OA 
HETATM   15  H   UNL     1      -8.338   7.381  68.297  1.00  0.00     0.000 HD 
BRANCH  13  16
HETATM   16  C   UNL     1     -10.153   7.651  66.568  1.00  0.00    -0.135 C  
HETATM   17  H   UNL     1     -11.514   6.313  66.120  1.00  0.00     0.000 HD 
HETATM   18  O   UNL     1     -11.311   6.852  66.875  1.00  0.00    -0.269 OA 
BRANCH  16  19
HETATM   19  C   UNL     1      -8.993   6.744  66.144  1.00  0.00    -0.136 C  
BRANCH  19  20
HETATM   20  O   UNL     1      -8.104   7.514  65.323  1.00  0.00    -0.120 OA 
HETATM   21  S   UNL     1      -6.935   6.692  64.547  1.00  0.00    -0.057 S  
HETATM   22  C   UNL     1      -6.189   8.076  63.719  1.00  0.00    -0.066 C  
HETATM   23  O   UNL     1      -7.556   5.833  63.559  1.00  0.00    -0.066 OA 
HETATM   24  O   UNL     1      -6.003   6.185  65.533  1.00  0.00    -0.024 OA 
ENDBRANCH  19  20
ENDBRANCH  16  19
ENDBRANCH  13  16
ENDBRANCH  10  13
ENDBRANCH   7  10
ENDBRANCH   6   7
ENDBRANCH   3   6
TORSDOF 7
ENDMDL
MODEL      342
REMARK 921   NORMALIZED FREE ENERGY PREDICTED BY IDOCK:   -2.67 KCAL/MOL
REMARK 922        TOTAL FREE ENERGY PREDICTED BY IDOCK:   -5.01 KCAL/MOL
REMARK 923 INTER-LIGAND FREE ENERGY PREDICTED BY IDOCK:   -3.75 KCAL/MOL
REMARK 924 INTRA-LIGAND FREE ENERGY PREDICTED BY IDOCK:   -1.26 KCAL/MOL
REMARK 927      BINDING AFFINITY PREDICTED BY RF-SCORE:    0.00 PKD
ROOT
HETATM    1  C   UNL     1      -7.930  17.868  67.410  1.00  0.00    -0.213 C  
HETATM    2  S   UNL     1      -8.722  16.490  68.200  1.00  0.00    -0.200 S  
HETATM    3  O   UNL     1      -8.316  15.305  67.142  1.00  0.00    -0.183 OA 
HETATM    4  O   UNL     1      -8.047  16.230  69.453  1.00  0.00    -0.208 OA 
HETATM    5  O   UNL     1     -10.156  16.680  68.127  1.00  0.00    -0.249 OA 
ENDROOT
BRANCH   3   6
HETATM    6  C   UNL     1      -8.798  14.008  67.506  1.00  0.00    -0.199 C  
BRANCH   6   7
HETATM    7  C   UNL     1      -7.672  13.089  67.988  1.00  0.00    -0.145 C  
HETATM    8  O   UNL     1      -7.517  13.225  69.414  1.00  0.00    -0.306 OA 
HETATM    9  H   UNL     1      -6.818  12.654  69.713  1.00  0.00     0.000 HD 
BRANCH   7  10
HETATM   10  C   UNL     1      -7.981  11.601  67.714  1.00  0.00    -0.131 C  
HETATM   11  H   UNL     1      -8.587  10.056  68.781  1.00  0.00     0.000 HD 
HETATM   12  O   UNL     1      -8.397  10.972  68.949  1.00  0.00    -0.150 OA 
BRANCH  10  13
HETATM   13  C   UNL     1      -9.085  11.313  66.680  1.00  0.00    -0.179 C  
HETATM   14  O   UNL     1     -10.227  10.826  67.416  1.00  0.00    -0.189 OA 
HETATM   15  H   UNL     1     -10.908  10.649  66.778  1.00  0.00     0.000 HD 
BRANCH  13  16
HETATM   16  C   UNL     1      -8.718  10.306  65.575  1.00  0.00    -0.162 C  
HETATM   17  H   UNL     1      -8.706  10.311  63.616  1.00  0.00     0.000 HD 
HETATM   18  O   UNL     1      -8.933  10.932  64.297  1.00  0.00    -0.173 OA 
BRANCH  16  19
HETATM   19  C   UNL     1      -9.518   9.001  65.658  1.00  0.00    -0.203 C  
BRANCH  19  20
HETATM   20  O   UNL     1      -8.841   8.121  66.564  1.00  0.00    -0.133 OA 
HETATM   21  S   UNL     1      -9.776   7.284  67.600  1.00  0.00    -0.149 S  
HETATM   22  C   UNL     1      -8.473   6.397  68.422  1.00  0.00    -0.116 C  
HETATM   23  O   UNL     1     -10.576   6.345  66.841  1.00  0.00    -0.258 OA 
HETATM   24  O   UNL     1     -10.364   8.218  68.537  1.00  0.00    -0.206 OA 
ENDBRANCH  19  20
ENDBRANCH  16  19
ENDBRANCH  13  16
ENDBRANCH  10  13
ENDBRANCH   7  10
ENDBRANCH   6   7
ENDBRANCH   3   6
TORSDOF 7
ENDMDL
MODEL      343
REMARK 921   NORMALIZED FREE ENERGY PREDICTED BY IDOCK:   -2.63 KCAL/MOL
REMARK 922        TOTAL FREE ENERGY PREDICTED BY IDOCK:   -4.95 KCAL/MOL
REMARK 923 INTER-LIGAND FREE ENERGY PREDICTED BY IDOCK:   -4.14 KCAL/MOL
REMARK 924 INTRA-LIGAND FREE ENERGY PREDICTED BY IDOCK:   -0.80 KCAL/MOL
REMARK 927      BINDING AFFINITY PREDICTED BY RF-SCORE:    0.00 PKD
ROOT
HETATM    1  C   UNL     1      -8.292   7.338  65.346  1.00  0.00    -0.122 C  
HETATM    2  S   UNL     1      -8.642   8.954  65.991  1.00  0.00    -0.154 S  
HETATM    3  O   UNL     1      -8.784   8.583  67.582  1.00  0.00    -0.134 OA 
HETATM    4  O   UNL     1      -7.467   9.781  65.822  1.00  0.00    -0.097 OA 
HETATM    5  O   UNL     1      -9.946   9.367  65.512  1.00  0.00    -0.281 OA 
ENDROOT
BRANCH   3   6
HETATM    6  C   UNL     1      -9.057   9.709  68.421  1.00  0.00    -0.123 C  
BRANCH   6   7
HETATM    7  C   UNL     1     -10.470   9.660  69.010  1.00  0.00    -0.213 C  
HETATM    8  O   UNL     1     -11.086   8.399  68.679  1.00  0.00    -0.422 OA 
HETATM    9  H   UNL     1     -11.963   8.369  69.044  1.00  0.00     0.000 HD 
BRANCH   7  10
HETATM   10  C   UNL     1     -10.461   9.758  70.551  1.00  0.00    -0.301 C  
HETATM   11  H   UNL     1     -11.771  10.213  71.954  1.00  0.00     0.000 HD 
HETATM   12  O   UNL     1     -11.777  10.153  71.006  1.00  0.00    -0.337 OA 
BRANCH  10  13
HETATM   13  C   UNL     1     -10.101   8.469  71.314  1.00  0.00    -0.222 C  
HETATM   14  O   UNL     1      -9.252   7.694  70.442  1.00  0.00    -0.156 OA 
HETATM   15  H   UNL     1      -9.030   6.899  70.912  1.00  0.00     0.000 HD 
BRANCH  13  16
HETATM   16  C   UNL     1     -11.293   7.608  71.768  1.00  0.00    -0.255 C  
HETATM   17  H   UNL     1     -12.157   7.192  73.477  1.00  0.00     0.000 HD 
HETATM   18  O   UNL     1     -11.421   7.723  73.197  1.00  0.00    -0.330 OA 
BRANCH  16  19
HETATM   19  C   UNL     1     -11.158   6.133  71.374  1.00  0.00    -0.288 C  
BRANCH  19  20
HETATM   20  O   UNL     1     -10.477   5.449  72.434  1.00  0.00    -0.201 OA 
HETATM   21  S   UNL     1      -9.276   4.443  71.997  1.00  0.00    -0.132 S  
HETATM   22  C   UNL     1      -8.810   3.917  73.630  1.00  0.00    -0.092 C  
HETATM   23  O   UNL     1      -8.199   5.231  71.433  1.00  0.00    -0.112 OA 
HETATM   24  O   UNL     1      -9.859   3.318  71.296  1.00  0.00    -0.169 OA 
ENDBRANCH  19  20
ENDBRANCH  16  19
ENDBRANCH  13  16
ENDBRANCH  10  13
ENDBRANCH   7  10
ENDBRANCH   6   7
ENDBRANCH   3   6
TORSDOF 7
ENDMDL
MODEL      344
REMARK 921   NORMALIZED FREE ENERGY PREDICTED BY IDOCK:   -2.62 KCAL/MOL
REMARK 922        TOTAL FREE ENERGY PREDICTED BY IDOCK:   -4.94 KCAL/MOL
REMARK 923 INTER-LIGAND FREE ENERGY PREDICTED BY IDOCK:   -5.88 KCAL/MOL
REMARK 924 INTRA-LIGAND FREE ENERGY PREDICTED BY IDOCK:    0.94 KCAL/MOL
REMARK 927      BINDING AFFINITY PREDICTED BY RF-SCORE:    0.00 PKD
ROOT
HETATM    1  C   UNL     1     -13.166  10.436  70.426  1.00  0.00     0.053 C  
HETATM    2  S   UNL     1     -11.698  11.172  69.752  1.00  0.00    -0.376 S  
HETATM    3  O   UNL     1     -12.133  11.241  68.173  1.00  0.00    -0.635 OA 
HETATM    4  O   UNL     1     -11.593  12.526  70.253  1.00  0.00    -0.173 OA 
HETATM    5  O   UNL     1     -10.610  10.223  69.875  1.00  0.00    -0.258 OA 
ENDROOT
BRANCH   3   6
HETATM    6  C   UNL     1     -11.143  11.825  67.321  1.00  0.00    -0.287 C  
BRANCH   6   7
HETATM    7  C   UNL     1     -10.711  13.212  67.806  1.00  0.00    -0.240 C  
HETATM    8  O   UNL     1      -9.278  13.330  67.709  1.00  0.00    -0.191 OA 
HETATM    9  H   UNL     1      -9.010  14.191  68.010  1.00  0.00     0.000 HD 
BRANCH   7  10
HETATM   10  C   UNL     1     -11.309  14.342  66.940  1.00  0.00    -0.343 C  
HETATM   11  H   UNL     1     -12.119  16.110  67.273  1.00  0.00     0.000 HD 
HETATM   12  O   UNL     1     -11.751  15.414  67.806  1.00  0.00    -0.297 OA 
BRANCH  10  13
HETATM   13  C   UNL     1     -10.366  14.976  65.901  1.00  0.00    -0.313 C  
HETATM   14  O   UNL     1      -9.201  14.128  65.825  1.00  0.00    -0.505 OA 
HETATM   15  H   UNL     1      -8.619  14.519  65.185  1.00  0.00     0.000 HD 
BRANCH  13  16
HETATM   16  C   UNL     1      -9.931  16.423  66.191  1.00  0.00    -0.339 C  
HETATM   17  H   UNL     1     -10.336  18.190  65.446  1.00  0.00     0.000 HD 
HETATM   18  O   UNL     1     -10.604  17.297  65.266  1.00  0.00    -0.667 OA 
BRANCH  16  19
HETATM   19  C   UNL     1      -8.415  16.629  66.093  1.00  0.00    -0.273 C  
BRANCH  19  20
HETATM   20  O   UNL     1      -8.048  17.673  67.005  1.00  0.00    -0.208 OA 
HETATM   21  S   UNL     1      -7.424  17.207  68.432  1.00  0.00    -0.238 S  
HETATM   22  C   UNL     1      -7.155  18.828  69.108  1.00  0.00    -0.241 C  
HETATM   23  O   UNL     1      -6.140  16.580  68.190  1.00  0.00    -0.114 OA 
HETATM   24  O   UNL     1      -8.469  16.554  69.193  1.00  0.00    -0.232 OA 
ENDBRANCH  19  20
ENDBRANCH  16  19
ENDBRANCH  13  16
ENDBRANCH  10  13
ENDBRANCH   7  10
ENDBRANCH   6   7
ENDBRANCH   3   6
TORSDOF 7
ENDMDL
MODEL      345
REMARK 921   NORMALIZED FREE ENERGY PREDICTED BY IDOCK:   -2.61 KCAL/MOL
REMARK 922        TOTAL FREE ENERGY PREDICTED BY IDOCK:   -4.92 KCAL/MOL
REMARK 923 INTER-LIGAND FREE ENERGY PREDICTED BY IDOCK:   -4.53 KCAL/MOL
REMARK 924 INTRA-LIGAND FREE ENERGY PREDICTED BY IDOCK:   -0.39 KCAL/MOL
REMARK 927      BINDING AFFINITY PREDICTED BY RF-SCORE:    0.00 PKD
ROOT
HETATM    1  C   UNL     1     -11.286   7.282  72.875  1.00  0.00    -0.292 C  
HETATM    2  S   UNL     1     -10.450   6.936  71.348  1.00  0.00    -0.210 S  
HETATM    3  O   UNL     1     -10.016   8.461  70.929  1.00  0.00    -0.182 OA 
HETATM    4  O   UNL     1      -9.248   6.187  71.642  1.00  0.00    -0.146 OA 
HETATM    5  O   UNL     1     -11.428   6.471  70.385  1.00  0.00    -0.352 OA 
ENDROOT
BRANCH   3   6
HETATM    6  C   UNL     1      -9.278   8.541  69.706  1.00  0.00    -0.157 C  
BRANCH   6   7
HETATM    7  C   UNL     1      -9.645   9.786  68.892  1.00  0.00    -0.167 C  
HETATM    8  O   UNL     1     -10.223  10.777  69.764  1.00  0.00    -0.434 OA 
HETATM    9  H   UNL     1     -10.450  11.550  69.259  1.00  0.00     0.000 HD 
BRANCH   7  10
HETATM   10  C   UNL     1      -8.408  10.437  68.237  1.00  0.00    -0.119 C  
HETATM   11  H   UNL     1      -6.856   9.808  67.193  1.00  0.00     0.000 HD 
HETATM   12  O   UNL     1      -7.618   9.407  67.597  1.00  0.00    -0.087 OA 
BRANCH  10  13
HETATM   13  C   UNL     1      -8.689  11.506  67.164  1.00  0.00    -0.160 C  
HETATM   14  O   UNL     1      -7.443  11.741  66.475  1.00  0.00    -0.343 OA 
HETATM   15  H   UNL     1      -7.616  12.400  65.814  1.00  0.00     0.000 HD 
BRANCH  13  16
HETATM   16  C   UNL     1      -9.248  12.841  67.685  1.00  0.00    -0.192 C  
HETATM   17  H   UNL     1     -11.025  13.650  67.859  1.00  0.00     0.000 HD 
HETATM   18  O   UNL     1     -10.680  12.825  67.537  1.00  0.00    -0.225 OA 
BRANCH  16  19
HETATM   19  C   UNL     1      -8.664  14.062  66.965  1.00  0.00    -0.203 C  
BRANCH  19  20
HETATM   20  O   UNL     1      -9.568  15.161  67.147  1.00  0.00    -0.213 OA 
HETATM   21  S   UNL     1      -9.206  16.211  68.335  1.00  0.00    -0.210 S  
HETATM   22  C   UNL     1     -10.585  17.308  68.101  1.00  0.00    -0.386 C  
HETATM   23  O   UNL     1      -7.987  16.906  67.979  1.00  0.00    -0.176 OA 
HETATM   24  O   UNL     1      -9.364  15.533  69.605  1.00  0.00    -0.275 OA 
ENDBRANCH  19  20
ENDBRANCH  16  19
ENDBRANCH  13  16
ENDBRANCH  10  13
ENDBRANCH   7  10
ENDBRANCH   6   7
ENDBRANCH   3   6
TORSDOF 7
ENDMDL
MODEL      346
REMARK 921   NORMALIZED FREE ENERGY PREDICTED BY IDOCK:   -2.57 KCAL/MOL
REMARK 922        TOTAL FREE ENERGY PREDICTED BY IDOCK:   -4.86 KCAL/MOL
REMARK 923 INTER-LIGAND FREE ENERGY PREDICTED BY IDOCK:   -3.63 KCAL/MOL
REMARK 924 INTRA-LIGAND FREE ENERGY PREDICTED BY IDOCK:   -1.23 KCAL/MOL
REMARK 927      BINDING AFFINITY PREDICTED BY RF-SCORE:    0.00 PKD
ROOT
HETATM    1  C   UNL     1     -12.378  14.237  69.980  1.00  0.00    -0.346 C  
HETATM    2  S   UNL     1     -11.413  14.094  68.498  1.00  0.00    -0.322 S  
HETATM    3  O   UNL     1     -11.052  12.497  68.566  1.00  0.00    -0.232 OA 
HETATM    4  O   UNL     1     -12.283  14.314  67.362  1.00  0.00    -0.378 OA 
HETATM    5  O   UNL     1     -10.183  14.838  68.677  1.00  0.00    -0.223 OA 
ENDROOT
BRANCH   3   6
HETATM    6  C   UNL     1     -10.268  12.029  67.464  1.00  0.00    -0.198 C  
BRANCH   6   7
HETATM    7  C   UNL     1      -8.814  11.761  67.863  1.00  0.00    -0.165 C  
HETATM    8  O   UNL     1      -8.754  11.426  69.264  1.00  0.00    -0.374 OA 
HETATM    9  H   UNL     1      -7.852  11.260  69.512  1.00  0.00     0.000 HD 
BRANCH   7  10
HETATM   10  C   UNL     1      -8.212  10.564  67.095  1.00  0.00    -0.123 C  
HETATM   11  H   UNL     1      -6.460  10.119  66.306  1.00  0.00     0.000 HD 
HETATM   12  O   UNL     1      -6.830  10.855  66.779  1.00  0.00    -0.104 OA 
BRANCH  10  13
HETATM   13  C   UNL     1      -8.220   9.210  67.829  1.00  0.00    -0.109 C  
HETATM   14  O   UNL     1      -7.006   9.152  68.607  1.00  0.00    -0.062 OA 
HETATM   15  H   UNL     1      -7.010   8.317  69.059  1.00  0.00     0.000 HD 
BRANCH  13  16
HETATM   16  C   UNL     1      -8.313   7.965  66.929  1.00  0.00    -0.116 C  
HETATM   17  H   UNL     1      -9.466   7.377  65.458  1.00  0.00     0.000 HD 
HETATM   18  O   UNL     1      -9.409   8.145  66.013  1.00  0.00    -0.182 OA 
BRANCH  16  19
HETATM   19  C   UNL     1      -8.500   6.663  67.717  1.00  0.00    -0.122 C  
BRANCH  19  20
HETATM   20  O   UNL     1      -9.104   6.988  68.976  1.00  0.00    -0.137 OA 
HETATM   21  S   UNL     1      -8.410   6.349  70.301  1.00  0.00    -0.127 S  
HETATM   22  C   UNL     1      -9.508   7.063  71.504  1.00  0.00    -0.154 C  
HETATM   23  O   UNL     1      -7.095   6.936  70.460  1.00  0.00    -0.064 OA 
HETATM   24  O   UNL     1      -8.618   4.916  70.277  1.00  0.00    -0.092 OA 
ENDBRANCH  19  20
ENDBRANCH  16  19
ENDBRANCH  13  16
ENDBRANCH  10  13
ENDBRANCH   7  10
ENDBRANCH   6   7
ENDBRANCH   3   6
TORSDOF 7
ENDMDL
MODEL      347
REMARK 921   NORMALIZED FREE ENERGY PREDICTED BY IDOCK:   -2.56 KCAL/MOL
REMARK 922        TOTAL FREE ENERGY PREDICTED BY IDOCK:   -4.85 KCAL/MOL
REMARK 923 INTER-LIGAND FREE ENERGY PREDICTED BY IDOCK:   -3.91 KCAL/MOL
REMARK 924 INTRA-LIGAND FREE ENERGY PREDICTED BY IDOCK:   -0.93 KCAL/MOL
REMARK 927      BINDING AFFINITY PREDICTED BY RF-SCORE:    0.00 PKD
ROOT
HETATM    1  C   UNL     1      -9.949  13.745  65.793  1.00  0.00    -0.275 C  
HETATM    2  S   UNL     1     -10.562  13.063  67.312  1.00  0.00    -0.243 S  
HETATM    3  O   UNL     1     -10.729  11.497  66.855  1.00  0.00    -0.238 OA 
HETATM    4  O   UNL     1      -9.512  13.137  68.305  1.00  0.00    -0.217 OA 
HETATM    5  O   UNL     1     -11.886  13.599  67.555  1.00  0.00    -0.350 OA 
ENDROOT
BRANCH   3   6
HETATM    6  C   UNL     1     -11.204  10.634  67.893  1.00  0.00    -0.308 C  
BRANCH   6   7
HETATM    7  C   UNL     1     -10.261   9.452  68.137  1.00  0.00    -0.200 C  
HETATM    8  O   UNL     1      -9.281   9.815  69.129  1.00  0.00    -0.157 OA 
HETATM    9  H   UNL     1      -8.696   9.081  69.280  1.00  0.00     0.000 HD 
BRANCH   7  10
HETATM   10  C   UNL     1     -11.009   8.216  68.683  1.00  0.00     0.211 C  
HETATM   11  H   UNL     1     -11.492   6.431  67.997  1.00  0.00     0.000 HD 
HETATM   12  O   UNL     1     -11.032   7.191  67.661  1.00  0.00    -0.218 OA 
BRANCH  10  13
HETATM   13  C   UNL     1     -10.416   7.565  69.947  1.00  0.00    -0.229 C  
HETATM   14  O   UNL     1     -10.281   6.156  69.663  1.00  0.00    -0.177 OA 
HETATM   15  H   UNL     1      -9.916   5.755  70.442  1.00  0.00     0.000 HD 
BRANCH  13  16
HETATM   16  C   UNL     1     -11.231   7.754  71.238  1.00  0.00    -0.255 C  
HETATM   17  H   UNL     1     -11.506   9.203  72.528  1.00  0.00     0.000 HD 
HETATM   18  O   UNL     1     -11.003   9.087  71.731  1.00  0.00    -0.335 OA 
BRANCH  16  19
HETATM   19  C   UNL     1     -10.885   6.730  72.325  1.00  0.00    -0.231 C  
BRANCH  19  20
HETATM   20  O   UNL     1      -9.499   6.388  72.189  1.00  0.00    -0.151 OA 
HETATM   21  S   UNL     1      -8.574   6.555  73.517  1.00  0.00    -0.123 S  
HETATM   22  C   UNL     1      -7.043   6.004  72.803  1.00  0.00    -0.081 C  
HETATM   23  O   UNL     1      -9.008   5.588  74.504  1.00  0.00    -0.119 OA 
HETATM   24  O   UNL     1      -8.464   7.968  73.818  1.00  0.00    -0.219 OA 
ENDBRANCH  19  20
ENDBRANCH  16  19
ENDBRANCH  13  16
ENDBRANCH  10  13
ENDBRANCH   7  10
ENDBRANCH   6   7
ENDBRANCH   3   6
TORSDOF 7
ENDMDL
MODEL      348
REMARK 921   NORMALIZED FREE ENERGY PREDICTED BY IDOCK:   -2.54 KCAL/MOL
REMARK 922        TOTAL FREE ENERGY PREDICTED BY IDOCK:   -4.83 KCAL/MOL
REMARK 923 INTER-LIGAND FREE ENERGY PREDICTED BY IDOCK:   -4.18 KCAL/MOL
REMARK 924 INTRA-LIGAND FREE ENERGY PREDICTED BY IDOCK:   -0.65 KCAL/MOL
REMARK 927      BINDING AFFINITY PREDICTED BY RF-SCORE:    0.00 PKD
ROOT
HETATM    1  C   UNL     1      -9.772  11.751  67.161  1.00  0.00    -0.183 C  
HETATM    2  S   UNL     1     -10.807  10.607  68.037  1.00  0.00    -0.283 S  
HETATM    3  O   UNL     1     -10.029  10.592  69.480  1.00  0.00    -0.217 OA 
HETATM    4  O   UNL     1     -12.106  11.217  68.229  1.00  0.00    -0.619 OA 
HETATM    5  O   UNL     1     -10.657   9.297  67.436  1.00  0.00    -0.272 OA 
ENDROOT
BRANCH   3   6
HETATM    6  C   UNL     1     -10.640   9.750  70.463  1.00  0.00    -0.312 C  
BRANCH   6   7
HETATM    7  C   UNL     1      -9.672   8.689  70.995  1.00  0.00    -0.210 C  
HETATM    8  O   UNL     1      -9.366   8.966  72.376  1.00  0.00    -0.342 OA 
HETATM    9  H   UNL     1      -8.766   8.307  72.706  1.00  0.00     0.000 HD 
BRANCH   7  10
HETATM   10  C   UNL     1     -10.284   7.272  70.951  1.00  0.00    -0.196 C  
HETATM   11  H   UNL     1     -12.060   6.479  71.282  1.00  0.00     0.000 HD 
HETATM   12  O   UNL     1     -11.684   7.352  71.309  1.00  0.00    -0.270 OA 
BRANCH  10  13
HETATM   13  C   UNL     1     -10.217   6.543  69.596  1.00  0.00    -0.187 C  
HETATM   14  O   UNL     1     -11.494   5.898  69.407  1.00  0.00    -0.265 OA 
HETATM   15  H   UNL     1     -11.453   5.448  68.572  1.00  0.00     0.000 HD 
BRANCH  13  16
HETATM   16  C   UNL     1      -9.091   5.503  69.453  1.00  0.00    -0.112 C  
HETATM   17  H   UNL     1      -8.021   4.412  70.679  1.00  0.00     0.000 HD 
HETATM   18  O   UNL     1      -8.715   5.054  70.768  1.00  0.00    -0.121 OA 
BRANCH  16  19
HETATM   19  C   UNL     1      -7.860   6.044  68.716  1.00  0.00    -0.100 C  
BRANCH  19  20
HETATM   20  O   UNL     1      -7.508   5.105  67.691  1.00  0.00    -0.081 OA 
HETATM   21  S   UNL     1      -8.062   5.420  66.194  1.00  0.00    -0.108 S  
HETATM   22  C   UNL     1      -7.344   4.012  65.381  1.00  0.00    -0.076 C  
HETATM   23  O   UNL     1      -7.417   6.622  65.709  1.00  0.00    -0.077 OA 
HETATM   24  O   UNL     1      -9.503   5.266  66.202  1.00  0.00    -0.151 OA 
ENDBRANCH  19  20
ENDBRANCH  16  19
ENDBRANCH  13  16
ENDBRANCH  10  13
ENDBRANCH   7  10
ENDBRANCH   6   7
ENDBRANCH   3   6
TORSDOF 7
ENDMDL
MODEL      349
REMARK 921   NORMALIZED FREE ENERGY PREDICTED BY IDOCK:   -2.54 KCAL/MOL
REMARK 922        TOTAL FREE ENERGY PREDICTED BY IDOCK:   -4.82 KCAL/MOL
REMARK 923 INTER-LIGAND FREE ENERGY PREDICTED BY IDOCK:   -4.28 KCAL/MOL
REMARK 924 INTRA-LIGAND FREE ENERGY PREDICTED BY IDOCK:   -0.55 KCAL/MOL
REMARK 927      BINDING AFFINITY PREDICTED BY RF-SCORE:    0.00 PKD
ROOT
HETATM    1  C   UNL     1      -6.614  17.003  68.940  1.00  0.00    -0.196 C  
HETATM    2  S   UNL     1      -7.469  15.458  68.764  1.00  0.00    -0.148 S  
HETATM    3  O   UNL     1      -8.155  15.697  67.295  1.00  0.00    -0.162 OA 
HETATM    4  O   UNL     1      -6.487  14.402  68.640  1.00  0.00    -0.080 OA 
HETATM    5  O   UNL     1      -8.530  15.405  69.749  1.00  0.00    -0.209 OA 
ENDROOT
BRANCH   3   6
HETATM    6  C   UNL     1      -8.930  14.589  66.826  1.00  0.00    -0.246 C  
BRANCH   6   7
HETATM    7  C   UNL     1     -10.411  14.727  67.191  1.00  0.00    -0.255 C  
HETATM    8  O   UNL     1     -11.086  15.498  66.178  1.00  0.00    -0.286 OA 
HETATM    9  H   UNL     1     -12.006  15.583  66.404  1.00  0.00     0.000 HD 
BRANCH   7  10
HETATM   10  C   UNL     1     -11.122  13.358  67.255  1.00  0.00    -0.282 C  
HETATM   11  H   UNL     1     -12.835  12.678  67.958  1.00  0.00     0.000 HD 
HETATM   12  O   UNL     1     -12.398  13.520  67.919  1.00  0.00    -0.225 OA 
BRANCH  10  13
HETATM   13  C   UNL     1     -11.414  12.678  65.903  1.00  0.00    -0.363 C  
HETATM   14  O   UNL     1     -12.848  12.683  65.736  1.00  0.00    -0.347 OA 
HETATM   15  H   UNL     1     -13.028  12.264  64.904  1.00  0.00     0.000 HD 
BRANCH  13  16
HETATM   16  C   UNL     1     -10.885  11.241  65.752  1.00  0.00    -0.194 C  
HETATM   17  H   UNL     1     -10.467   9.761  66.967  1.00  0.00     0.000 HD 
HETATM   18  O   UNL     1     -10.793  10.648  67.061  1.00  0.00    -0.267 OA 
BRANCH  16  19
HETATM   19  C   UNL     1      -9.524  11.169  65.051  1.00  0.00    -0.227 C  
BRANCH  19  20
HETATM   20  O   UNL     1      -9.125   9.793  64.992  1.00  0.00    -0.198 OA 
HETATM   21  S   UNL     1      -8.054   9.395  63.835  1.00  0.00    -0.167 S  
HETATM   22  C   UNL     1      -7.923   7.666  64.226  1.00  0.00    -0.112 C  
HETATM   23  O   UNL     1      -6.792  10.041  64.135  1.00  0.00    -0.123 OA 
HETATM   24  O   UNL     1      -8.704   9.531  62.548  1.00  0.00    -0.192 OA 
ENDBRANCH  19  20
ENDBRANCH  16  19
ENDBRANCH  13  16
ENDBRANCH  10  13
ENDBRANCH   7  10
ENDBRANCH   6   7
ENDBRANCH   3   6
TORSDOF 7
ENDMDL
MODEL      350
REMARK 921   NORMALIZED FREE ENERGY PREDICTED BY IDOCK:   -2.53 KCAL/MOL
REMARK 922        TOTAL FREE ENERGY PREDICTED BY IDOCK:   -4.81 KCAL/MOL
REMARK 923 INTER-LIGAND FREE ENERGY PREDICTED BY IDOCK:   -4.88 KCAL/MOL
REMARK 924 INTRA-LIGAND FREE ENERGY PREDICTED BY IDOCK:    0.06 KCAL/MOL
REMARK 927      BINDING AFFINITY PREDICTED BY RF-SCORE:    0.00 PKD
ROOT
HETATM    1  C   UNL     1     -11.948  14.412  66.864  1.00  0.00    -0.399 C  
HETATM    2  S   UNL     1     -11.419  13.253  65.628  1.00  0.00    -0.329 S  
HETATM    3  O   UNL     1     -10.046  12.710  66.340  1.00  0.00    -0.242 OA 
HETATM    4  O   UNL     1     -12.370  12.163  65.584  1.00  0.00    -0.560 OA 
HETATM    5  O   UNL     1     -11.042  13.990  64.438  1.00  0.00    -0.365 OA 
ENDROOT
BRANCH   3   6
HETATM    6  C   UNL     1      -9.355  11.708  65.587  1.00  0.00    -0.180 C  
BRANCH   6   7
HETATM    7  C   UNL     1      -9.394  10.340  66.275  1.00  0.00    -0.167 C  
HETATM    8  O   UNL     1     -10.123   9.408  65.452  1.00  0.00    -0.392 OA 
HETATM    9  H   UNL     1     -10.147   8.560  65.879  1.00  0.00     0.000 HD 
BRANCH   7  10
HETATM   10  C   UNL     1      -7.982   9.749  66.471  1.00  0.00    -0.112 C  
HETATM   11  H   UNL     1      -6.223   9.951  65.600  1.00  0.00     0.000 HD 
HETATM   12  O   UNL     1      -7.092  10.315  65.479  1.00  0.00    -0.132 OA 
BRANCH  10  13
HETATM   13  C   UNL     1      -7.324   9.996  67.843  1.00  0.00    -0.088 C  
HETATM   14  O   UNL     1      -6.541   8.823  68.145  1.00  0.00    -0.059 OA 
HETATM   15  H   UNL     1      -6.136   8.975  68.990  1.00  0.00     0.000 HD 
BRANCH  13  16
HETATM   16  C   UNL     1      -8.293  10.281  69.004  1.00  0.00    -0.148 C  
HETATM   17  H   UNL     1      -8.165  10.345  70.959  1.00  0.00     0.000 HD 
HETATM   18  O   UNL     1      -7.567  10.169  70.242  1.00  0.00    -0.187 OA 
BRANCH  16  19
HETATM   19  C   UNL     1      -9.504   9.342  69.024  1.00  0.00    -0.155 C  
BRANCH  19  20
HETATM   20  O   UNL     1     -10.473   9.885  69.931  1.00  0.00    -0.232 OA 
HETATM   21  S   UNL     1     -11.304  11.184  69.415  1.00  0.00    -0.311 S  
HETATM   22  C   UNL     1     -12.314  11.403  70.861  1.00  0.00    -0.381 C  
HETATM   23  O   UNL     1     -12.149  10.781  68.309  1.00  0.00    -0.496 OA 
HETATM   24  O   UNL     1     -10.387  12.301  69.317  1.00  0.00     0.059 OA 
ENDBRANCH  19  20
ENDBRANCH  16  19
ENDBRANCH  13  16
ENDBRANCH  10  13
ENDBRANCH   7  10
ENDBRANCH   6   7
ENDBRANCH   3   6
TORSDOF 7
ENDMDL
MODEL      351
REMARK 921   NORMALIZED FREE ENERGY PREDICTED BY IDOCK:   -2.53 KCAL/MOL
REMARK 922        TOTAL FREE ENERGY PREDICTED BY IDOCK:   -4.81 KCAL/MOL
REMARK 923 INTER-LIGAND FREE ENERGY PREDICTED BY IDOCK:   -3.57 KCAL/MOL
REMARK 924 INTRA-LIGAND FREE ENERGY PREDICTED BY IDOCK:   -1.23 KCAL/MOL
REMARK 927      BINDING AFFINITY PREDICTED BY RF-SCORE:    0.00 PKD
ROOT
HETATM    1  C   UNL     1      -6.037   9.315  70.886  1.00  0.00    -0.064 C  
HETATM    2  S   UNL     1      -7.527   8.475  71.361  1.00  0.00    -0.109 S  
HETATM    3  O   UNL     1      -6.984   6.929  71.331  1.00  0.00    -0.064 OA 
HETATM    4  O   UNL     1      -7.832   8.823  72.733  1.00  0.00    -0.377 OA 
HETATM    5  O   UNL     1      -8.499   8.628  70.298  1.00  0.00    -0.118 OA 
ENDROOT
BRANCH   3   6
HETATM    6  C   UNL     1      -7.969   5.958  71.699  1.00  0.00    -0.113 C  
BRANCH   6   7
HETATM    7  C   UNL     1      -7.957   4.743  70.766  1.00  0.00    -0.081 C  
HETATM    8  O   UNL     1      -8.967   3.805  71.185  1.00  0.00    -0.087 OA 
HETATM    9  H   UNL     1      -8.960   3.051  70.606  1.00  0.00     0.000 HD 
BRANCH   7  10
HETATM   10  C   UNL     1      -8.286   5.129  69.307  1.00  0.00    -0.084 C  
HETATM   11  H   UNL     1      -7.549   4.709  67.526  1.00  0.00     0.000 HD 
HETATM   12  O   UNL     1      -7.346   4.472  68.424  1.00  0.00    -0.063 OA 
BRANCH  10  13
HETATM   13  C   UNL     1      -9.694   4.757  68.806  1.00  0.00    -0.167 C  
HETATM   14  O   UNL     1      -9.519   3.776  67.762  1.00  0.00    -0.182 OA 
HETATM   15  H   UNL     1     -10.387   3.547  67.452  1.00  0.00     0.000 HD 
BRANCH  13  16
HETATM   16  C   UNL     1     -10.543   5.926  68.275  1.00  0.00    -0.244 C  
HETATM   17  H   UNL     1     -10.203   7.549  67.229  1.00  0.00     0.000 HD 
HETATM   18  O   UNL     1      -9.679   6.828  67.557  1.00  0.00    -0.124 OA 
BRANCH  16  19
HETATM   19  C   UNL     1     -11.285   6.685  69.380  1.00  0.00    -0.299 C  
BRANCH  19  20
HETATM   20  O   UNL     1     -11.255   5.882  70.568  1.00  0.00    -0.305 OA 
HETATM   21  S   UNL     1     -11.865   6.555  71.917  1.00  0.00    -0.333 S  
HETATM   22  C   UNL     1     -11.592   5.178  73.007  1.00  0.00    -0.223 C  
HETATM   23  O   UNL     1     -13.290   6.737  71.736  1.00  0.00    -0.296 OA 
HETATM   24  O   UNL     1     -10.994   7.642  72.316  1.00  0.00    -0.242 OA 
ENDBRANCH  19  20
ENDBRANCH  16  19
ENDBRANCH  13  16
ENDBRANCH  10  13
ENDBRANCH   7  10
ENDBRANCH   6   7
ENDBRANCH   3   6
TORSDOF 7
ENDMDL
MODEL      352
REMARK 921   NORMALIZED FREE ENERGY PREDICTED BY IDOCK:   -2.52 KCAL/MOL
REMARK 922        TOTAL FREE ENERGY PREDICTED BY IDOCK:   -4.80 KCAL/MOL
REMARK 923 INTER-LIGAND FREE ENERGY PREDICTED BY IDOCK:   -4.12 KCAL/MOL
REMARK 924 INTRA-LIGAND FREE ENERGY PREDICTED BY IDOCK:   -0.67 KCAL/MOL
REMARK 927      BINDING AFFINITY PREDICTED BY RF-SCORE:    0.00 PKD
ROOT
HETATM    1  C   UNL     1      -9.273   3.175  69.678  1.00  0.00    -0.151 C  
HETATM    2  S   UNL     1      -8.156   4.495  69.278  1.00  0.00    -0.068 S  
HETATM    3  O   UNL     1      -9.217   5.551  68.610  1.00  0.00    -0.119 OA 
HETATM    4  O   UNL     1      -7.661   5.068  70.511  1.00  0.00    -0.067 OA 
HETATM    5  O   UNL     1      -7.263   4.039  68.232  1.00  0.00    -0.057 OA 
ENDROOT
BRANCH   3   6
HETATM    6  C   UNL     1      -8.624   6.780  68.180  1.00  0.00    -0.120 C  
BRANCH   6   7
HETATM    7  C   UNL     1      -9.245   7.994  68.877  1.00  0.00    -0.147 C  
HETATM    8  O   UNL     1      -8.224   8.703  69.608  1.00  0.00    -0.109 OA 
HETATM    9  H   UNL     1      -8.610   9.457  70.040  1.00  0.00     0.000 HD 
BRANCH   7  10
HETATM   10  C   UNL     1      -9.847   8.997  67.869  1.00  0.00    -0.171 C  
HETATM   11  H   UNL     1     -11.253   8.951  66.486  1.00  0.00     0.000 HD 
HETATM   12  O   UNL     1     -10.882   8.333  67.107  1.00  0.00    -0.244 OA 
BRANCH  10  13
HETATM   13  C   UNL     1     -10.486  10.264  68.469  1.00  0.00    -0.192 C  
HETATM   14  O   UNL     1     -11.873  10.258  68.070  1.00  0.00    -0.708 OA 
HETATM   15  H   UNL     1     -12.267  11.040  68.439  1.00  0.00     0.000 HD 
BRANCH  13  16
HETATM   16  C   UNL     1      -9.838  11.597  68.054  1.00  0.00    -0.190 C  
HETATM   17  H   UNL     1      -8.131  12.497  68.395  1.00  0.00     0.000 HD 
HETATM   18  O   UNL     1      -8.530  11.674  68.651  1.00  0.00    -0.153 OA 
BRANCH  16  19
HETATM   19  C   UNL     1     -10.667  12.822  68.455  1.00  0.00    -0.253 C  
BRANCH  19  20
HETATM   20  O   UNL     1      -9.872  13.993  68.225  1.00  0.00    -0.221 OA 
HETATM   21  S   UNL     1     -10.586  15.212  67.420  1.00  0.00    -0.276 S  
HETATM   22  C   UNL     1      -9.212  16.339  67.438  1.00  0.00    -0.211 C  
HETATM   23  O   UNL     1     -11.647  15.750  68.247  1.00  0.00    -0.361 OA 
HETATM   24  O   UNL     1     -10.816  14.782  66.056  1.00  0.00    -0.303 OA 
ENDBRANCH  19  20
ENDBRANCH  16  19
ENDBRANCH  13  16
ENDBRANCH  10  13
ENDBRANCH   7  10
ENDBRANCH   6   7
ENDBRANCH   3   6
TORSDOF 7
ENDMDL
MODEL      353
REMARK 921   NORMALIZED FREE ENERGY PREDICTED BY IDOCK:   -2.51 KCAL/MOL
REMARK 922        TOTAL FREE ENERGY PREDICTED BY IDOCK:   -4.78 KCAL/MOL
REMARK 923 INTER-LIGAND FREE ENERGY PREDICTED BY IDOCK:   -4.30 KCAL/MOL
REMARK 924 INTRA-LIGAND FREE ENERGY PREDICTED BY IDOCK:   -0.48 KCAL/MOL
REMARK 927      BINDING AFFINITY PREDICTED BY RF-SCORE:    0.00 PKD
ROOT
HETATM    1  C   UNL     1      -8.837  13.037  67.763  1.00  0.00    -0.188 C  
HETATM    2  S   UNL     1      -7.914  11.522  67.818  1.00  0.00    -0.136 S  
HETATM    3  O   UNL     1      -8.585  10.753  66.536  1.00  0.00    -0.141 OA 
HETATM    4  O   UNL     1      -6.533  11.814  67.501  1.00  0.00    -0.073 OA 
HETATM    5  O   UNL     1      -8.288  10.799  69.017  1.00  0.00    -0.148 OA 
ENDROOT
BRANCH   3   6
HETATM    6  C   UNL     1      -8.031   9.458  66.277  1.00  0.00    -0.111 C  
BRANCH   6   7
HETATM    7  C   UNL     1      -9.077   8.484  65.728  1.00  0.00    -0.167 C  
HETATM    8  O   UNL     1      -8.903   8.343  64.304  1.00  0.00    -0.409 OA 
HETATM    9  H   UNL     1      -9.552   7.738  63.964  1.00  0.00     0.000 HD 
BRANCH   7  10
HETATM   10  C   UNL     1      -8.931   7.072  66.335  1.00  0.00    -0.154 C  
HETATM   11  H   UNL     1      -7.451   5.977  67.046  1.00  0.00     0.000 HD 
HETATM   12  O   UNL     1      -7.541   6.846  66.672  1.00  0.00    -0.086 OA 
BRANCH  10  13
HETATM   13  C   UNL     1      -9.744   6.792  67.614  1.00  0.00    -0.126 C  
HETATM   14  O   UNL     1     -11.113   7.138  67.319  1.00  0.00    -0.547 OA 
HETATM   15  H   UNL     1     -11.614   6.966  68.107  1.00  0.00     0.000 HD 
BRANCH  13  16
HETATM   16  C   UNL     1      -9.284   7.545  68.874  1.00  0.00    -0.142 C  
HETATM   17  H   UNL     1      -8.080   7.171  70.375  1.00  0.00     0.000 HD 
HETATM   18  O   UNL     1      -8.365   6.706  69.598  1.00  0.00    -0.128 OA 
BRANCH  16  19
HETATM   19  C   UNL     1     -10.443   7.958  69.788  1.00  0.00    -0.233 C  
BRANCH  19  20
HETATM   20  O   UNL     1     -10.364   7.176  70.988  1.00  0.00    -0.197 OA 
HETATM   21  S   UNL     1     -10.501   7.983  72.393  1.00  0.00    -0.328 S  
HETATM   22  C   UNL     1     -10.352   6.584  73.479  1.00  0.00    -0.281 C  
HETATM   23  O   UNL     1     -11.847   8.511  72.489  1.00  0.00    -0.384 OA 
HETATM   24  O   UNL     1      -9.331   8.820  72.552  1.00  0.00    -0.326 OA 
ENDBRANCH  19  20
ENDBRANCH  16  19
ENDBRANCH  13  16
ENDBRANCH  10  13
ENDBRANCH   7  10
ENDBRANCH   6   7
ENDBRANCH   3   6
TORSDOF 7
ENDMDL
MODEL      354
REMARK 921   NORMALIZED FREE ENERGY PREDICTED BY IDOCK:   -2.50 KCAL/MOL
REMARK 922        TOTAL FREE ENERGY PREDICTED BY IDOCK:   -4.77 KCAL/MOL
REMARK 923 INTER-LIGAND FREE ENERGY PREDICTED BY IDOCK:   -4.14 KCAL/MOL
REMARK 924 INTRA-LIGAND FREE ENERGY PREDICTED BY IDOCK:   -0.63 KCAL/MOL
REMARK 927      BINDING AFFINITY PREDICTED BY RF-SCORE:    0.00 PKD
ROOT
HETATM    1  C   UNL     1      -6.778   9.624  64.477  1.00  0.00    -0.103 C  
HETATM    2  S   UNL     1      -8.236   8.612  64.458  1.00  0.00    -0.149 S  
HETATM    3  O   UNL     1      -8.049   7.846  65.895  1.00  0.00    -0.106 OA 
HETATM    4  O   UNL     1      -9.394   9.475  64.551  1.00  0.00    -0.232 OA 
HETATM    5  O   UNL     1      -8.097   7.626  63.406  1.00  0.00    -0.125 OA 
ENDROOT
BRANCH   3   6
HETATM    6  C   UNL     1      -9.106   6.934  66.212  1.00  0.00    -0.141 C  
BRANCH   6   7
HETATM    7  C   UNL     1     -10.154   7.565  67.134  1.00  0.00    -0.247 C  
HETATM    8  O   UNL     1     -11.358   6.773  67.106  1.00  0.00    -0.708 OA 
HETATM    9  H   UNL     1     -12.008   7.165  67.679  1.00  0.00     0.000 HD 
BRANCH   7  10
HETATM   10  C   UNL     1      -9.683   7.607  68.604  1.00  0.00    -0.155 C  
HETATM   11  H   UNL     1      -7.949   7.567  69.542  1.00  0.00     0.000 HD 
HETATM   12  O   UNL     1      -8.238   7.541  68.638  1.00  0.00    -0.126 OA 
BRANCH  10  13
HETATM   13  C   UNL     1     -10.085   8.856  69.412  1.00  0.00    -0.202 C  
HETATM   14  O   UNL     1      -8.888   9.333  70.062  1.00  0.00    -0.161 OA 
HETATM   15  H   UNL     1      -9.135  10.102  70.560  1.00  0.00     0.000 HD 
BRANCH  13  16
HETATM   16  C   UNL     1     -11.190   8.644  70.462  1.00  0.00    -0.241 C  
HETATM   17  H   UNL     1     -12.013   9.723  71.875  1.00  0.00     0.000 HD 
HETATM   18  O   UNL     1     -11.331   9.855  71.227  1.00  0.00    -0.368 OA 
BRANCH  16  19
HETATM   19  C   UNL     1     -10.913   7.463  71.399  1.00  0.00    -0.235 C  
BRANCH  19  20
HETATM   20  O   UNL     1     -10.067   7.927  72.461  1.00  0.00    -0.215 OA 
HETATM   21  S   UNL     1      -8.846   6.947  72.899  1.00  0.00    -0.126 S  
HETATM   22  C   UNL     1      -8.164   7.982  74.173  1.00  0.00    -0.262 C  
HETATM   23  O   UNL     1      -7.903   6.868  71.802  1.00  0.00    -0.098 OA 
HETATM   24  O   UNL     1      -9.411   5.765  73.516  1.00  0.00    -0.138 OA 
ENDBRANCH  19  20
ENDBRANCH  16  19
ENDBRANCH  13  16
ENDBRANCH  10  13
ENDBRANCH   7  10
ENDBRANCH   6   7
ENDBRANCH   3   6
TORSDOF 7
ENDMDL
MODEL      355
REMARK 921   NORMALIZED FREE ENERGY PREDICTED BY IDOCK:   -2.47 KCAL/MOL
REMARK 922        TOTAL FREE ENERGY PREDICTED BY IDOCK:   -4.73 KCAL/MOL
REMARK 923 INTER-LIGAND FREE ENERGY PREDICTED BY IDOCK:   -3.74 KCAL/MOL
REMARK 924 INTRA-LIGAND FREE ENERGY PREDICTED BY IDOCK:   -0.99 KCAL/MOL
REMARK 927      BINDING AFFINITY PREDICTED BY RF-SCORE:    0.00 PKD
ROOT
HETATM    1  C   UNL     1     -10.300  15.210  67.562  1.00  0.00    -0.242 C  
HETATM    2  S   UNL     1     -10.902  14.904  65.921  1.00  0.00    -0.346 S  
HETATM    3  O   UNL     1     -11.990  13.722  66.251  1.00  0.00    -0.381 OA 
HETATM    4  O   UNL     1     -11.626  16.074  65.472  1.00  0.00     0.188 OA 
HETATM    5  O   UNL     1      -9.831  14.319  65.140  1.00  0.00    -0.286 OA 
ENDROOT
BRANCH   3   6
HETATM    6  C   UNL     1     -12.697  13.244  65.103  1.00  0.00    -0.402 C  
BRANCH   6   7
HETATM    7  C   UNL     1     -12.123  11.924  64.581  1.00  0.00    -0.137 C  
HETATM    8  O   UNL     1     -11.448  12.154  63.329  1.00  0.00    -0.640 OA 
HETATM    9  H   UNL     1     -11.091  11.335  63.005  1.00  0.00     0.000 HD 
BRANCH   7  10
HETATM   10  C   UNL     1     -11.078  11.323  65.546  1.00  0.00    -0.067 C  
HETATM   11  H   UNL     1     -11.120  10.377  67.276  1.00  0.00     0.000 HD 
HETATM   12  O   UNL     1     -11.763  10.746  66.682  1.00  0.00     0.022 OA 
BRANCH  10  13
HETATM   13  C   UNL     1     -10.174  10.217  64.969  1.00  0.00    -0.133 C  
HETATM   14  O   UNL     1     -10.263   9.095  65.872  1.00  0.00    -0.361 OA 
HETATM   15  H   UNL     1      -9.706   8.413  65.516  1.00  0.00     0.000 HD 
BRANCH  13  16
HETATM   16  C   UNL     1      -8.698  10.599  64.768  1.00  0.00    -0.160 C  
HETATM   17  H   UNL     1      -7.440  10.616  63.265  1.00  0.00     0.000 HD 
HETATM   18  O   UNL     1      -8.352  10.379  63.388  1.00  0.00    -0.164 OA 
BRANCH  16  19
HETATM   19  C   UNL     1      -7.742   9.816  65.676  1.00  0.00    -0.115 C  
BRANCH  19  20
HETATM   20  O   UNL     1      -7.835  10.365  66.998  1.00  0.00    -0.109 OA 
HETATM   21  S   UNL     1      -7.612   9.329  68.232  1.00  0.00    -0.083 S  
HETATM   22  C   UNL     1      -7.814  10.499  69.555  1.00  0.00    -0.127 C  
HETATM   23  O   UNL     1      -6.235   8.878  68.210  1.00  0.00    -0.053 OA 
HETATM   24  O   UNL     1      -8.726   8.404  68.257  1.00  0.00    -0.141 OA 
ENDBRANCH  19  20
ENDBRANCH  16  19
ENDBRANCH  13  16
ENDBRANCH  10  13
ENDBRANCH   7  10
ENDBRANCH   6   7
ENDBRANCH   3   6
TORSDOF 7
ENDMDL
MODEL      356
REMARK 921   NORMALIZED FREE ENERGY PREDICTED BY IDOCK:   -2.47 KCAL/MOL
REMARK 922        TOTAL FREE ENERGY PREDICTED BY IDOCK:   -4.73 KCAL/MOL
REMARK 923 INTER-LIGAND FREE ENERGY PREDICTED BY IDOCK:   -4.24 KCAL/MOL
REMARK 924 INTRA-LIGAND FREE ENERGY PREDICTED BY IDOCK:   -0.49 KCAL/MOL
REMARK 927      BINDING AFFINITY PREDICTED BY RF-SCORE:    0.00 PKD
ROOT
HETATM    1  C   UNL     1     -10.238   4.635  66.370  1.00  0.00    -0.260 C  
HETATM    2  S   UNL     1     -10.023   6.083  67.373  1.00  0.00    -0.159 S  
HETATM    3  O   UNL     1     -10.191   7.235  66.220  1.00  0.00    -0.017 OA 
HETATM    4  O   UNL     1     -11.145   6.183  68.282  1.00  0.00    -0.333 OA 
HETATM    5  O   UNL     1      -8.652   6.117  67.842  1.00  0.00    -0.115 OA 
ENDROOT
BRANCH   3   6
HETATM    6  C   UNL     1     -10.088   8.574  66.714  1.00  0.00    -0.299 C  
BRANCH   6   7
HETATM    7  C   UNL     1      -9.290   9.477  65.769  1.00  0.00    -0.233 C  
HETATM    8  O   UNL     1      -9.366   8.957  64.427  1.00  0.00    -0.349 OA 
HETATM    9  H   UNL     1      -8.871   9.518  63.841  1.00  0.00     0.000 HD 
BRANCH   7  10
HETATM   10  C   UNL     1      -9.856  10.913  65.722  1.00  0.00    -0.237 C  
HETATM   11  H   UNL     1     -11.245  11.860  64.689  1.00  0.00     0.000 HD 
HETATM   12  O   UNL     1     -10.896  10.976  64.718  1.00  0.00    -0.276 OA 
BRANCH  10  13
HETATM   13  C   UNL     1     -10.474  11.445  67.029  1.00  0.00    -0.236 C  
HETATM   14  O   UNL     1     -11.904  11.454  66.839  1.00  0.00    -0.489 OA 
HETATM   15  H   UNL     1     -12.285  11.782  67.644  1.00  0.00     0.000 HD 
BRANCH  13  16
HETATM   16  C   UNL     1     -10.005  12.843  67.468  1.00  0.00    -0.215 C  
HETATM   17  H   UNL     1      -9.469  14.496  66.560  1.00  0.00     0.000 HD 
HETATM   18  O   UNL     1      -9.759  13.632  66.289  1.00  0.00    -0.289 OA 
BRANCH  16  19
HETATM   19  C   UNL     1      -8.748  12.811  68.345  1.00  0.00    -0.119 C  
BRANCH  19  20
HETATM   20  O   UNL     1      -7.985  11.651  67.987  1.00  0.00    -0.118 OA 
HETATM   21  S   UNL     1      -7.438  10.732  69.212  1.00  0.00    -0.123 S  
HETATM   22  C   UNL     1      -6.620   9.498  68.229  1.00  0.00    -0.057 C  
HETATM   23  O   UNL     1      -8.575  10.127  69.875  1.00  0.00    -0.177 OA 
HETATM   24  O   UNL     1      -6.437  11.488  69.935  1.00  0.00    -0.140 OA 
ENDBRANCH  19  20
ENDBRANCH  16  19
ENDBRANCH  13  16
ENDBRANCH  10  13
ENDBRANCH   7  10
ENDBRANCH   6   7
ENDBRANCH   3   6
TORSDOF 7
ENDMDL
MODEL      357
REMARK 921   NORMALIZED FREE ENERGY PREDICTED BY IDOCK:   -2.47 KCAL/MOL
REMARK 922        TOTAL FREE ENERGY PREDICTED BY IDOCK:   -4.72 KCAL/MOL
REMARK 923 INTER-LIGAND FREE ENERGY PREDICTED BY IDOCK:   -4.18 KCAL/MOL
REMARK 924 INTRA-LIGAND FREE ENERGY PREDICTED BY IDOCK:   -0.54 KCAL/MOL
REMARK 927      BINDING AFFINITY PREDICTED BY RF-SCORE:    0.00 PKD
ROOT
HETATM    1  C   UNL     1      -6.302  19.495  67.536  1.00  0.00    -0.199 C  
HETATM    2  S   UNL     1      -7.565  19.114  66.349  1.00  0.00    -0.274 S  
HETATM    3  O   UNL     1      -7.883  17.566  66.783  1.00  0.00    -0.200 OA 
HETATM    4  O   UNL     1      -8.731  19.918  66.646  1.00  0.00    -0.322 OA 
HETATM    5  O   UNL     1      -6.964  19.092  65.030  1.00  0.00    -0.443 OA 
ENDROOT
BRANCH   3   6
HETATM    6  C   UNL     1      -8.912  16.943  66.008  1.00  0.00    -0.163 C  
BRANCH   6   7
HETATM    7  C   UNL     1      -9.423  15.654  66.658  1.00  0.00    -0.259 C  
HETATM    8  O   UNL     1      -8.303  14.867  67.112  1.00  0.00    -0.195 OA 
HETATM    9  H   UNL     1      -8.620  14.067  67.515  1.00  0.00     0.000 HD 
BRANCH   7  10
HETATM   10  C   UNL     1     -10.298  15.936  67.898  1.00  0.00    -0.269 C  
HETATM   11  H   UNL     1     -11.540  17.360  68.466  1.00  0.00     0.000 HD 
HETATM   12  O   UNL     1     -11.001  17.186  67.703  1.00  0.00    -0.285 OA 
BRANCH  10  13
HETATM   13  C   UNL     1     -11.367  14.878  68.232  1.00  0.00    -0.310 C  
HETATM   14  O   UNL     1     -12.412  15.559  68.958  1.00  0.00    -0.607 OA 
HETATM   15  H   UNL     1     -13.071  14.907  69.165  1.00  0.00     0.000 HD 
BRANCH  13  16
HETATM   16  C   UNL     1     -10.877  13.670  69.049  1.00  0.00    -0.204 C  
HETATM   17  H   UNL     1     -10.363  11.821  68.655  1.00  0.00     0.000 HD 
HETATM   18  O   UNL     1     -10.666  12.566  68.150  1.00  0.00    -0.212 OA 
BRANCH  16  19
HETATM   19  C   UNL     1     -11.847  13.259  70.162  1.00  0.00    -0.263 C  
BRANCH  19  20
HETATM   20  O   UNL     1     -11.573  11.896  70.510  1.00  0.00    -0.150 OA 
HETATM   21  S   UNL     1     -12.847  10.886  70.556  1.00  0.00    -0.149 S  
HETATM   22  C   UNL     1     -11.959   9.413  71.003  1.00  0.00    -0.315 C  
HETATM   23  O   UNL     1     -13.362  10.734  69.211  1.00  0.00     0.583 OA 
HETATM   24  O   UNL     1     -13.693  11.272  71.667  1.00  0.00     0.052 OA 
ENDBRANCH  19  20
ENDBRANCH  16  19
ENDBRANCH  13  16
ENDBRANCH  10  13
ENDBRANCH   7  10
ENDBRANCH   6   7
ENDBRANCH   3   6
TORSDOF 7
ENDMDL
MODEL      358
REMARK 921   NORMALIZED FREE ENERGY PREDICTED BY IDOCK:   -2.47 KCAL/MOL
REMARK 922        TOTAL FREE ENERGY PREDICTED BY IDOCK:   -4.72 KCAL/MOL
REMARK 923 INTER-LIGAND FREE ENERGY PREDICTED BY IDOCK:   -3.64 KCAL/MOL
REMARK 924 INTRA-LIGAND FREE ENERGY PREDICTED BY IDOCK:   -1.08 KCAL/MOL
REMARK 927      BINDING AFFINITY PREDICTED BY RF-SCORE:    0.00 PKD
ROOT
HETATM    1  C   UNL     1     -11.880  12.101  68.719  1.00  0.00    -0.303 C  
HETATM    2  S   UNL     1     -10.461  12.301  67.672  1.00  0.00    -0.218 S  
HETATM    3  O   UNL     1     -10.743  11.090  66.604  1.00  0.00    -0.254 OA 
HETATM    4  O   UNL     1     -10.582  13.562  66.972  1.00  0.00    -0.266 OA 
HETATM    5  O   UNL     1      -9.276  11.958  68.433  1.00  0.00    -0.191 OA 
ENDROOT
BRANCH   3   6
HETATM    6  C   UNL     1      -9.757  10.983  65.572  1.00  0.00    -0.229 C  
BRANCH   6   7
HETATM    7  C   UNL     1      -9.452   9.525  65.216  1.00  0.00    -0.258 C  
HETATM    8  O   UNL     1      -9.094   9.434  63.823  1.00  0.00    -0.403 OA 
HETATM    9  H   UNL     1      -8.905   8.529  63.603  1.00  0.00     0.000 HD 
BRANCH   7  10
HETATM   10  C   UNL     1      -8.256   8.970  66.019  1.00  0.00    -0.113 C  
HETATM   11  H   UNL     1      -6.883   9.717  67.224  1.00  0.00     0.000 HD 
HETATM   12  O   UNL     1      -7.620  10.059  66.730  1.00  0.00    -0.101 OA 
BRANCH  10  13
HETATM   13  C   UNL     1      -8.582   7.891  67.069  1.00  0.00    -0.128 C  
HETATM   14  O   UNL     1      -9.594   8.445  67.935  1.00  0.00    -0.150 OA 
HETATM   15  H   UNL     1      -9.795   7.781  68.582  1.00  0.00     0.000 HD 
BRANCH  13  16
HETATM   16  C   UNL     1      -7.392   7.404  67.916  1.00  0.00    -0.093 C  
HETATM   17  H   UNL     1      -6.171   5.871  67.875  1.00  0.00     0.000 HD 
HETATM   18  O   UNL     1      -6.905   6.171  67.353  1.00  0.00    -0.059 OA 
BRANCH  16  19
HETATM   19  C   UNL     1      -7.746   7.198  69.393  1.00  0.00    -0.107 C  
BRANCH  19  20
HETATM   20  O   UNL     1      -7.920   5.792  69.617  1.00  0.00    -0.096 OA 
HETATM   21  S   UNL     1      -9.407   5.305  70.063  1.00  0.00    -0.161 S  
HETATM   22  C   UNL     1      -9.055   3.567  70.179  1.00  0.00    -0.131 C  
HETATM   23  O   UNL     1     -10.315   5.528  68.957  1.00  0.00    -0.210 OA 
HETATM   24  O   UNL     1      -9.671   5.814  71.393  1.00  0.00    -0.163 OA 
ENDBRANCH  19  20
ENDBRANCH  16  19
ENDBRANCH  13  16
ENDBRANCH  10  13
ENDBRANCH   7  10
ENDBRANCH   6   7
ENDBRANCH   3   6
TORSDOF 7
ENDMDL
MODEL      359
REMARK 921   NORMALIZED FREE ENERGY PREDICTED BY IDOCK:   -2.47 KCAL/MOL
REMARK 922        TOTAL FREE ENERGY PREDICTED BY IDOCK:   -4.72 KCAL/MOL
REMARK 923 INTER-LIGAND FREE ENERGY PREDICTED BY IDOCK:   -6.02 KCAL/MOL
REMARK 924 INTRA-LIGAND FREE ENERGY PREDICTED BY IDOCK:    1.30 KCAL/MOL
REMARK 927      BINDING AFFINITY PREDICTED BY RF-SCORE:    0.00 PKD
ROOT
HETATM    1  C   UNL     1      -9.327  11.353  66.234  1.00  0.00    -0.212 C  
HETATM    2  S   UNL     1     -10.751  10.963  67.218  1.00  0.00    -0.282 S  
HETATM    3  O   UNL     1     -10.198  11.434  68.688  1.00  0.00    -0.198 OA 
HETATM    4  O   UNL     1     -11.830  11.848  66.835  1.00  0.00    -0.590 OA 
HETATM    5  O   UNL     1     -10.913   9.524  67.243  1.00  0.00    -0.203 OA 
ENDROOT
BRANCH   3   6
HETATM    6  C   UNL     1     -11.145  11.268  69.748  1.00  0.00    -0.167 C  
BRANCH   6   7
HETATM    7  C   UNL     1     -12.035  12.502  69.924  1.00  0.00    -0.301 C  
HETATM    8  O   UNL     1     -12.876  12.327  71.082  1.00  0.00    -0.319 OA 
HETATM    9  H   UNL     1     -13.428  13.093  71.191  1.00  0.00     0.000 HD 
BRANCH   7  10
HETATM   10  C   UNL     1     -11.209  13.784  70.165  1.00  0.00     0.154 C  
HETATM   11  H   UNL     1      -9.658  14.656  69.312  1.00  0.00     0.000 HD 
HETATM   12  O   UNL     1     -10.167  13.867  69.164  1.00  0.00    -0.117 OA 
BRANCH  10  13
HETATM   13  C   UNL     1     -11.983  15.114  70.105  1.00  0.00    -0.334 C  
HETATM   14  O   UNL     1     -13.370  14.800  70.350  1.00  0.00    -0.595 OA 
HETATM   15  H   UNL     1     -13.847  15.620  70.313  1.00  0.00     0.000 HD 
BRANCH  13  16
HETATM   16  C   UNL     1     -11.859  15.899  68.787  1.00  0.00    -0.268 C  
HETATM   17  H   UNL     1     -11.845  15.450  66.880  1.00  0.00     0.000 HD 
HETATM   18  O   UNL     1     -11.920  14.966  67.693  1.00  0.00    -0.317 OA 
BRANCH  16  19
HETATM   19  C   UNL     1     -10.572  16.726  68.695  1.00  0.00    -0.353 C  
BRANCH  19  20
HETATM   20  O   UNL     1     -10.750  17.714  67.671  1.00  0.00    -0.374 OA 
HETATM   21  S   UNL     1      -9.777  19.015  67.738  1.00  0.00    -0.341 S  
HETATM   22  C   UNL     1     -10.400  19.845  66.296  1.00  0.00    -0.495 C  
HETATM   23  O   UNL     1      -8.417  18.586  67.483  1.00  0.00    -0.258 OA 
HETATM   24  O   UNL     1     -10.133  19.789  68.909  1.00  0.00    -0.455 OA 
ENDBRANCH  19  20
ENDBRANCH  16  19
ENDBRANCH  13  16
ENDBRANCH  10  13
ENDBRANCH   7  10
ENDBRANCH   6   7
ENDBRANCH   3   6
TORSDOF 7
ENDMDL
MODEL      360
REMARK 921   NORMALIZED FREE ENERGY PREDICTED BY IDOCK:   -2.44 KCAL/MOL
REMARK 922        TOTAL FREE ENERGY PREDICTED BY IDOCK:   -4.68 KCAL/MOL
REMARK 923 INTER-LIGAND FREE ENERGY PREDICTED BY IDOCK:   -6.12 KCAL/MOL
REMARK 924 INTRA-LIGAND FREE ENERGY PREDICTED BY IDOCK:    1.44 KCAL/MOL
REMARK 927      BINDING AFFINITY PREDICTED BY RF-SCORE:    0.00 PKD
ROOT
HETATM    1  C   UNL     1     -12.189  16.250  72.668  1.00  0.00    -0.493 C  
HETATM    2  S   UNL     1     -13.036  14.949  71.807  1.00  0.00    -0.366 S  
HETATM    3  O   UNL     1     -11.747  14.184  71.143  1.00  0.00    -0.232 OA 
HETATM    4  O   UNL     1     -13.634  14.066  72.785  1.00  0.00    -0.629 OA 
HETATM    5  O   UNL     1     -13.808  15.537  70.731  1.00  0.00    -0.457 OA 
ENDROOT
BRANCH   3   6
HETATM    6  C   UNL     1     -12.089  13.030  70.369  1.00  0.00    -0.314 C  
BRANCH   6   7
HETATM    7  C   UNL     1     -11.666  13.173  68.904  1.00  0.00    -0.326 C  
HETATM    8  O   UNL     1     -10.288  13.589  68.840  1.00  0.00    -0.367 OA 
HETATM    9  H   UNL     1     -10.026  13.677  67.930  1.00  0.00     0.000 HD 
BRANCH   7  10
HETATM   10  C   UNL     1     -11.763  11.835  68.139  1.00  0.00    -0.307 C  
HETATM   11  H   UNL     1     -11.856  11.284  66.247  1.00  0.00     0.000 HD 
HETATM   12  O   UNL     1     -11.797  12.107  66.718  1.00  0.00    -0.561 OA 
BRANCH  10  13
HETATM   13  C   UNL     1     -10.614  10.835  68.368  1.00  0.00    -0.197 C  
HETATM   14  O   UNL     1      -9.927  11.258  69.564  1.00  0.00    -0.422 OA 
HETATM   15  H   UNL     1      -9.218  10.642  69.705  1.00  0.00     0.000 HD 
BRANCH  13  16
HETATM   16  C   UNL     1      -9.605  10.704  67.214  1.00  0.00    -0.163 C  
HETATM   17  H   UNL     1      -9.696  10.723  65.257  1.00  0.00     0.000 HD 
HETATM   18  O   UNL     1     -10.320  10.803  65.969  1.00  0.00    -0.248 OA 
BRANCH  16  19
HETATM   19  C   UNL     1      -8.808   9.395  67.255  1.00  0.00    -0.128 C  
BRANCH  19  20
HETATM   20  O   UNL     1      -9.703   8.319  66.939  1.00  0.00    -0.185 OA 
HETATM   21  S   UNL     1      -9.525   6.949  67.797  1.00  0.00    -0.122 S  
HETATM   22  C   UNL     1     -10.835   6.024  67.030  1.00  0.00    -0.331 C  
HETATM   23  O   UNL     1      -9.885   7.219  69.174  1.00  0.00    -0.162 OA 
HETATM   24  O   UNL     1      -8.258   6.347  67.435  1.00  0.00    -0.115 OA 
ENDBRANCH  19  20
ENDBRANCH  16  19
ENDBRANCH  13  16
ENDBRANCH  10  13
ENDBRANCH   7  10
ENDBRANCH   6   7
ENDBRANCH   3   6
TORSDOF 7
ENDMDL
MODEL      361
REMARK 921   NORMALIZED FREE ENERGY PREDICTED BY IDOCK:   -2.43 KCAL/MOL
REMARK 922        TOTAL FREE ENERGY PREDICTED BY IDOCK:   -4.67 KCAL/MOL
REMARK 923 INTER-LIGAND FREE ENERGY PREDICTED BY IDOCK:   -3.83 KCAL/MOL
REMARK 924 INTRA-LIGAND FREE ENERGY PREDICTED BY IDOCK:   -0.84 KCAL/MOL
REMARK 927      BINDING AFFINITY PREDICTED BY RF-SCORE:    0.00 PKD
ROOT
HETATM    1  C   UNL     1      -5.512   8.644  70.195  1.00  0.00    -0.024 C  
HETATM    2  S   UNL     1      -6.833   7.583  70.725  1.00  0.00    -0.047 S  
HETATM    3  O   UNL     1      -6.628   6.351  69.664  1.00  0.00    -0.044 OA 
HETATM    4  O   UNL     1      -6.525   7.095  72.052  1.00  0.00    -0.044 OA 
HETATM    5  O   UNL     1      -8.093   8.230  70.420  1.00  0.00    -0.101 OA 
ENDROOT
BRANCH   3   6
HETATM    6  C   UNL     1      -7.555   5.274  69.835  1.00  0.00    -0.065 C  
BRANCH   6   7
HETATM    7  C   UNL     1      -7.936   4.623  68.502  1.00  0.00    -0.080 C  
HETATM    8  O   UNL     1      -8.822   3.513  68.744  1.00  0.00    -0.092 OA 
HETATM    9  H   UNL     1      -9.058   3.109  67.917  1.00  0.00     0.000 HD 
BRANCH   7  10
HETATM   10  C   UNL     1      -8.691   5.600  67.574  1.00  0.00    -0.107 C  
HETATM   11  H   UNL     1      -8.549   6.167  65.690  1.00  0.00     0.000 HD 
HETATM   12  O   UNL     1      -8.084   5.566  66.261  1.00  0.00    -0.104 OA 
BRANCH  10  13
HETATM   13  C   UNL     1     -10.193   5.323  67.372  1.00  0.00    -0.191 C  
HETATM   14  O   UNL     1     -10.418   5.274  65.947  1.00  0.00    -0.429 OA 
HETATM   15  H   UNL     1     -11.344   5.104  65.822  1.00  0.00     0.000 HD 
BRANCH  13  16
HETATM   16  C   UNL     1     -11.151   6.345  68.009  1.00  0.00    -0.267 C  
HETATM   17  H   UNL     1     -11.327   8.297  68.009  1.00  0.00     0.000 HD 
HETATM   18  O   UNL     1     -10.735   7.666  67.616  1.00  0.00    -0.232 OA 
BRANCH  16  19
HETATM   19  C   UNL     1     -11.206   6.250  69.537  1.00  0.00    -0.430 C  
BRANCH  19  20
HETATM   20  O   UNL     1     -11.382   7.573  70.060  1.00  0.00    -0.212 OA 
HETATM   21  S   UNL     1     -12.169   7.697  71.478  1.00  0.00    -0.335 S  
HETATM   22  C   UNL     1     -12.083   9.465  71.636  1.00  0.00    -0.388 C  
HETATM   23  O   UNL     1     -11.353   7.093  72.511  1.00  0.00    -0.271 OA 
HETATM   24  O   UNL     1     -13.551   7.317  71.265  1.00  0.00    -0.365 OA 
ENDBRANCH  19  20
ENDBRANCH  16  19
ENDBRANCH  13  16
ENDBRANCH  10  13
ENDBRANCH   7  10
ENDBRANCH   6   7
ENDBRANCH   3   6
TORSDOF 7
ENDMDL
MODEL      362
REMARK 921   NORMALIZED FREE ENERGY PREDICTED BY IDOCK:   -2.42 KCAL/MOL
REMARK 922        TOTAL FREE ENERGY PREDICTED BY IDOCK:   -4.65 KCAL/MOL
REMARK 923 INTER-LIGAND FREE ENERGY PREDICTED BY IDOCK:   -3.95 KCAL/MOL
REMARK 924 INTRA-LIGAND FREE ENERGY PREDICTED BY IDOCK:   -0.70 KCAL/MOL
REMARK 927      BINDING AFFINITY PREDICTED BY RF-SCORE:    0.00 PKD
ROOT
HETATM    1  C   UNL     1      -8.001  13.103  67.700  1.00  0.00    -0.174 C  
HETATM    2  S   UNL     1      -9.749  12.799  67.717  1.00  0.00    -0.213 S  
HETATM    3  O   UNL     1      -9.817  11.691  68.923  1.00  0.00    -0.154 OA 
HETATM    4  O   UNL     1     -10.419  14.001  68.166  1.00  0.00    -0.232 OA 
HETATM    5  O   UNL     1     -10.112  12.136  66.481  1.00  0.00    -0.204 OA 
ENDROOT
BRANCH   3   6
HETATM    6  C   UNL     1     -11.140  11.233  69.220  1.00  0.00    -0.255 C  
BRANCH   6   7
HETATM    7  C   UNL     1     -11.165  10.283  70.421  1.00  0.00    -0.332 C  
HETATM    8  O   UNL     1     -12.327   9.434  70.340  1.00  0.00    -0.478 OA 
HETATM    9  H   UNL     1     -12.342   8.845  71.085  1.00  0.00     0.000 HD 
BRANCH   7  10
HETATM   10  C   UNL     1      -9.934   9.351  70.450  1.00  0.00    -0.252 C  
HETATM   11  H   UNL     1      -8.636   8.752  71.809  1.00  0.00     0.000 HD 
HETATM   12  O   UNL     1      -9.393   9.326  71.792  1.00  0.00    -0.309 OA 
BRANCH  10  13
HETATM   13  C   UNL     1     -10.182   7.884  70.048  1.00  0.00    -0.208 C  
HETATM   14  O   UNL     1      -9.114   7.108  70.630  1.00  0.00    -0.156 OA 
HETATM   15  H   UNL     1      -9.266   6.204  70.383  1.00  0.00     0.000 HD 
BRANCH  13  16
HETATM   16  C   UNL     1     -10.251   7.610  68.536  1.00  0.00    -0.199 C  
HETATM   17  H   UNL     1     -11.099   6.268  67.387  1.00  0.00     0.000 HD 
HETATM   18  O   UNL     1     -11.057   6.436  68.320  1.00  0.00    -0.308 OA 
BRANCH  16  19
HETATM   19  C   UNL     1      -8.872   7.420  67.893  1.00  0.00    -0.132 C  
BRANCH  19  20
HETATM   20  O   UNL     1      -8.406   6.104  68.220  1.00  0.00    -0.113 OA 
HETATM   21  S   UNL     1      -7.143   5.545  67.361  1.00  0.00    -0.075 S  
HETATM   22  C   UNL     1      -6.997   3.967  68.164  1.00  0.00    -0.051 C  
HETATM   23  O   UNL     1      -5.978   6.345  67.683  1.00  0.00    -0.015 OA 
HETATM   24  O   UNL     1      -7.580   5.333  65.997  1.00  0.00    -0.085 OA 
ENDBRANCH  19  20
ENDBRANCH  16  19
ENDBRANCH  13  16
ENDBRANCH  10  13
ENDBRANCH   7  10
ENDBRANCH   6   7
ENDBRANCH   3   6
TORSDOF 7
ENDMDL
MODEL      363
REMARK 921   NORMALIZED FREE ENERGY PREDICTED BY IDOCK:   -2.39 KCAL/MOL
REMARK 922        TOTAL FREE ENERGY PREDICTED BY IDOCK:   -4.61 KCAL/MOL
REMARK 923 INTER-LIGAND FREE ENERGY PREDICTED BY IDOCK:   -4.00 KCAL/MOL
REMARK 924 INTRA-LIGAND FREE ENERGY PREDICTED BY IDOCK:   -0.61 KCAL/MOL
REMARK 927      BINDING AFFINITY PREDICTED BY RF-SCORE:    0.00 PKD
ROOT
HETATM    1  C   UNL     1     -12.302  15.522  69.356  1.00  0.00    -0.112 C  
HETATM    2  S   UNL     1     -12.385  14.164  70.495  1.00  0.00    -0.381 S  
HETATM    3  O   UNL     1     -11.916  12.949  69.498  1.00  0.00    -0.312 OA 
HETATM    4  O   UNL     1     -11.362  14.346  71.501  1.00  0.00     0.091 OA 
HETATM    5  O   UNL     1     -13.774  13.942  70.844  1.00  0.00    -0.055 OA 
ENDROOT
BRANCH   3   6
HETATM    6  C   UNL     1     -11.854  11.667  70.131  1.00  0.00    -0.344 C  
BRANCH   6   7
HETATM    7  C   UNL     1     -11.742  10.528  69.114  1.00  0.00    -0.189 C  
HETATM    8  O   UNL     1     -11.938  11.048  67.785  1.00  0.00    -0.661 OA 
HETATM    9  H   UNL     1     -11.868  10.341  67.154  1.00  0.00     0.000 HD 
BRANCH   7  10
HETATM   10  C   UNL     1     -10.345   9.870  69.132  1.00  0.00    -0.209 C  
HETATM   11  H   UNL     1      -8.834   9.775  70.398  1.00  0.00     0.000 HD 
HETATM   12  O   UNL     1      -9.694  10.180  70.387  1.00  0.00    -0.082 OA 
BRANCH  10  13
HETATM   13  C   UNL     1     -10.312   8.337  68.986  1.00  0.00    -0.221 C  
HETATM   14  O   UNL     1      -9.044   7.896  69.517  1.00  0.00    -0.148 OA 
HETATM   15  H   UNL     1      -9.023   6.951  69.426  1.00  0.00     0.000 HD 
BRANCH  13  16
HETATM   16  C   UNL     1     -10.484   7.800  67.554  1.00  0.00    -0.268 C  
HETATM   17  H   UNL     1     -11.591   6.434  66.688  1.00  0.00     0.000 HD 
HETATM   18  O   UNL     1     -11.485   6.765  67.572  1.00  0.00    -0.130 OA 
BRANCH  16  19
HETATM   19  C   UNL     1      -9.183   7.256  66.953  1.00  0.00    -0.152 C  
BRANCH  19  20
HETATM   20  O   UNL     1      -8.306   8.364  66.713  1.00  0.00    -0.107 OA 
HETATM   21  S   UNL     1      -8.379   9.045  65.238  1.00  0.00    -0.159 S  
HETATM   22  C   UNL     1      -7.154  10.305  65.504  1.00  0.00    -0.142 C  
HETATM   23  O   UNL     1      -9.675   9.674  65.086  1.00  0.00    -0.300 OA 
HETATM   24  O   UNL     1      -7.865   8.095  64.273  1.00  0.00    -0.124 OA 
ENDBRANCH  19  20
ENDBRANCH  16  19
ENDBRANCH  13  16
ENDBRANCH  10  13
ENDBRANCH   7  10
ENDBRANCH   6   7
ENDBRANCH   3   6
TORSDOF 7
ENDMDL
MODEL      364
REMARK 921   NORMALIZED FREE ENERGY PREDICTED BY IDOCK:   -2.38 KCAL/MOL
REMARK 922        TOTAL FREE ENERGY PREDICTED BY IDOCK:   -4.60 KCAL/MOL
REMARK 923 INTER-LIGAND FREE ENERGY PREDICTED BY IDOCK:   -4.14 KCAL/MOL
REMARK 924 INTRA-LIGAND FREE ENERGY PREDICTED BY IDOCK:   -0.46 KCAL/MOL
REMARK 927      BINDING AFFINITY PREDICTED BY RF-SCORE:    0.00 PKD
ROOT
HETATM    1  C   UNL     1     -11.569  14.825  64.915  1.00  0.00    -0.401 C  
HETATM    2  S   UNL     1     -11.803  13.081  64.686  1.00  0.00    -0.398 S  
HETATM    3  O   UNL     1     -11.305  12.549  66.154  1.00  0.00    -0.307 OA 
HETATM    4  O   UNL     1     -13.222  12.820  64.566  1.00  0.00    -0.699 OA 
HETATM    5  O   UNL     1     -10.852  12.615  63.697  1.00  0.00    -0.426 OA 
ENDROOT
BRANCH   3   6
HETATM    6  C   UNL     1     -11.388  11.129  66.319  1.00  0.00     0.109 C  
BRANCH   6   7
HETATM    7  C   UNL     1     -10.654  10.651  67.575  1.00  0.00    -0.252 C  
HETATM    8  O   UNL     1     -11.486   9.718  68.292  1.00  0.00    -0.519 OA 
HETATM    9  H   UNL     1     -11.030   9.421  69.072  1.00  0.00     0.000 HD 
BRANCH   7  10
HETATM   10  C   UNL     1      -9.344   9.908  67.235  1.00  0.00    -0.145 C  
HETATM   11  H   UNL     1      -7.447  10.063  67.754  1.00  0.00     0.000 HD 
HETATM   12  O   UNL     1      -8.253  10.520  67.964  1.00  0.00    -0.109 OA 
BRANCH  10  13
HETATM   13  C   UNL     1      -9.307   8.405  67.569  1.00  0.00    -0.147 C  
HETATM   14  O   UNL     1      -9.225   8.300  69.006  1.00  0.00    -0.147 OA 
HETATM   15  H   UNL     1      -9.201   7.373  69.211  1.00  0.00     0.000 HD 
BRANCH  13  16
HETATM   16  C   UNL     1      -8.157   7.608  66.929  1.00  0.00    -0.116 C  
HETATM   17  H   UNL     1      -6.239   7.388  67.269  1.00  0.00     0.000 HD 
HETATM   18  O   UNL     1      -6.949   7.880  67.664  1.00  0.00    -0.071 OA 
BRANCH  16  19
HETATM   19  C   UNL     1      -7.948   7.935  65.446  1.00  0.00    -0.123 C  
BRANCH  19  20
HETATM   20  O   UNL     1      -6.993   7.006  64.915  1.00  0.00    -0.049 OA 
HETATM   21  S   UNL     1      -7.592   5.735  64.095  1.00  0.00    -0.089 S  
HETATM   22  C   UNL     1      -6.040   4.974  63.682  1.00  0.00    -0.022 C  
HETATM   23  O   UNL     1      -8.213   6.223  62.881  1.00  0.00    -0.104 OA 
HETATM   24  O   UNL     1      -8.293   4.880  65.031  1.00  0.00    -0.123 OA 
ENDBRANCH  19  20
ENDBRANCH  16  19
ENDBRANCH  13  16
ENDBRANCH  10  13
ENDBRANCH   7  10
ENDBRANCH   6   7
ENDBRANCH   3   6
TORSDOF 7
ENDMDL
MODEL      365
REMARK 921   NORMALIZED FREE ENERGY PREDICTED BY IDOCK:   -2.35 KCAL/MOL
REMARK 922        TOTAL FREE ENERGY PREDICTED BY IDOCK:   -4.55 KCAL/MOL
REMARK 923 INTER-LIGAND FREE ENERGY PREDICTED BY IDOCK:   -3.39 KCAL/MOL
REMARK 924 INTRA-LIGAND FREE ENERGY PREDICTED BY IDOCK:   -1.16 KCAL/MOL
REMARK 927      BINDING AFFINITY PREDICTED BY RF-SCORE:    0.00 PKD
ROOT
HETATM    1  C   UNL     1      -6.006   9.303  65.072  1.00  0.00    -0.064 C  
HETATM    2  S   UNL     1      -6.290   7.551  65.069  1.00  0.00    -0.038 S  
HETATM    3  O   UNL     1      -7.896   7.540  65.397  1.00  0.00    -0.102 OA 
HETATM    4  O   UNL     1      -6.099   7.057  63.722  1.00  0.00    -0.041 OA 
HETATM    5  O   UNL     1      -5.600   6.972  66.204  1.00  0.00    -0.025 OA 
ENDROOT
BRANCH   3   6
HETATM    6  C   UNL     1      -8.472   6.231  65.448  1.00  0.00    -0.129 C  
BRANCH   6   7
HETATM    7  C   UNL     1      -8.949   5.866  66.857  1.00  0.00    -0.115 C  
HETATM    8  O   UNL     1      -7.832   5.399  67.638  1.00  0.00    -0.098 OA 
HETATM    9  H   UNL     1      -8.128   5.173  68.512  1.00  0.00     0.000 HD 
BRANCH   7  10
HETATM   10  C   UNL     1      -9.537   7.083  67.604  1.00  0.00    -0.131 C  
HETATM   11  H   UNL     1     -11.166   8.186  67.463  1.00  0.00     0.000 HD 
HETATM   12  O   UNL     1     -10.805   7.438  67.003  1.00  0.00    -0.354 OA 
BRANCH  10  13
HETATM   13  C   UNL     1      -9.802   6.894  69.110  1.00  0.00    -0.156 C  
HETATM   14  O   UNL     1     -11.226   6.722  69.263  1.00  0.00    -0.436 OA 
HETATM   15  H   UNL     1     -11.389   6.606  70.191  1.00  0.00     0.000 HD 
BRANCH  13  16
HETATM   16  C   UNL     1      -9.322   8.040  70.019  1.00  0.00    -0.156 C  
HETATM   17  H   UNL     1      -7.926   9.412  69.934  1.00  0.00     0.000 HD 
HETATM   18  O   UNL     1      -8.221   8.705  69.373  1.00  0.00    -0.109 OA 
BRANCH  16  19
HETATM   19  C   UNL     1      -8.898   7.566  71.414  1.00  0.00    -0.132 C  
BRANCH  19  20
HETATM   20  O   UNL     1      -9.737   6.464  71.784  1.00  0.00    -0.161 OA 
HETATM   21  S   UNL     1     -10.818   6.737  72.968  1.00  0.00    -0.275 S  
HETATM   22  C   UNL     1     -11.549   5.117  72.993  1.00  0.00    -0.223 C  
HETATM   23  O   UNL     1     -11.798   7.688  72.485  1.00  0.00    -0.311 OA 
HETATM   24  O   UNL     1     -10.093   6.938  74.206  1.00  0.00    -0.336 OA 
ENDBRANCH  19  20
ENDBRANCH  16  19
ENDBRANCH  13  16
ENDBRANCH  10  13
ENDBRANCH   7  10
ENDBRANCH   6   7
ENDBRANCH   3   6
TORSDOF 7
ENDMDL
MODEL      366
REMARK 921   NORMALIZED FREE ENERGY PREDICTED BY IDOCK:   -2.34 KCAL/MOL
REMARK 922        TOTAL FREE ENERGY PREDICTED BY IDOCK:   -4.54 KCAL/MOL
REMARK 923 INTER-LIGAND FREE ENERGY PREDICTED BY IDOCK:   -3.56 KCAL/MOL
REMARK 924 INTRA-LIGAND FREE ENERGY PREDICTED BY IDOCK:   -0.98 KCAL/MOL
REMARK 927      BINDING AFFINITY PREDICTED BY RF-SCORE:    0.00 PKD
ROOT
HETATM    1  C   UNL     1      -9.461   3.768  65.329  1.00  0.00    -0.168 C  
HETATM    2  S   UNL     1      -8.241   4.535  66.365  1.00  0.00    -0.106 S  
HETATM    3  O   UNL     1      -9.102   4.646  67.756  1.00  0.00    -0.110 OA 
HETATM    4  O   UNL     1      -7.161   3.596  66.574  1.00  0.00    -0.061 OA 
HETATM    5  O   UNL     1      -8.005   5.879  65.878  1.00  0.00    -0.102 OA 
ENDROOT
BRANCH   3   6
HETATM    6  C   UNL     1      -8.377   5.225  68.845  1.00  0.00    -0.092 C  
BRANCH   6   7
HETATM    7  C   UNL     1      -9.308   5.787  69.923  1.00  0.00    -0.148 C  
HETATM    8  O   UNL     1      -8.627   6.825  70.654  1.00  0.00    -0.139 OA 
HETATM    9  H   UNL     1      -9.205   7.174  71.323  1.00  0.00     0.000 HD 
BRANCH   7  10
HETATM   10  C   UNL     1     -10.576   6.428  69.319  1.00  0.00    -0.259 C  
HETATM   11  H   UNL     1     -12.411   6.805  69.937  1.00  0.00     0.000 HD 
HETATM   12  O   UNL     1     -11.631   6.410  70.309  1.00  0.00    -0.399 OA 
BRANCH  10  13
HETATM   13  C   UNL     1     -10.442   7.888  68.846  1.00  0.00    -0.190 C  
HETATM   14  O   UNL     1     -11.325   8.676  69.672  1.00  0.00    -0.446 OA 
HETATM   15  H   UNL     1     -11.242   9.575  69.380  1.00  0.00     0.000 HD 
BRANCH  13  16
HETATM   16  C   UNL     1     -10.765   8.141  67.363  1.00  0.00    -0.177 C  
HETATM   17  H   UNL     1     -11.413   7.061  65.861  1.00  0.00     0.000 HD 
HETATM   18  O   UNL     1     -11.213   6.905  66.776  1.00  0.00    -0.279 OA 
BRANCH  16  19
HETATM   19  C   UNL     1      -9.574   8.691  66.570  1.00  0.00    -0.237 C  
BRANCH  19  20
HETATM   20  O   UNL     1      -8.560   9.082  67.506  1.00  0.00    -0.119 OA 
HETATM   21  S   UNL     1      -8.413  10.676  67.796  1.00  0.00    -0.116 S  
HETATM   22  C   UNL     1      -7.088  10.575  68.976  1.00  0.00    -0.081 C  
HETATM   23  O   UNL     1      -9.610  11.132  68.472  1.00  0.00    -0.181 OA 
HETATM   24  O   UNL     1      -7.916  11.313  66.594  1.00  0.00    -0.153 OA 
ENDBRANCH  19  20
ENDBRANCH  16  19
ENDBRANCH  13  16
ENDBRANCH  10  13
ENDBRANCH   7  10
ENDBRANCH   6   7
ENDBRANCH   3   6
TORSDOF 7
ENDMDL
MODEL      367
REMARK 921   NORMALIZED FREE ENERGY PREDICTED BY IDOCK:   -2.31 KCAL/MOL
REMARK 922        TOTAL FREE ENERGY PREDICTED BY IDOCK:   -4.50 KCAL/MOL
REMARK 923 INTER-LIGAND FREE ENERGY PREDICTED BY IDOCK:   -4.99 KCAL/MOL
REMARK 924 INTRA-LIGAND FREE ENERGY PREDICTED BY IDOCK:    0.49 KCAL/MOL
REMARK 927      BINDING AFFINITY PREDICTED BY RF-SCORE:    0.00 PKD
ROOT
HETATM    1  C   UNL     1     -12.452  13.901  71.090  1.00  0.00    -0.372 C  
HETATM    2  S   UNL     1     -11.617  14.001  69.527  1.00  0.00    -0.304 S  
HETATM    3  O   UNL     1     -10.361  14.963  69.955  1.00  0.00    -0.122 OA 
HETATM    4  O   UNL     1     -11.094  12.691  69.202  1.00  0.00    -0.245 OA 
HETATM    5  O   UNL     1     -12.454  14.743  68.606  1.00  0.00    -0.030 OA 
ENDROOT
BRANCH   3   6
HETATM    6  C   UNL     1      -9.446  15.236  68.889  1.00  0.00    -0.218 C  
BRANCH   6   7
HETATM    7  C   UNL     1      -8.682  16.546  69.106  1.00  0.00    -0.150 C  
HETATM    8  O   UNL     1      -7.320  16.253  69.476  1.00  0.00    -0.216 OA 
HETATM    9  H   UNL     1      -6.846  17.066  69.611  1.00  0.00     0.000 HD 
BRANCH   7  10
HETATM   10  C   UNL     1      -8.619  17.401  67.823  1.00  0.00    -0.227 C  
HETATM   11  H   UNL     1      -7.656  17.315  66.103  1.00  0.00     0.000 HD 
HETATM   12  O   UNL     1      -7.694  16.789  66.893  1.00  0.00    -0.174 OA 
BRANCH  10  13
HETATM   13  C   UNL     1      -9.947  17.588  67.063  1.00  0.00    -0.311 C  
HETATM   14  O   UNL     1     -10.943  16.821  67.772  1.00  0.00    -0.313 OA 
HETATM   15  H   UNL     1     -11.761  16.936  67.304  1.00  0.00     0.000 HD 
BRANCH  13  16
HETATM   16  C   UNL     1      -9.932  17.167  65.583  1.00  0.00    -0.015 C  
HETATM   17  H   UNL     1     -11.150  17.346  64.058  1.00  0.00     0.000 HD 
HETATM   18  O   UNL     1     -11.159  17.606  64.971  1.00  0.00    -0.716 OA 
BRANCH  16  19
HETATM   19  C   UNL     1      -9.763  15.656  65.386  1.00  0.00    -0.158 C  
BRANCH  19  20
HETATM   20  O   UNL     1     -11.012  15.024  65.698  1.00  0.00    -0.331 OA 
HETATM   21  S   UNL     1     -11.703  14.153  64.510  1.00  0.00    -0.405 S  
HETATM   22  C   UNL     1     -13.136  13.622  65.417  1.00  0.00    -0.121 C  
HETATM   23  O   UNL     1     -10.866  13.003  64.238  1.00  0.00    -0.363 OA 
HETATM   24  O   UNL     1     -12.126  15.063  63.466  1.00  0.00    -0.201 OA 
ENDBRANCH  19  20
ENDBRANCH  16  19
ENDBRANCH  13  16
ENDBRANCH  10  13
ENDBRANCH   7  10
ENDBRANCH   6   7
ENDBRANCH   3   6
TORSDOF 7
ENDMDL
MODEL      368
REMARK 921   NORMALIZED FREE ENERGY PREDICTED BY IDOCK:   -2.31 KCAL/MOL
REMARK 922        TOTAL FREE ENERGY PREDICTED BY IDOCK:   -4.50 KCAL/MOL
REMARK 923 INTER-LIGAND FREE ENERGY PREDICTED BY IDOCK:   -3.57 KCAL/MOL
REMARK 924 INTRA-LIGAND FREE ENERGY PREDICTED BY IDOCK:   -0.93 KCAL/MOL
REMARK 927      BINDING AFFINITY PREDICTED BY RF-SCORE:    0.00 PKD
ROOT
HETATM    1  C   UNL     1      -6.373   8.940  69.662  1.00  0.00    -0.042 C  
HETATM    2  S   UNL     1      -8.076   9.357  69.942  1.00  0.00    -0.157 S  
HETATM    3  O   UNL     1      -8.789   8.190  69.038  1.00  0.00    -0.143 OA 
HETATM    4  O   UNL     1      -8.387   9.107  71.333  1.00  0.00    -0.321 OA 
HETATM    5  O   UNL     1      -8.345  10.635  69.313  1.00  0.00    -0.152 OA 
ENDROOT
BRANCH   3   6
HETATM    6  C   UNL     1     -10.220   8.228  69.061  1.00  0.00    -0.217 C  
BRANCH   6   7
HETATM    7  C   UNL     1     -10.824   6.897  69.518  1.00  0.00    -0.252 C  
HETATM    8  O   UNL     1     -11.657   6.362  68.471  1.00  0.00    -0.499 OA 
HETATM    9  H   UNL     1     -12.032   5.536  68.755  1.00  0.00     0.000 HD 
BRANCH   7  10
HETATM   10  C   UNL     1      -9.740   5.837  69.809  1.00  0.00    -0.162 C  
HETATM   11  H   UNL     1      -9.379   4.529  71.241  1.00  0.00     0.000 HD 
HETATM   12  O   UNL     1     -10.046   5.182  71.062  1.00  0.00    -0.203 OA 
BRANCH  10  13
HETATM   13  C   UNL     1      -9.578   4.722  68.758  1.00  0.00    -0.163 C  
HETATM   14  O   UNL     1      -9.567   3.471  69.477  1.00  0.00    -0.179 OA 
HETATM   15  H   UNL     1      -9.467   2.784  68.830  1.00  0.00     0.000 HD 
BRANCH  13  16
HETATM   16  C   UNL     1      -8.322   4.817  67.873  1.00  0.00    -0.103 C  
HETATM   17  H   UNL     1      -6.480   5.441  68.110  1.00  0.00     0.000 HD 
HETATM   18  O   UNL     1      -7.255   5.383  68.656  1.00  0.00    -0.064 OA 
BRANCH  16  19
HETATM   19  C   UNL     1      -8.538   5.651  66.606  1.00  0.00    -0.117 C  
BRANCH  19  20
HETATM   20  O   UNL     1      -9.557   5.014  65.822  1.00  0.00    -0.159 OA 
HETATM   21  S   UNL     1      -9.060   4.198  64.507  1.00  0.00    -0.152 S  
HETATM   22  C   UNL     1     -10.657   3.638  63.965  1.00  0.00    -0.263 C  
HETATM   23  O   UNL     1      -8.284   3.054  64.942  1.00  0.00    -0.086 OA 
HETATM   24  O   UNL     1      -8.552   5.153  63.544  1.00  0.00    -0.134 OA 
ENDBRANCH  19  20
ENDBRANCH  16  19
ENDBRANCH  13  16
ENDBRANCH  10  13
ENDBRANCH   7  10
ENDBRANCH   6   7
ENDBRANCH   3   6
TORSDOF 7
ENDMDL
MODEL      369
REMARK 921   NORMALIZED FREE ENERGY PREDICTED BY IDOCK:   -2.28 KCAL/MOL
REMARK 922        TOTAL FREE ENERGY PREDICTED BY IDOCK:   -4.45 KCAL/MOL
REMARK 923 INTER-LIGAND FREE ENERGY PREDICTED BY IDOCK:   -3.66 KCAL/MOL
REMARK 924 INTRA-LIGAND FREE ENERGY PREDICTED BY IDOCK:   -0.79 KCAL/MOL
REMARK 927      BINDING AFFINITY PREDICTED BY RF-SCORE:    0.00 PKD
ROOT
HETATM    1  C   UNL     1     -12.250  10.902  70.719  1.00  0.00    -0.383 C  
HETATM    2  S   UNL     1     -11.655  11.587  69.194  1.00  0.00    -0.346 S  
HETATM    3  O   UNL     1     -10.053  11.290  69.374  1.00  0.00    -0.073 OA 
HETATM    4  O   UNL     1     -12.147  10.774  68.102  1.00  0.00    -0.493 OA 
HETATM    5  O   UNL     1     -11.848  13.023  69.228  1.00  0.00    -0.302 OA 
ENDROOT
BRANCH   3   6
HETATM    6  C   UNL     1      -9.253  11.716  68.267  1.00  0.00    -0.187 C  
BRANCH   6   7
HETATM    7  C   UNL     1      -8.010  10.840  68.083  1.00  0.00    -0.114 C  
HETATM    8  O   UNL     1      -8.049   9.747  69.022  1.00  0.00    -0.091 OA 
HETATM    9  H   UNL     1      -7.278   9.203  68.907  1.00  0.00     0.000 HD 
BRANCH   7  10
HETATM   10  C   UNL     1      -7.945  10.213  66.673  1.00  0.00    -0.116 C  
HETATM   11  H   UNL     1      -6.974  10.583  64.997  1.00  0.00     0.000 HD 
HETATM   12  O   UNL     1      -7.013  10.969  65.864  1.00  0.00    -0.077 OA 
BRANCH  10  13
HETATM   13  C   UNL     1      -7.496   8.741  66.603  1.00  0.00    -0.085 C  
HETATM   14  O   UNL     1      -6.496   8.661  65.565  1.00  0.00    -0.058 OA 
HETATM   15  H   UNL     1      -6.219   7.754  65.521  1.00  0.00     0.000 HD 
BRANCH  13  16
HETATM   16  C   UNL     1      -8.610   7.717  66.323  1.00  0.00    -0.144 C  
HETATM   17  H   UNL     1     -10.306   7.218  67.168  1.00  0.00     0.000 HD 
HETATM   18  O   UNL     1      -9.619   7.850  67.341  1.00  0.00    -0.141 OA 
BRANCH  16  19
HETATM   19  C   UNL     1      -8.103   6.271  66.277  1.00  0.00    -0.114 C  
BRANCH  19  20
HETATM   20  O   UNL     1      -8.822   5.580  65.247  1.00  0.00    -0.156 OA 
HETATM   21  S   UNL     1      -9.695   4.288  65.710  1.00  0.00    -0.220 S  
HETATM   22  C   UNL     1     -10.345   3.863  64.111  1.00  0.00    -0.227 C  
HETATM   23  O   UNL     1     -10.781   4.745  66.552  1.00  0.00    -0.217 OA 
HETATM   24  O   UNL     1      -8.779   3.247  66.129  1.00  0.00    -0.116 OA 
ENDBRANCH  19  20
ENDBRANCH  16  19
ENDBRANCH  13  16
ENDBRANCH  10  13
ENDBRANCH   7  10
ENDBRANCH   6   7
ENDBRANCH   3   6
TORSDOF 7
ENDMDL
MODEL      370
REMARK 921   NORMALIZED FREE ENERGY PREDICTED BY IDOCK:   -2.26 KCAL/MOL
REMARK 922        TOTAL FREE ENERGY PREDICTED BY IDOCK:   -4.43 KCAL/MOL
REMARK 923 INTER-LIGAND FREE ENERGY PREDICTED BY IDOCK:   -3.14 KCAL/MOL
REMARK 924 INTRA-LIGAND FREE ENERGY PREDICTED BY IDOCK:   -1.30 KCAL/MOL
REMARK 927      BINDING AFFINITY PREDICTED BY RF-SCORE:    0.00 PKD
ROOT
HETATM    1  C   UNL     1      -6.272   8.959  69.726  1.00  0.00    -0.035 C  
HETATM    2  S   UNL     1      -7.947   9.512  69.917  1.00  0.00    -0.168 S  
HETATM    3  O   UNL     1      -8.731   8.214  69.295  1.00  0.00    -0.138 OA 
HETATM    4  O   UNL     1      -8.246   9.589  71.331  1.00  0.00    -0.239 OA 
HETATM    5  O   UNL     1      -8.165  10.634  69.025  1.00  0.00    -0.138 OA 
ENDROOT
BRANCH   3   6
HETATM    6  C   UNL     1     -10.158   8.329  69.318  1.00  0.00    -0.199 C  
BRANCH   6   7
HETATM    7  C   UNL     1     -10.798   7.350  70.307  1.00  0.00    -0.245 C  
HETATM    8  O   UNL     1     -11.619   6.408  69.588  1.00  0.00    -0.549 OA 
HETATM    9  H   UNL     1     -12.017   5.801  70.201  1.00  0.00     0.000 HD 
BRANCH   7  10
HETATM   10  C   UNL     1      -9.742   6.524  71.073  1.00  0.00    -0.175 C  
HETATM   11  H   UNL     1      -9.355   6.116  72.964  1.00  0.00     0.000 HD 
HETATM   12  O   UNL     1     -10.005   6.625  72.492  1.00  0.00    -0.169 OA 
BRANCH  10  13
HETATM   13  C   UNL     1      -9.683   5.020  70.742  1.00  0.00    -0.196 C  
HETATM   14  O   UNL     1     -10.438   4.340  71.766  1.00  0.00    -0.096 OA 
HETATM   15  H   UNL     1     -10.401   3.413  71.563  1.00  0.00     0.000 HD 
BRANCH  13  16
HETATM   16  C   UNL     1      -8.272   4.412  70.656  1.00  0.00    -0.071 C  
HETATM   17  H   UNL     1      -6.447   5.038  71.003  1.00  0.00     0.000 HD 
HETATM   18  O   UNL     1      -7.318   5.414  71.056  1.00  0.00    -0.077 OA 
BRANCH  16  19
HETATM   19  C   UNL     1      -7.924   3.891  69.257  1.00  0.00    -0.055 C  
BRANCH  19  20
HETATM   20  O   UNL     1      -7.841   5.015  68.371  1.00  0.00    -0.082 OA 
HETATM   21  S   UNL     1      -8.774   4.962  67.039  1.00  0.00    -0.102 S  
HETATM   22  C   UNL     1      -8.298   6.534  66.361  1.00  0.00    -0.120 C  
HETATM   23  O   UNL     1     -10.162   5.027  67.448  1.00  0.00    -0.183 OA 
HETATM   24  O   UNL     1      -8.273   3.913  66.175  1.00  0.00    -0.100 OA 
ENDBRANCH  19  20
ENDBRANCH  16  19
ENDBRANCH  13  16
ENDBRANCH  10  13
ENDBRANCH   7  10
ENDBRANCH   6   7
ENDBRANCH   3   6
TORSDOF 7
ENDMDL
MODEL      371
REMARK 921   NORMALIZED FREE ENERGY PREDICTED BY IDOCK:   -2.25 KCAL/MOL
REMARK 922        TOTAL FREE ENERGY PREDICTED BY IDOCK:   -4.42 KCAL/MOL
REMARK 923 INTER-LIGAND FREE ENERGY PREDICTED BY IDOCK:   -3.23 KCAL/MOL
REMARK 924 INTRA-LIGAND FREE ENERGY PREDICTED BY IDOCK:   -1.19 KCAL/MOL
REMARK 927      BINDING AFFINITY PREDICTED BY RF-SCORE:    0.00 PKD
ROOT
HETATM    1  C   UNL     1      -9.012   8.507  71.959  1.00  0.00    -0.231 C  
HETATM    2  S   UNL     1      -7.931   8.679  70.562  1.00  0.00    -0.120 S  
HETATM    3  O   UNL     1      -8.964   8.239  69.368  1.00  0.00    -0.145 OA 
HETATM    4  O   UNL     1      -7.616  10.082  70.396  1.00  0.00    -0.228 OA 
HETATM    5  O   UNL     1      -6.898   7.667  70.653  1.00  0.00    -0.046 OA 
ENDROOT
BRANCH   3   6
HETATM    6  C   UNL     1      -8.394   8.289  68.056  1.00  0.00    -0.129 C  
BRANCH   6   7
HETATM    7  C   UNL     1      -9.148   7.395  67.066  1.00  0.00    -0.135 C  
HETATM    8  O   UNL     1     -10.137   8.178  66.369  1.00  0.00    -0.418 OA 
HETATM    9  H   UNL     1     -10.604   7.623  65.754  1.00  0.00     0.000 HD 
BRANCH   7  10
HETATM   10  C   UNL     1      -8.211   6.802  65.992  1.00  0.00    -0.129 C  
HETATM   11  H   UNL     1      -6.293   6.358  65.866  1.00  0.00     0.000 HD 
HETATM   12  O   UNL     1      -6.869   6.724  66.528  1.00  0.00    -0.058 OA 
BRANCH  10  13
HETATM   13  C   UNL     1      -8.565   5.390  65.484  1.00  0.00    -0.148 C  
HETATM   14  O   UNL     1     -10.005   5.309  65.454  1.00  0.00    -0.375 OA 
HETATM   15  H   UNL     1     -10.223   4.439  65.142  1.00  0.00     0.000 HD 
BRANCH  13  16
HETATM   16  C   UNL     1      -8.002   4.224  66.314  1.00  0.00    -0.098 C  
HETATM   17  H   UNL     1      -6.838   2.685  65.968  1.00  0.00     0.000 HD 
HETATM   18  O   UNL     1      -7.186   3.405  65.456  1.00  0.00    -0.067 OA 
BRANCH  16  19
HETATM   19  C   UNL     1      -9.091   3.368  66.970  1.00  0.00    -0.172 C  
BRANCH  19  20
HETATM   20  O   UNL     1      -9.798   4.189  67.909  1.00  0.00    -0.132 OA 
HETATM   21  S   UNL     1      -9.326   4.091  69.462  1.00  0.00    -0.186 S  
HETATM   22  C   UNL     1     -10.476   5.270  70.129  1.00  0.00    -0.268 C  
HETATM   23  O   UNL     1      -7.985   4.630  69.570  1.00  0.00    -0.062 OA 
HETATM   24  O   UNL     1      -9.670   2.775  69.959  1.00  0.00    -0.083 OA 
ENDBRANCH  19  20
ENDBRANCH  16  19
ENDBRANCH  13  16
ENDBRANCH  10  13
ENDBRANCH   7  10
ENDBRANCH   6   7
ENDBRANCH   3   6
TORSDOF 7
ENDMDL
MODEL      372
REMARK 921   NORMALIZED FREE ENERGY PREDICTED BY IDOCK:   -2.23 KCAL/MOL
REMARK 922        TOTAL FREE ENERGY PREDICTED BY IDOCK:   -4.39 KCAL/MOL
REMARK 923 INTER-LIGAND FREE ENERGY PREDICTED BY IDOCK:   -3.89 KCAL/MOL
REMARK 924 INTRA-LIGAND FREE ENERGY PREDICTED BY IDOCK:   -0.50 KCAL/MOL
REMARK 927      BINDING AFFINITY PREDICTED BY RF-SCORE:    0.00 PKD
ROOT
HETATM    1  C   UNL     1     -12.313  15.582  69.362  1.00  0.00    -0.112 C  
HETATM    2  S   UNL     1     -12.355  14.199  70.472  1.00  0.00    -0.381 S  
HETATM    3  O   UNL     1     -11.903  13.011  69.438  1.00  0.00    -0.306 OA 
HETATM    4  O   UNL     1     -11.306  14.368  71.455  1.00  0.00     0.091 OA 
HETATM    5  O   UNL     1     -13.732  13.958  70.854  1.00  0.00    -0.055 OA 
ENDROOT
BRANCH   3   6
HETATM    6  C   UNL     1     -11.813  11.716  70.040  1.00  0.00    -0.355 C  
BRANCH   6   7
HETATM    7  C   UNL     1     -11.668  10.604  68.997  1.00  0.00    -0.234 C  
HETATM    8  O   UNL     1     -11.926  11.139  67.684  1.00  0.00    -0.613 OA 
HETATM    9  H   UNL     1     -11.836  10.448  67.037  1.00  0.00     0.000 HD 
BRANCH   7  10
HETATM   10  C   UNL     1     -10.238  10.020  68.966  1.00  0.00    -0.203 C  
HETATM   11  H   UNL     1      -8.725   9.899  70.226  1.00  0.00     0.000 HD 
HETATM   12  O   UNL     1      -9.605  10.258  70.245  1.00  0.00    -0.011 OA 
BRANCH  10  13
HETATM   13  C   UNL     1     -10.126   8.508  68.694  1.00  0.00    -0.190 C  
HETATM   14  O   UNL     1      -8.957   8.044  69.401  1.00  0.00    -0.147 OA 
HETATM   15  H   UNL     1      -8.887   7.112  69.233  1.00  0.00     0.000 HD 
BRANCH  13  16
HETATM   16  C   UNL     1     -10.024   8.103  67.213  1.00  0.00    -0.218 C  
HETATM   17  H   UNL     1     -10.448   8.943  65.493  1.00  0.00     0.000 HD 
HETATM   18  O   UNL     1     -10.511   9.193  66.407  1.00  0.00    -0.213 OA 
BRANCH  16  19
HETATM   19  C   UNL     1     -10.799   6.823  66.882  1.00  0.00    -0.331 C  
BRANCH  19  20
HETATM   20  O   UNL     1     -10.109   5.718  67.479  1.00  0.00    -0.142 OA 
HETATM   21  S   UNL     1      -8.946   5.016  66.585  1.00  0.00    -0.116 S  
HETATM   22  C   UNL     1      -8.453   3.787  67.769  1.00  0.00    -0.095 C  
HETATM   23  O   UNL     1      -7.864   5.964  66.413  1.00  0.00    -0.098 OA 
HETATM   24  O   UNL     1      -9.575   4.352  65.462  1.00  0.00    -0.160 OA 
ENDBRANCH  19  20
ENDBRANCH  16  19
ENDBRANCH  13  16
ENDBRANCH  10  13
ENDBRANCH   7  10
ENDBRANCH   6   7
ENDBRANCH   3   6
TORSDOF 7
ENDMDL
MODEL      373
REMARK 921   NORMALIZED FREE ENERGY PREDICTED BY IDOCK:   -2.22 KCAL/MOL
REMARK 922        TOTAL FREE ENERGY PREDICTED BY IDOCK:   -4.38 KCAL/MOL
REMARK 923 INTER-LIGAND FREE ENERGY PREDICTED BY IDOCK:   -3.67 KCAL/MOL
REMARK 924 INTRA-LIGAND FREE ENERGY PREDICTED BY IDOCK:   -0.71 KCAL/MOL
REMARK 927      BINDING AFFINITY PREDICTED BY RF-SCORE:    0.00 PKD
ROOT
HETATM    1  C   UNL     1      -9.238   3.714  65.304  1.00  0.00    -0.152 C  
HETATM    2  S   UNL     1      -8.383   4.877  66.337  1.00  0.00    -0.107 S  
HETATM    3  O   UNL     1      -9.547   5.144  67.460  1.00  0.00    -0.127 OA 
HETATM    4  O   UNL     1      -7.280   4.196  66.979  1.00  0.00    -0.066 OA 
HETATM    5  O   UNL     1      -8.196   6.104  65.589  1.00  0.00    -0.127 OA 
ENDROOT
BRANCH   3   6
HETATM    6  C   UNL     1      -9.162   6.056  68.493  1.00  0.00    -0.114 C  
BRANCH   6   7
HETATM    7  C   UNL     1     -10.084   7.277  68.557  1.00  0.00    -0.172 C  
HETATM    8  O   UNL     1     -11.458   6.842  68.572  1.00  0.00    -0.556 OA 
HETATM    9  H   UNL     1     -12.030   7.600  68.612  1.00  0.00     0.000 HD 
BRANCH   7  10
HETATM   10  C   UNL     1      -9.866   8.103  69.844  1.00  0.00    -0.186 C  
HETATM   11  H   UNL     1      -9.836   7.734  71.781  1.00  0.00     0.000 HD 
HETATM   12  O   UNL     1      -9.970   7.225  70.990  1.00  0.00    -0.188 OA 
BRANCH  10  13
HETATM   13  C   UNL     1      -8.511   8.827  69.966  1.00  0.00    -0.133 C  
HETATM   14  O   UNL     1      -8.258   8.997  71.377  1.00  0.00    -0.268 OA 
HETATM   15  H   UNL     1      -7.423   9.444  71.452  1.00  0.00     0.000 HD 
BRANCH  13  16
HETATM   16  C   UNL     1      -8.419  10.191  69.260  1.00  0.00    -0.163 C  
HETATM   17  H   UNL     1      -9.675  11.621  68.792  1.00  0.00     0.000 HD 
HETATM   18  O   UNL     1      -9.733  10.779  69.228  1.00  0.00    -0.198 OA 
BRANCH  16  19
HETATM   19  C   UNL     1      -7.855  10.097  67.837  1.00  0.00    -0.101 C  
BRANCH  19  20
HETATM   20  O   UNL     1      -8.666  10.915  66.983  1.00  0.00    -0.138 OA 
HETATM   21  S   UNL     1      -9.030  10.302  65.521  1.00  0.00    -0.185 S  
HETATM   22  C   UNL     1     -10.010  11.665  64.936  1.00  0.00    -0.255 C  
HETATM   23  O   UNL     1      -9.890   9.151  65.707  1.00  0.00    -0.286 OA 
HETATM   24  O   UNL     1      -7.813  10.237  64.739  1.00  0.00    -0.149 OA 
ENDBRANCH  19  20
ENDBRANCH  16  19
ENDBRANCH  13  16
ENDBRANCH  10  13
ENDBRANCH   7  10
ENDBRANCH   6   7
ENDBRANCH   3   6
TORSDOF 7
ENDMDL
MODEL      374
REMARK 921   NORMALIZED FREE ENERGY PREDICTED BY IDOCK:   -2.17 KCAL/MOL
REMARK 922        TOTAL FREE ENERGY PREDICTED BY IDOCK:   -4.31 KCAL/MOL
REMARK 923 INTER-LIGAND FREE ENERGY PREDICTED BY IDOCK:   -3.60 KCAL/MOL
REMARK 924 INTRA-LIGAND FREE ENERGY PREDICTED BY IDOCK:   -0.70 KCAL/MOL
REMARK 927      BINDING AFFINITY PREDICTED BY RF-SCORE:    0.00 PKD
ROOT
HETATM    1  C   UNL     1      -6.092   9.245  65.085  1.00  0.00    -0.064 C  
HETATM    2  S   UNL     1      -6.133   7.748  66.038  1.00  0.00    -0.038 S  
HETATM    3  O   UNL     1      -7.640   7.875  66.671  1.00  0.00    -0.090 OA 
HETATM    4  O   UNL     1      -6.118   6.624  65.126  1.00  0.00    -0.036 OA 
HETATM    5  O   UNL     1      -5.182   7.868  67.124  1.00  0.00    -0.029 OA 
ENDROOT
BRANCH   3   6
HETATM    6  C   UNL     1      -8.016   6.776  67.507  1.00  0.00    -0.115 C  
BRANCH   6   7
HETATM    7  C   UNL     1      -8.818   7.230  68.730  1.00  0.00    -0.127 C  
HETATM    8  O   UNL     1      -8.186   8.384  69.318  1.00  0.00    -0.113 OA 
HETATM    9  H   UNL     1      -8.684   8.666  70.077  1.00  0.00     0.000 HD 
BRANCH   7  10
HETATM   10  C   UNL     1     -10.255   7.653  68.357  1.00  0.00    -0.198 C  
HETATM   11  H   UNL     1     -12.039   6.811  68.394  1.00  0.00     0.000 HD 
HETATM   12  O   UNL     1     -11.155   6.551  68.624  1.00  0.00    -0.293 OA 
BRANCH  10  13
HETATM   13  C   UNL     1     -10.822   8.874  69.105  1.00  0.00    -0.070 C  
HETATM   14  O   UNL     1     -11.872   8.384  69.966  1.00  0.00    -0.414 OA 
HETATM   15  H   UNL     1     -12.221   9.136  70.427  1.00  0.00     0.000 HD 
BRANCH  13  16
HETATM   16  C   UNL     1     -11.373  10.004  68.217  1.00  0.00    -0.049 C  
HETATM   17  H   UNL     1     -10.865  10.826  66.512  1.00  0.00     0.000 HD 
HETATM   18  O   UNL     1     -10.525  10.129  67.060  1.00  0.00    -0.232 OA 
BRANCH  16  19
HETATM   19  C   UNL     1     -11.466  11.351  68.942  1.00  0.00    -0.298 C  
BRANCH  19  20
HETATM   20  O   UNL     1     -11.876  12.342  67.990  1.00  0.00    -0.349 OA 
HETATM   21  S   UNL     1     -11.010  13.718  67.954  1.00  0.00    -0.260 S  
HETATM   22  C   UNL     1     -11.910  14.523  66.649  1.00  0.00    -0.366 C  
HETATM   23  O   UNL     1      -9.675  13.409  67.483  1.00  0.00    -0.215 OA 
HETATM   24  O   UNL     1     -11.245  14.435  69.190  1.00  0.00    -0.249 OA 
ENDBRANCH  19  20
ENDBRANCH  16  19
ENDBRANCH  13  16
ENDBRANCH  10  13
ENDBRANCH   7  10
ENDBRANCH   6   7
ENDBRANCH   3   6
TORSDOF 7
ENDMDL
MODEL      375
REMARK 921   NORMALIZED FREE ENERGY PREDICTED BY IDOCK:   -2.16 KCAL/MOL
REMARK 922        TOTAL FREE ENERGY PREDICTED BY IDOCK:   -4.29 KCAL/MOL
REMARK 923 INTER-LIGAND FREE ENERGY PREDICTED BY IDOCK:   -4.23 KCAL/MOL
REMARK 924 INTRA-LIGAND FREE ENERGY PREDICTED BY IDOCK:   -0.06 KCAL/MOL
REMARK 927      BINDING AFFINITY PREDICTED BY RF-SCORE:    0.00 PKD
ROOT
HETATM    1  C   UNL     1     -10.368  10.951  64.027  1.00  0.00    -0.349 C  
HETATM    2  S   UNL     1      -9.116   9.905  64.726  1.00  0.00    -0.255 S  
HETATM    3  O   UNL     1     -10.044   9.026  65.752  1.00  0.00    -0.169 OA 
HETATM    4  O   UNL     1      -8.624   9.023  63.690  1.00  0.00    -0.192 OA 
HETATM    5  O   UNL     1      -8.224  10.725  65.522  1.00  0.00    -0.159 OA 
ENDROOT
BRANCH   3   6
HETATM    6  C   UNL     1      -9.320   8.035  66.489  1.00  0.00    -0.205 C  
BRANCH   6   7
HETATM    7  C   UNL     1     -10.253   7.073  67.231  1.00  0.00    -0.234 C  
HETATM    8  O   UNL     1     -11.158   6.460  66.292  1.00  0.00    -0.512 OA 
HETATM    9  H   UNL     1     -11.736   5.863  66.753  1.00  0.00     0.000 HD 
BRANCH   7  10
HETATM   10  C   UNL     1      -9.478   5.926  67.916  1.00  0.00    -0.110 C  
HETATM   11  H   UNL     1      -7.720   5.720  68.786  1.00  0.00     0.000 HD 
HETATM   12  O   UNL     1      -8.196   6.426  68.364  1.00  0.00    -0.112 OA 
BRANCH  10  13
HETATM   13  C   UNL     1     -10.154   5.286  69.143  1.00  0.00    -0.219 C  
HETATM   14  O   UNL     1     -11.524   5.738  69.146  1.00  0.00    -0.044 OA 
HETATM   15  H   UNL     1     -11.941   5.343  69.903  1.00  0.00     0.000 HD 
BRANCH  13  16
HETATM   16  C   UNL     1      -9.506   5.603  70.502  1.00  0.00    -0.163 C  
HETATM   17  H   UNL     1      -8.509   4.593  71.854  1.00  0.00     0.000 HD 
HETATM   18  O   UNL     1      -8.910   4.397  71.016  1.00  0.00    -0.101 OA 
BRANCH  16  19
HETATM   19  C   UNL     1     -10.495   6.172  71.525  1.00  0.00    -0.222 C  
BRANCH  19  20
HETATM   20  O   UNL     1     -10.839   7.503  71.118  1.00  0.00    -0.234 OA 
HETATM   21  S   UNL     1      -9.643   8.605  71.144  1.00  0.00    -0.244 S  
HETATM   22  C   UNL     1     -10.591   9.990  70.560  1.00  0.00    -0.246 C  
HETATM   23  O   UNL     1      -8.665   8.246  70.137  1.00  0.00    -0.129 OA 
HETATM   24  O   UNL     1      -9.276   8.843  72.525  1.00  0.00    -0.334 OA 
ENDBRANCH  19  20
ENDBRANCH  16  19
ENDBRANCH  13  16
ENDBRANCH  10  13
ENDBRANCH   7  10
ENDBRANCH   6   7
ENDBRANCH   3   6
TORSDOF 7
ENDMDL
MODEL      376
REMARK 921   NORMALIZED FREE ENERGY PREDICTED BY IDOCK:   -2.11 KCAL/MOL
REMARK 922        TOTAL FREE ENERGY PREDICTED BY IDOCK:   -4.21 KCAL/MOL
REMARK 923 INTER-LIGAND FREE ENERGY PREDICTED BY IDOCK:   -3.25 KCAL/MOL
REMARK 924 INTRA-LIGAND FREE ENERGY PREDICTED BY IDOCK:   -0.97 KCAL/MOL
REMARK 927      BINDING AFFINITY PREDICTED BY RF-SCORE:    0.00 PKD
ROOT
HETATM    1  C   UNL     1      -7.016  16.667  68.406  1.00  0.00    -0.160 C  
HETATM    2  S   UNL     1      -7.277  14.946  68.753  1.00  0.00    -0.133 S  
HETATM    3  O   UNL     1      -7.811  14.454  67.284  1.00  0.00    -0.195 OA 
HETATM    4  O   UNL     1      -5.991  14.329  68.998  1.00  0.00    -0.086 OA 
HETATM    5  O   UNL     1      -8.376  14.828  69.690  1.00  0.00    -0.023 OA 
ENDROOT
BRANCH   3   6
HETATM    6  C   UNL     1      -8.106  13.056  67.209  1.00  0.00    -0.161 C  
BRANCH   6   7
HETATM    7  C   UNL     1      -9.611  12.780  67.269  1.00  0.00    -0.208 C  
HETATM    8  O   UNL     1     -10.106  12.519  65.940  1.00  0.00    -0.247 OA 
HETATM    9  H   UNL     1     -11.040  12.348  65.978  1.00  0.00     0.000 HD 
BRANCH   7  10
HETATM   10  C   UNL     1      -9.939  11.532  68.118  1.00  0.00    -0.192 C  
HETATM   11  H   UNL     1     -11.574  10.682  68.822  1.00  0.00     0.000 HD 
HETATM   12  O   UNL     1     -11.372  11.450  68.299  1.00  0.00    -0.236 OA 
BRANCH  10  13
HETATM   13  C   UNL     1      -9.490  10.177  67.538  1.00  0.00    -0.152 C  
HETATM   14  O   UNL     1     -10.677   9.366  67.412  1.00  0.00    -0.287 OA 
HETATM   15  H   UNL     1     -10.400   8.530  67.056  1.00  0.00     0.000 HD 
BRANCH  13  16
HETATM   16  C   UNL     1      -8.433   9.418  68.360  1.00  0.00    -0.120 C  
HETATM   17  H   UNL     1      -6.552   8.925  68.118  1.00  0.00     0.000 HD 
HETATM   18  O   UNL     1      -7.204   9.393  67.611  1.00  0.00    -0.082 OA 
BRANCH  16  19
HETATM   19  C   UNL     1      -8.857   7.988  68.714  1.00  0.00    -0.138 C  
BRANCH  19  20
HETATM   20  O   UNL     1      -9.809   8.058  69.784  1.00  0.00    -0.179 OA 
HETATM   21  S   UNL     1     -10.809   6.787  69.953  1.00  0.00    -0.288 S  
HETATM   22  C   UNL     1     -11.708   7.385  71.365  1.00  0.00    -0.288 C  
HETATM   23  O   UNL     1     -10.025   5.635  70.349  1.00  0.00    -0.182 OA 
HETATM   24  O   UNL     1     -11.702   6.757  68.813  1.00  0.00     0.110 OA 
ENDBRANCH  19  20
ENDBRANCH  16  19
ENDBRANCH  13  16
ENDBRANCH  10  13
ENDBRANCH   7  10
ENDBRANCH   6   7
ENDBRANCH   3   6
TORSDOF 7
ENDMDL
MODEL      377
REMARK 921   NORMALIZED FREE ENERGY PREDICTED BY IDOCK:   -2.10 KCAL/MOL
REMARK 922        TOTAL FREE ENERGY PREDICTED BY IDOCK:   -4.21 KCAL/MOL
REMARK 923 INTER-LIGAND FREE ENERGY PREDICTED BY IDOCK:   -4.37 KCAL/MOL
REMARK 924 INTRA-LIGAND FREE ENERGY PREDICTED BY IDOCK:    0.16 KCAL/MOL
REMARK 927      BINDING AFFINITY PREDICTED BY RF-SCORE:    0.00 PKD
ROOT
HETATM    1  C   UNL     1      -5.842   8.453  66.868  1.00  0.00    -0.049 C  
HETATM    2  S   UNL     1      -5.958   9.250  65.287  1.00  0.00    -0.064 S  
HETATM    3  O   UNL     1      -7.576   9.506  65.234  1.00  0.00    -0.104 OA 
HETATM    4  O   UNL     1      -5.298  10.535  65.372  1.00  0.00    -0.092 OA 
HETATM    5  O   UNL     1      -5.625   8.284  64.260  1.00  0.00    -0.053 OA 
ENDROOT
BRANCH   3   6
HETATM    6  C   UNL     1      -8.022  10.177  64.051  1.00  0.00    -0.154 C  
BRANCH   6   7
HETATM    7  C   UNL     1      -9.528  10.014  63.829  1.00  0.00    -0.208 C  
HETATM    8  O   UNL     1     -10.126   9.423  65.001  1.00  0.00    -0.305 OA 
HETATM    9  H   UNL     1     -11.061   9.323  64.863  1.00  0.00     0.000 HD 
BRANCH   7  10
HETATM   10  C   UNL     1     -10.232  11.370  63.607  1.00  0.00    -0.397 C  
HETATM   11  H   UNL     1     -11.989  11.966  62.936  1.00  0.00     0.000 HD 
HETATM   12  O   UNL     1     -11.556  11.131  63.073  1.00  0.00     0.226 OA 
BRANCH  10  13
HETATM   13  C   UNL     1     -10.415  12.255  64.854  1.00  0.00    -0.289 C  
HETATM   14  O   UNL     1      -9.197  12.150  65.621  1.00  0.00    -0.419 OA 
HETATM   15  H   UNL     1      -9.310  12.695  66.390  1.00  0.00     0.000 HD 
BRANCH  13  16
HETATM   16  C   UNL     1     -11.617  11.906  65.749  1.00  0.00    -0.215 C  
HETATM   17  H   UNL     1     -13.520  12.371  65.792  1.00  0.00     0.000 HD 
HETATM   18  O   UNL     1     -12.779  12.587  65.240  1.00  0.00    -0.654 OA 
BRANCH  16  19
HETATM   19  C   UNL     1     -11.401  12.274  67.221  1.00  0.00    -0.328 C  
BRANCH  19  20
HETATM   20  O   UNL     1     -12.147  11.350  68.025  1.00  0.00    -0.629 OA 
HETATM   21  S   UNL     1     -11.828  11.350  69.620  1.00  0.00    -0.380 S  
HETATM   22  C   UNL     1     -12.990  10.090  70.089  1.00  0.00     0.251 C  
HETATM   23  O   UNL     1     -12.259  12.617  70.174  1.00  0.00    -0.305 OA 
HETATM   24  O   UNL     1     -10.486  10.840  69.815  1.00  0.00    -0.198 OA 
ENDBRANCH  19  20
ENDBRANCH  16  19
ENDBRANCH  13  16
ENDBRANCH  10  13
ENDBRANCH   7  10
ENDBRANCH   6   7
ENDBRANCH   3   6
TORSDOF 7
ENDMDL
MODEL      378
REMARK 921   NORMALIZED FREE ENERGY PREDICTED BY IDOCK:   -2.09 KCAL/MOL
REMARK 922        TOTAL FREE ENERGY PREDICTED BY IDOCK:   -4.19 KCAL/MOL
REMARK 923 INTER-LIGAND FREE ENERGY PREDICTED BY IDOCK:   -5.30 KCAL/MOL
REMARK 924 INTRA-LIGAND FREE ENERGY PREDICTED BY IDOCK:    1.11 KCAL/MOL
REMARK 927      BINDING AFFINITY PREDICTED BY RF-SCORE:    0.00 PKD
ROOT
HETATM    1  C   UNL     1      -6.544  12.762  68.811  1.00  0.00    -0.090 C  
HETATM    2  S   UNL     1      -6.100  14.432  68.410  1.00  0.00    -0.113 S  
HETATM    3  O   UNL     1      -7.572  15.003  67.971  1.00  0.00    -0.104 OA 
HETATM    4  O   UNL     1      -5.697  15.104  69.627  1.00  0.00    -0.100 OA 
HETATM    5  O   UNL     1      -5.259  14.414  67.231  1.00  0.00    -0.278 OA 
ENDROOT
BRANCH   3   6
HETATM    6  C   UNL     1      -7.574  16.384  67.594  1.00  0.00    -0.142 C  
BRANCH   6   7
HETATM    7  C   UNL     1      -7.914  17.303  68.771  1.00  0.00    -0.250 C  
HETATM    8  O   UNL     1      -7.186  18.540  68.641  1.00  0.00    -0.270 OA 
HETATM    9  H   UNL     1      -7.398  19.110  69.371  1.00  0.00     0.000 HD 
BRANCH   7  10
HETATM   10  C   UNL     1      -9.413  17.670  68.806  1.00  0.00    -0.250 C  
HETATM   11  H   UNL     1     -10.470  19.335  68.749  1.00  0.00     0.000 HD 
HETATM   12  O   UNL     1      -9.547  19.109  68.728  1.00  0.00    -0.381 OA 
BRANCH  10  13
HETATM   13  C   UNL     1     -10.284  17.085  67.678  1.00  0.00    -0.317 C  
HETATM   14  O   UNL     1     -10.287  15.653  67.855  1.00  0.00    -0.249 OA 
HETATM   15  H   UNL     1     -10.824  15.293  67.160  1.00  0.00     0.000 HD 
BRANCH  13  16
HETATM   16  C   UNL     1      -9.836  17.425  66.246  1.00  0.00    -0.279 C  
HETATM   17  H   UNL     1     -10.242  18.830  64.941  1.00  0.00     0.000 HD 
HETATM   18  O   UNL     1     -10.519  18.620  65.825  1.00  0.00    -0.586 OA 
BRANCH  16  19
HETATM   19  C   UNL     1     -10.101  16.294  65.246  1.00  0.00    -0.015 C  
BRANCH  19  20
HETATM   20  O   UNL     1     -11.176  15.492  65.755  1.00  0.00    -0.259 OA 
HETATM   21  S   UNL     1     -11.884  14.472  64.705  1.00  0.00    -0.450 S  
HETATM   22  C   UNL     1     -13.068  13.769  65.828  1.00  0.00    -0.066 C  
HETATM   23  O   UNL     1     -10.923  13.452  64.336  1.00  0.00    -0.370 OA 
HETATM   24  O   UNL     1     -12.592  15.257  63.715  1.00  0.00    -0.733 OA 
ENDBRANCH  19  20
ENDBRANCH  16  19
ENDBRANCH  13  16
ENDBRANCH  10  13
ENDBRANCH   7  10
ENDBRANCH   6   7
ENDBRANCH   3   6
TORSDOF 7
ENDMDL
MODEL      379
REMARK 921   NORMALIZED FREE ENERGY PREDICTED BY IDOCK:   -2.06 KCAL/MOL
REMARK 922        TOTAL FREE ENERGY PREDICTED BY IDOCK:   -4.14 KCAL/MOL
REMARK 923 INTER-LIGAND FREE ENERGY PREDICTED BY IDOCK:   -3.46 KCAL/MOL
REMARK 924 INTRA-LIGAND FREE ENERGY PREDICTED BY IDOCK:   -0.68 KCAL/MOL
REMARK 927      BINDING AFFINITY PREDICTED BY RF-SCORE:    0.00 PKD
ROOT
HETATM    1  C   UNL     1     -11.330   8.523  72.296  1.00  0.00    -0.371 C  
HETATM    2  S   UNL     1     -11.234   7.134  71.195  1.00  0.00    -0.273 S  
HETATM    3  O   UNL     1     -10.212   7.753  70.072  1.00  0.00    -0.202 OA 
HETATM    4  O   UNL     1     -10.556   6.054  71.879  1.00  0.00    -0.212 OA 
HETATM    5  O   UNL     1     -12.528   6.953  70.570  1.00  0.00    -0.270 OA 
ENDROOT
BRANCH   3   6
HETATM    6  C   UNL     1      -9.896   6.848  69.010  1.00  0.00    -0.152 C  
BRANCH   6   7
HETATM    7  C   UNL     1     -10.164   7.460  67.632  1.00  0.00    -0.201 C  
HETATM    8  O   UNL     1     -10.790   8.748  67.791  1.00  0.00    -0.466 OA 
HETATM    9  H   UNL     1     -10.956   9.128  66.936  1.00  0.00     0.000 HD 
BRANCH   7  10
HETATM   10  C   UNL     1      -8.861   7.694  66.838  1.00  0.00    -0.131 C  
HETATM   11  H   UNL     1      -8.260   7.415  64.979  1.00  0.00     0.000 HD 
HETATM   12  O   UNL     1      -9.062   7.271  65.468  1.00  0.00     0.030 OA 
BRANCH  10  13
HETATM   13  C   UNL     1      -8.351   9.147  66.779  1.00  0.00    -0.123 C  
HETATM   14  O   UNL     1      -9.342   9.906  66.055  1.00  0.00    -0.165 OA 
HETATM   15  H   UNL     1      -9.028  10.801  66.019  1.00  0.00     0.000 HD 
BRANCH  13  16
HETATM   16  C   UNL     1      -6.974   9.343  66.122  1.00  0.00    -0.090 C  
HETATM   17  H   UNL     1      -5.367   8.249  65.870  1.00  0.00     0.000 HD 
HETATM   18  O   UNL     1      -6.217   8.128  66.276  1.00  0.00    -0.044 OA 
BRANCH  16  19
HETATM   19  C   UNL     1      -6.189  10.523  66.706  1.00  0.00    -0.070 C  
BRANCH  19  20
HETATM   20  O   UNL     1      -7.130  11.458  67.249  1.00  0.00    -0.102 OA 
HETATM   21  S   UNL     1      -6.527  12.619  68.216  1.00  0.00    -0.084 S  
HETATM   22  C   UNL     1      -8.060  13.449  68.564  1.00  0.00    -0.105 C  
HETATM   23  O   UNL     1      -5.691  13.493  67.419  1.00  0.00    -0.351 OA 
HETATM   24  O   UNL     1      -6.051  11.995  69.433  1.00  0.00    -0.079 OA 
ENDBRANCH  19  20
ENDBRANCH  16  19
ENDBRANCH  13  16
ENDBRANCH  10  13
ENDBRANCH   7  10
ENDBRANCH   6   7
ENDBRANCH   3   6
TORSDOF 7
ENDMDL
MODEL      380
REMARK 921   NORMALIZED FREE ENERGY PREDICTED BY IDOCK:   -2.05 KCAL/MOL
REMARK 922        TOTAL FREE ENERGY PREDICTED BY IDOCK:   -4.14 KCAL/MOL
REMARK 923 INTER-LIGAND FREE ENERGY PREDICTED BY IDOCK:   -2.98 KCAL/MOL
REMARK 924 INTRA-LIGAND FREE ENERGY PREDICTED BY IDOCK:   -1.16 KCAL/MOL
REMARK 927      BINDING AFFINITY PREDICTED BY RF-SCORE:    0.00 PKD
ROOT
HETATM    1  C   UNL     1      -6.961  11.308  67.009  1.00  0.00    -0.126 C  
HETATM    2  S   UNL     1      -8.090   9.939  66.978  1.00  0.00    -0.109 S  
HETATM    3  O   UNL     1      -7.995   9.477  68.548  1.00  0.00    -0.091 OA 
HETATM    4  O   UNL     1      -9.423  10.448  66.734  1.00  0.00    -0.161 OA 
HETATM    5  O   UNL     1      -7.512   8.885  66.167  1.00  0.00    -0.088 OA 
ENDROOT
BRANCH   3   6
HETATM    6  C   UNL     1      -8.832   8.365  68.880  1.00  0.00    -0.143 C  
BRANCH   6   7
HETATM    7  C   UNL     1      -8.024   7.166  69.385  1.00  0.00    -0.125 C  
HETATM    8  O   UNL     1      -6.738   7.144  68.734  1.00  0.00    -0.061 OA 
HETATM    9  H   UNL     1      -6.237   6.400  69.048  1.00  0.00     0.000 HD 
BRANCH   7  10
HETATM   10  C   UNL     1      -7.752   7.248  70.903  1.00  0.00    -0.092 C  
HETATM   11  H   UNL     1      -6.366   8.046  72.057  1.00  0.00     0.000 HD 
HETATM   12  O   UNL     1      -6.533   7.996  71.123  1.00  0.00    -0.037 OA 
BRANCH  10  13
HETATM   13  C   UNL     1      -8.843   7.924  71.755  1.00  0.00    -0.126 C  
HETATM   14  O   UNL     1      -8.245   9.101  72.337  1.00  0.00    -0.234 OA 
HETATM   15  H   UNL     1      -8.917   9.518  72.863  1.00  0.00     0.000 HD 
BRANCH  13  16
HETATM   16  C   UNL     1      -9.454   7.054  72.867  1.00  0.00    -0.146 C  
HETATM   17  H   UNL     1      -9.852   5.150  73.105  1.00  0.00     0.000 HD 
HETATM   18  O   UNL     1      -9.475   5.686  72.418  1.00  0.00    -0.144 OA 
BRANCH  16  19
HETATM   19  C   UNL     1     -10.867   7.492  73.269  1.00  0.00    -0.355 C  
BRANCH  19  20
HETATM   20  O   UNL     1     -11.332   8.439  72.298  1.00  0.00    -0.336 OA 
HETATM   21  S   UNL     1     -12.642   8.012  71.434  1.00  0.00    -0.254 S  
HETATM   22  C   UNL     1     -12.766   9.490  70.456  1.00  0.00     0.158 C  
HETATM   23  O   UNL     1     -13.780   7.943  72.328  1.00  0.00    -0.168 OA 
HETATM   24  O   UNL     1     -12.274   6.911  70.567  1.00  0.00    -0.340 OA 
ENDBRANCH  19  20
ENDBRANCH  16  19
ENDBRANCH  13  16
ENDBRANCH  10  13
ENDBRANCH   7  10
ENDBRANCH   6   7
ENDBRANCH   3   6
TORSDOF 7
ENDMDL
MODEL      381
REMARK 921   NORMALIZED FREE ENERGY PREDICTED BY IDOCK:   -2.05 KCAL/MOL
REMARK 922        TOTAL FREE ENERGY PREDICTED BY IDOCK:   -4.13 KCAL/MOL
REMARK 923 INTER-LIGAND FREE ENERGY PREDICTED BY IDOCK:   -3.50 KCAL/MOL
REMARK 924 INTRA-LIGAND FREE ENERGY PREDICTED BY IDOCK:   -0.64 KCAL/MOL
REMARK 927      BINDING AFFINITY PREDICTED BY RF-SCORE:    0.00 PKD
ROOT
HETATM    1  C   UNL     1      -9.324  12.475  66.277  1.00  0.00    -0.177 C  
HETATM    2  S   UNL     1      -9.038  11.924  67.940  1.00  0.00    -0.190 S  
HETATM    3  O   UNL     1      -8.614  10.370  67.638  1.00  0.00    -0.118 OA 
HETATM    4  O   UNL     1      -7.880  12.618  68.461  1.00  0.00    -0.137 OA 
HETATM    5  O   UNL     1     -10.305  11.912  68.643  1.00  0.00    -0.214 OA 
ENDROOT
BRANCH   3   6
HETATM    6  C   UNL     1      -8.286   9.617  68.810  1.00  0.00    -0.111 C  
BRANCH   6   7
HETATM    7  C   UNL     1      -9.338   8.547  69.121  1.00  0.00    -0.153 C  
HETATM    8  O   UNL     1     -10.642   9.158  69.182  1.00  0.00    -0.223 OA 
HETATM    9  H   UNL     1     -11.294   8.494  69.374  1.00  0.00     0.000 HD 
BRANCH   7  10
HETATM   10  C   UNL     1      -9.405   7.464  68.023  1.00  0.00    -0.135 C  
HETATM   11  H   UNL     1      -8.100   6.432  66.962  1.00  0.00     0.000 HD 
HETATM   12  O   UNL     1      -8.059   7.099  67.638  1.00  0.00    -0.112 OA 
BRANCH  10  13
HETATM   13  C   UNL     1     -10.125   6.155  68.401  1.00  0.00    -0.158 C  
HETATM   14  O   UNL     1     -11.426   6.526  68.903  1.00  0.00    -0.596 OA 
HETATM   15  H   UNL     1     -11.869   5.720  69.137  1.00  0.00     0.000 HD 
BRANCH  13  16
HETATM   16  C   UNL     1      -9.406   5.274  69.438  1.00  0.00    -0.126 C  
HETATM   17  H   UNL     1      -9.544   3.415  70.042  1.00  0.00     0.000 HD 
HETATM   18  O   UNL     1      -9.989   3.959  69.402  1.00  0.00    -0.084 OA 
BRANCH  16  19
HETATM   19  C   UNL     1      -9.476   5.838  70.861  1.00  0.00    -0.165 C  
BRANCH  19  20
HETATM   20  O   UNL     1      -9.799   4.760  71.751  1.00  0.00    -0.165 OA 
HETATM   21  S   UNL     1      -9.592   5.041  73.339  1.00  0.00    -0.137 S  
HETATM   22  C   UNL     1     -10.132   3.453  73.927  1.00  0.00    -0.127 C  
HETATM   23  O   UNL     1     -10.548   6.046  73.757  1.00  0.00    -0.260 OA 
HETATM   24  O   UNL     1      -8.173   5.173  73.596  1.00  0.00    -0.109 OA 
ENDBRANCH  19  20
ENDBRANCH  16  19
ENDBRANCH  13  16
ENDBRANCH  10  13
ENDBRANCH   7  10
ENDBRANCH   6   7
ENDBRANCH   3   6
TORSDOF 7
ENDMDL
MODEL      382
REMARK 921   NORMALIZED FREE ENERGY PREDICTED BY IDOCK:   -2.03 KCAL/MOL
REMARK 922        TOTAL FREE ENERGY PREDICTED BY IDOCK:   -4.11 KCAL/MOL
REMARK 923 INTER-LIGAND FREE ENERGY PREDICTED BY IDOCK:   -3.23 KCAL/MOL
REMARK 924 INTRA-LIGAND FREE ENERGY PREDICTED BY IDOCK:   -0.88 KCAL/MOL
REMARK 927      BINDING AFFINITY PREDICTED BY RF-SCORE:    0.00 PKD
ROOT
HETATM    1  C   UNL     1      -6.106   9.264  65.158  1.00  0.00    -0.064 C  
HETATM    2  S   UNL     1      -6.270   7.500  65.266  1.00  0.00    -0.038 S  
HETATM    3  O   UNL     1      -7.836   7.405  65.742  1.00  0.00    -0.096 OA 
HETATM    4  O   UNL     1      -6.166   6.947  63.933  1.00  0.00    -0.035 OA 
HETATM    5  O   UNL     1      -5.443   7.028  66.358  1.00  0.00    -0.021 OA 
ENDROOT
BRANCH   3   6
HETATM    6  C   UNL     1      -8.314   6.067  65.909  1.00  0.00    -0.138 C  
BRANCH   6   7
HETATM    7  C   UNL     1      -8.721   5.777  67.357  1.00  0.00    -0.107 C  
HETATM    8  O   UNL     1      -7.543   5.724  68.186  1.00  0.00    -0.083 OA 
HETATM    9  H   UNL     1      -7.796   5.545  69.084  1.00  0.00     0.000 HD 
BRANCH   7  10
HETATM   10  C   UNL     1      -9.625   6.885  67.939  1.00  0.00    -0.118 C  
HETATM   11  H   UNL     1     -11.311   7.765  67.415  1.00  0.00     0.000 HD 
HETATM   12  O   UNL     1     -10.755   7.083  67.056  1.00  0.00    -0.315 OA 
BRANCH  10  13
HETATM   13  C   UNL     1     -10.204   6.624  69.343  1.00  0.00    -0.183 C  
HETATM   14  O   UNL     1     -11.612   6.362  69.169  1.00  0.00    -0.608 OA 
HETATM   15  H   UNL     1     -11.969   6.202  70.034  1.00  0.00     0.000 HD 
BRANCH  13  16
HETATM   16  C   UNL     1     -10.015   7.761  70.363  1.00  0.00    -0.188 C  
HETATM   17  H   UNL     1     -10.765   9.552  70.628  1.00  0.00     0.000 HD 
HETATM   18  O   UNL     1     -10.881   8.851  69.998  1.00  0.00    -0.230 OA 
BRANCH  16  19
HETATM   19  C   UNL     1      -8.567   8.255  70.455  1.00  0.00    -0.131 C  
BRANCH  19  20
HETATM   20  O   UNL     1      -7.863   7.400  71.367  1.00  0.00    -0.092 OA 
HETATM   21  S   UNL     1      -7.590   7.993  72.856  1.00  0.00    -0.135 S  
HETATM   22  C   UNL     1      -6.744   6.577  73.518  1.00  0.00    -0.073 C  
HETATM   23  O   UNL     1      -8.862   8.139  73.533  1.00  0.00    -0.256 OA 
HETATM   24  O   UNL     1      -6.646   9.087  72.745  1.00  0.00    -0.314 OA 
ENDBRANCH  19  20
ENDBRANCH  16  19
ENDBRANCH  13  16
ENDBRANCH  10  13
ENDBRANCH   7  10
ENDBRANCH   6   7
ENDBRANCH   3   6
TORSDOF 7
ENDMDL
MODEL      383
REMARK 921   NORMALIZED FREE ENERGY PREDICTED BY IDOCK:   -1.99 KCAL/MOL
REMARK 922        TOTAL FREE ENERGY PREDICTED BY IDOCK:   -4.04 KCAL/MOL
REMARK 923 INTER-LIGAND FREE ENERGY PREDICTED BY IDOCK:   -3.73 KCAL/MOL
REMARK 924 INTRA-LIGAND FREE ENERGY PREDICTED BY IDOCK:   -0.31 KCAL/MOL
REMARK 927      BINDING AFFINITY PREDICTED BY RF-SCORE:    0.00 PKD
ROOT
HETATM    1  C   UNL     1     -11.507  14.750  64.939  1.00  0.00    -0.412 C  
HETATM    2  S   UNL     1     -11.253  13.018  65.231  1.00  0.00    -0.296 S  
HETATM    3  O   UNL     1     -10.651  13.089  66.754  1.00  0.00    -0.259 OA 
HETATM    4  O   UNL     1     -12.544  12.367  65.282  1.00  0.00    -0.636 OA 
HETATM    5  O   UNL     1     -10.195  12.556  64.355  1.00  0.00    -0.330 OA 
ENDROOT
BRANCH   3   6
HETATM    6  C   UNL     1     -10.346  11.810  67.320  1.00  0.00    -0.206 C  
BRANCH   6   7
HETATM    7  C   UNL     1      -8.844  11.512  67.292  1.00  0.00    -0.160 C  
HETATM    8  O   UNL     1      -8.362  11.345  68.640  1.00  0.00    -0.153 OA 
HETATM    9  H   UNL     1      -7.430  11.160  68.623  1.00  0.00     0.000 HD 
BRANCH   7  10
HETATM   10  C   UNL     1      -8.526  10.200  66.541  1.00  0.00    -0.127 C  
HETATM   11  H   UNL     1      -7.660   9.712  64.837  1.00  0.00     0.000 HD 
HETATM   12  O   UNL     1      -7.856  10.520  65.299  1.00  0.00    -0.151 OA 
BRANCH  10  13
HETATM   13  C   UNL     1      -7.625   9.193  67.281  1.00  0.00    -0.088 C  
HETATM   14  O   UNL     1      -6.299   9.761  67.304  1.00  0.00    -0.066 OA 
HETATM   15  H   UNL     1      -5.743   9.140  67.760  1.00  0.00     0.000 HD 
BRANCH  13  16
HETATM   16  C   UNL     1      -7.568   7.780  66.675  1.00  0.00    -0.097 C  
HETATM   17  H   UNL     1      -6.962   6.999  64.983  1.00  0.00     0.000 HD 
HETATM   18  O   UNL     1      -6.997   7.871  65.356  1.00  0.00    -0.057 OA 
BRANCH  16  19
HETATM   19  C   UNL     1      -8.939   7.098  66.603  1.00  0.00    -0.146 C  
BRANCH  19  20
HETATM   20  O   UNL     1      -8.733   5.679  66.640  1.00  0.00    -0.115 OA 
HETATM   21  S   UNL     1      -8.783   4.975  68.105  1.00  0.00    -0.102 S  
HETATM   22  C   UNL     1      -8.494   3.305  67.569  1.00  0.00    -0.090 C  
HETATM   23  O   UNL     1     -10.134   5.077  68.618  1.00  0.00    -0.165 OA 
HETATM   24  O   UNL     1      -7.634   5.424  68.864  1.00  0.00    -0.077 OA 
ENDBRANCH  19  20
ENDBRANCH  16  19
ENDBRANCH  13  16
ENDBRANCH  10  13
ENDBRANCH   7  10
ENDBRANCH   6   7
ENDBRANCH   3   6
TORSDOF 7
ENDMDL
MODEL      384
REMARK 921   NORMALIZED FREE ENERGY PREDICTED BY IDOCK:   -1.98 KCAL/MOL
REMARK 922        TOTAL FREE ENERGY PREDICTED BY IDOCK:   -4.04 KCAL/MOL
REMARK 923 INTER-LIGAND FREE ENERGY PREDICTED BY IDOCK:   -3.56 KCAL/MOL
REMARK 924 INTRA-LIGAND FREE ENERGY PREDICTED BY IDOCK:   -0.48 KCAL/MOL
REMARK 927      BINDING AFFINITY PREDICTED BY RF-SCORE:    0.00 PKD
ROOT
HETATM    1  C   UNL     1     -12.708  11.561  71.053  1.00  0.00    -0.328 C  
HETATM    2  S   UNL     1     -11.732  11.568  69.571  1.00  0.00    -0.373 S  
HETATM    3  O   UNL     1     -10.604  10.454  69.987  1.00  0.00    -0.271 OA 
HETATM    4  O   UNL     1     -12.531  11.024  68.493  1.00  0.00    -0.440 OA 
HETATM    5  O   UNL     1     -11.071  12.853  69.461  1.00  0.00    -0.126 OA 
ENDROOT
BRANCH   3   6
HETATM    6  C   UNL     1      -9.635  10.195  68.966  1.00  0.00    -0.196 C  
BRANCH   6   7
HETATM    7  C   UNL     1      -8.616   9.136  69.394  1.00  0.00    -0.138 C  
HETATM    8  O   UNL     1      -9.225   8.237  70.342  1.00  0.00    -0.148 OA 
HETATM    9  H   UNL     1      -8.592   7.580  70.607  1.00  0.00     0.000 HD 
BRANCH   7  10
HETATM   10  C   UNL     1      -8.141   8.273  68.205  1.00  0.00    -0.124 C  
HETATM   11  H   UNL     1      -6.412   7.862  67.348  1.00  0.00     0.000 HD 
HETATM   12  O   UNL     1      -6.704   8.393  68.080  1.00  0.00    -0.063 OA 
BRANCH  10  13
HETATM   13  C   UNL     1      -8.450   6.766  68.291  1.00  0.00    -0.125 C  
HETATM   14  O   UNL     1      -7.191   6.095  68.503  1.00  0.00    -0.079 OA 
HETATM   15  H   UNL     1      -7.381   5.166  68.556  1.00  0.00     0.000 HD 
BRANCH  13  16
HETATM   16  C   UNL     1      -9.155   6.160  67.065  1.00  0.00    -0.118 C  
HETATM   17  H   UNL     1     -10.971   6.192  66.328  1.00  0.00     0.000 HD 
HETATM   18  O   UNL     1     -10.536   6.566  67.085  1.00  0.00    -0.242 OA 
BRANCH  16  19
HETATM   19  C   UNL     1      -9.063   4.631  67.009  1.00  0.00    -0.121 C  
BRANCH  19  20
HETATM   20  O   UNL     1      -9.778   4.183  65.850  1.00  0.00    -0.179 OA 
HETATM   21  S   UNL     1      -8.883   3.606  64.620  1.00  0.00    -0.124 S  
HETATM   22  C   UNL     1     -10.224   3.209  63.525  1.00  0.00    -0.189 C  
HETATM   23  O   UNL     1      -8.248   2.378  65.051  1.00  0.00    -0.081 OA 
HETATM   24  O   UNL     1      -8.130   4.705  64.052  1.00  0.00    -0.094 OA 
ENDBRANCH  19  20
ENDBRANCH  16  19
ENDBRANCH  13  16
ENDBRANCH  10  13
ENDBRANCH   7  10
ENDBRANCH   6   7
ENDBRANCH   3   6
TORSDOF 7
ENDMDL
MODEL      385
REMARK 921   NORMALIZED FREE ENERGY PREDICTED BY IDOCK:   -1.94 KCAL/MOL
REMARK 922        TOTAL FREE ENERGY PREDICTED BY IDOCK:   -3.98 KCAL/MOL
REMARK 923 INTER-LIGAND FREE ENERGY PREDICTED BY IDOCK:   -3.43 KCAL/MOL
REMARK 924 INTRA-LIGAND FREE ENERGY PREDICTED BY IDOCK:   -0.55 KCAL/MOL
REMARK 927      BINDING AFFINITY PREDICTED BY RF-SCORE:    0.00 PKD
ROOT
HETATM    1  C   UNL     1      -9.628  12.549  66.635  1.00  0.00    -0.239 C  
HETATM    2  S   UNL     1     -10.426  11.154  67.387  1.00  0.00    -0.234 S  
HETATM    3  O   UNL     1      -9.612  11.114  68.809  1.00  0.00    -0.192 OA 
HETATM    4  O   UNL     1     -11.803  11.506  67.662  1.00  0.00    -0.595 OA 
HETATM    5  O   UNL     1     -10.075   9.964  66.638  1.00  0.00    -0.212 OA 
ENDROOT
BRANCH   3   6
HETATM    6  C   UNL     1     -10.040  10.076  69.697  1.00  0.00    -0.236 C  
BRANCH   6   7
HETATM    7  C   UNL     1      -8.882   9.169  70.123  1.00  0.00    -0.197 C  
HETATM    8  O   UNL     1      -8.683   9.279  71.547  1.00  0.00    -0.323 OA 
HETATM    9  H   UNL     1      -7.964   8.716  71.811  1.00  0.00     0.000 HD 
BRANCH   7  10
HETATM   10  C   UNL     1      -9.171   7.681  69.829  1.00  0.00    -0.147 C  
HETATM   11  H   UNL     1     -10.758   6.508  69.862  1.00  0.00     0.000 HD 
HETATM   12  O   UNL     1     -10.579   7.424  70.043  1.00  0.00    -0.221 OA 
BRANCH  10  13
HETATM   13  C   UNL     1      -8.846   7.192  68.405  1.00  0.00    -0.127 C  
HETATM   14  O   UNL     1      -9.294   5.823  68.323  1.00  0.00    -0.116 OA 
HETATM   15  H   UNL     1      -9.094   5.522  67.445  1.00  0.00     0.000 HD 
BRANCH  13  16
HETATM   16  C   UNL     1      -7.365   7.273  67.994  1.00  0.00    -0.097 C  
HETATM   17  H   UNL     1      -5.651   7.412  68.934  1.00  0.00     0.000 HD 
HETATM   18  O   UNL     1      -6.565   7.362  69.187  1.00  0.00    -0.038 OA 
BRANCH  16  19
HETATM   19  C   UNL     1      -7.059   8.458  67.071  1.00  0.00    -0.079 C  
BRANCH  19  20
HETATM   20  O   UNL     1      -6.418   7.951  65.893  1.00  0.00    -0.042 OA 
HETATM   21  S   UNL     1      -7.332   7.861  64.550  1.00  0.00    -0.092 S  
HETATM   22  C   UNL     1      -6.083   7.213  63.464  1.00  0.00    -0.044 C  
HETATM   23  O   UNL     1      -7.666   9.207  64.131  1.00  0.00    -0.112 OA 
HETATM   24  O   UNL     1      -8.342   6.844  64.755  1.00  0.00    -0.091 OA 
ENDBRANCH  19  20
ENDBRANCH  16  19
ENDBRANCH  13  16
ENDBRANCH  10  13
ENDBRANCH   7  10
ENDBRANCH   6   7
ENDBRANCH   3   6
TORSDOF 7
ENDMDL
MODEL      386
REMARK 921   NORMALIZED FREE ENERGY PREDICTED BY IDOCK:   -1.92 KCAL/MOL
REMARK 922        TOTAL FREE ENERGY PREDICTED BY IDOCK:   -3.95 KCAL/MOL
REMARK 923 INTER-LIGAND FREE ENERGY PREDICTED BY IDOCK:   -4.94 KCAL/MOL
REMARK 924 INTRA-LIGAND FREE ENERGY PREDICTED BY IDOCK:    0.99 KCAL/MOL
REMARK 927      BINDING AFFINITY PREDICTED BY RF-SCORE:    0.00 PKD
ROOT
HETATM    1  C   UNL     1     -11.362  14.685  65.130  1.00  0.00    -0.375 C  
HETATM    2  S   UNL     1     -11.625  12.930  65.118  1.00  0.00    -0.351 S  
HETATM    3  O   UNL     1     -11.464  12.625  66.721  1.00  0.00    -0.310 OA 
HETATM    4  O   UNL     1     -12.999  12.675  64.744  1.00  0.00    -0.816 OA 
HETATM    5  O   UNL     1     -10.514  12.303  64.431  1.00  0.00    -0.289 OA 
ENDROOT
BRANCH   3   6
HETATM    6  C   UNL     1     -11.645  11.249  67.073  1.00  0.00     0.027 C  
BRANCH   6   7
HETATM    7  C   UNL     1     -11.035  10.920  68.439  1.00  0.00    -0.237 C  
HETATM    8  O   UNL     1     -12.077  10.497  69.342  1.00  0.00    -0.504 OA 
HETATM    9  H   UNL     1     -11.698  10.292  70.189  1.00  0.00     0.000 HD 
BRANCH   7  10
HETATM   10  C   UNL     1     -10.021   9.758  68.356  1.00  0.00    -0.156 C  
HETATM   11  H   UNL     1      -8.145   9.469  68.896  1.00  0.00     0.000 HD 
HETATM   12  O   UNL     1      -8.770  10.184  68.947  1.00  0.00    -0.131 OA 
BRANCH  10  13
HETATM   13  C   UNL     1     -10.421   8.452  69.068  1.00  0.00    -0.201 C  
HETATM   14  O   UNL     1     -11.488   8.786  69.981  1.00  0.00    -0.449 OA 
HETATM   15  H   UNL     1     -11.735   7.981  70.419  1.00  0.00     0.000 HD 
BRANCH  13  16
HETATM   16  C   UNL     1      -9.294   7.738  69.834  1.00  0.00    -0.157 C  
HETATM   17  H   UNL     1      -7.623   6.833  69.356  1.00  0.00     0.000 HD 
HETATM   18  O   UNL     1      -8.318   7.273  68.883  1.00  0.00    -0.124 OA 
BRANCH  16  19
HETATM   19  C   UNL     1      -9.792   6.564  70.685  1.00  0.00    -0.183 C  
BRANCH  19  20
HETATM   20  O   UNL     1      -9.505   6.859  72.059  1.00  0.00    -0.142 OA 
HETATM   21  S   UNL     1      -9.039   5.609  72.989  1.00  0.00    -0.119 S  
HETATM   22  C   UNL     1      -8.818   6.515  74.502  1.00  0.00    -0.170 C  
HETATM   23  O   UNL     1      -7.746   5.148  72.525  1.00  0.00    -0.094 OA 
HETATM   24  O   UNL     1     -10.166   4.713  73.145  1.00  0.00    -0.155 OA 
ENDBRANCH  19  20
ENDBRANCH  16  19
ENDBRANCH  13  16
ENDBRANCH  10  13
ENDBRANCH   7  10
ENDBRANCH   6   7
ENDBRANCH   3   6
TORSDOF 7
ENDMDL
MODEL      387
REMARK 921   NORMALIZED FREE ENERGY PREDICTED BY IDOCK:   -1.91 KCAL/MOL
REMARK 922        TOTAL FREE ENERGY PREDICTED BY IDOCK:   -3.94 KCAL/MOL
REMARK 923 INTER-LIGAND FREE ENERGY PREDICTED BY IDOCK:   -3.08 KCAL/MOL
REMARK 924 INTRA-LIGAND FREE ENERGY PREDICTED BY IDOCK:   -0.86 KCAL/MOL
REMARK 927      BINDING AFFINITY PREDICTED BY RF-SCORE:    0.00 PKD
ROOT
HETATM    1  C   UNL     1     -10.255  10.864  65.752  1.00  0.00    -0.259 C  
HETATM    2  S   UNL     1      -9.234   9.673  66.581  1.00  0.00    -0.157 S  
HETATM    3  O   UNL     1      -8.906   8.677  65.321  1.00  0.00    -0.187 OA 
HETATM    4  O   UNL     1      -8.003  10.322  66.979  1.00  0.00    -0.109 OA 
HETATM    5  O   UNL     1     -10.055   8.943  67.526  1.00  0.00    -0.194 OA 
ENDROOT
BRANCH   3   6
HETATM    6  C   UNL     1      -8.054   7.576  65.655  1.00  0.00    -0.128 C  
BRANCH   6   7
HETATM    7  C   UNL     1      -8.764   6.229  65.491  1.00  0.00    -0.082 C  
HETATM    8  O   UNL     1      -7.813   5.233  65.064  1.00  0.00    -0.089 OA 
HETATM    9  H   UNL     1      -8.253   4.397  64.963  1.00  0.00     0.000 HD 
BRANCH   7  10
HETATM   10  C   UNL     1      -9.367   5.725  66.820  1.00  0.00    -0.133 C  
HETATM   11  H   UNL     1     -11.173   5.294  67.488  1.00  0.00     0.000 HD 
HETATM   12  O   UNL     1     -10.801   5.604  66.670  1.00  0.00    -0.292 OA 
BRANCH  10  13
HETATM   13  C   UNL     1      -8.861   4.360  67.325  1.00  0.00    -0.108 C  
HETATM   14  O   UNL     1      -9.777   3.366  66.822  1.00  0.00    -0.391 OA 
HETATM   15  H   UNL     1      -9.466   2.525  67.133  1.00  0.00     0.000 HD 
BRANCH  13  16
HETATM   16  C   UNL     1      -8.735   4.219  68.852  1.00  0.00    -0.091 C  
HETATM   17  H   UNL     1      -9.703   3.258  70.259  1.00  0.00     0.000 HD 
HETATM   18  O   UNL     1      -9.781   3.346  69.317  1.00  0.00    -0.128 OA 
BRANCH  16  19
HETATM   19  C   UNL     1      -8.809   5.560  69.590  1.00  0.00    -0.111 C  
BRANCH  19  20
HETATM   20  O   UNL     1      -9.480   5.344  70.839  1.00  0.00    -0.158 OA 
HETATM   21  S   UNL     1      -8.582   5.506  72.185  1.00  0.00    -0.126 S  
HETATM   22  C   UNL     1      -9.867   5.158  73.363  1.00  0.00    -0.154 C  
HETATM   23  O   UNL     1      -8.191   6.895  72.313  1.00  0.00    -0.104 OA 
HETATM   24  O   UNL     1      -7.617   4.426  72.220  1.00  0.00    -0.074 OA 
ENDBRANCH  19  20
ENDBRANCH  16  19
ENDBRANCH  13  16
ENDBRANCH  10  13
ENDBRANCH   7  10
ENDBRANCH   6   7
ENDBRANCH   3   6
TORSDOF 7
ENDMDL
MODEL      388
REMARK 921   NORMALIZED FREE ENERGY PREDICTED BY IDOCK:   -1.91 KCAL/MOL
REMARK 922        TOTAL FREE ENERGY PREDICTED BY IDOCK:   -3.94 KCAL/MOL
REMARK 923 INTER-LIGAND FREE ENERGY PREDICTED BY IDOCK:   -2.84 KCAL/MOL
REMARK 924 INTRA-LIGAND FREE ENERGY PREDICTED BY IDOCK:   -1.10 KCAL/MOL
REMARK 927      BINDING AFFINITY PREDICTED BY RF-SCORE:    0.00 PKD
ROOT
HETATM    1  C   UNL     1     -10.091   3.985  63.052  1.00  0.00    -0.139 C  
HETATM    2  S   UNL     1      -9.938   3.949  64.820  1.00  0.00    -0.188 S  
HETATM    3  O   UNL     1      -8.634   4.926  64.995  1.00  0.00    -0.135 OA 
HETATM    4  O   UNL     1     -11.087   4.618  65.393  1.00  0.00    -0.205 OA 
HETATM    5  O   UNL     1      -9.551   2.612  65.220  1.00  0.00    -0.066 OA 
ENDROOT
BRANCH   3   6
HETATM    6  C   UNL     1      -8.240   5.135  66.355  1.00  0.00    -0.108 C  
BRANCH   6   7
HETATM    7  C   UNL     1      -7.895   6.600  66.637  1.00  0.00    -0.104 C  
HETATM    8  O   UNL     1      -7.764   7.312  65.391  1.00  0.00    -0.096 OA 
HETATM    9  H   UNL     1      -7.550   8.221  65.566  1.00  0.00     0.000 HD 
BRANCH   7  10
HETATM   10  C   UNL     1      -9.004   7.313  67.441  1.00  0.00    -0.122 C  
HETATM   11  H   UNL     1     -10.559   8.450  67.016  1.00  0.00     0.000 HD 
HETATM   12  O   UNL     1      -9.877   8.011  66.522  1.00  0.00    -0.234 OA 
BRANCH  10  13
HETATM   13  C   UNL     1      -9.907   6.411  68.305  1.00  0.00    -0.128 C  
HETATM   14  O   UNL     1     -11.258   6.606  67.837  1.00  0.00    -0.520 OA 
HETATM   15  H   UNL     1     -11.814   6.050  68.370  1.00  0.00     0.000 HD 
BRANCH  13  16
HETATM   16  C   UNL     1      -9.846   6.665  69.821  1.00  0.00    -0.162 C  
HETATM   17  H   UNL     1     -10.951   7.613  71.134  1.00  0.00     0.000 HD 
HETATM   18  O   UNL     1     -10.988   7.457  70.198  1.00  0.00    -0.253 OA 
BRANCH  16  19
HETATM   19  C   UNL     1      -8.557   7.367  70.265  1.00  0.00    -0.145 C  
BRANCH  19  20
HETATM   20  O   UNL     1      -7.902   6.527  71.225  1.00  0.00    -0.100 OA 
HETATM   21  S   UNL     1      -6.479   5.881  70.775  1.00  0.00    -0.041 S  
HETATM   22  C   UNL     1      -6.139   4.997  72.278  1.00  0.00    -0.026 C  
HETATM   23  O   UNL     1      -5.513   6.951  70.631  1.00  0.00    -0.023 OA 
HETATM   24  O   UNL     1      -6.729   4.921  69.719  1.00  0.00    -0.040 OA 
ENDBRANCH  19  20
ENDBRANCH  16  19
ENDBRANCH  13  16
ENDBRANCH  10  13
ENDBRANCH   7  10
ENDBRANCH   6   7
ENDBRANCH   3   6
TORSDOF 7
ENDMDL
MODEL      389
REMARK 921   NORMALIZED FREE ENERGY PREDICTED BY IDOCK:   -1.87 KCAL/MOL
REMARK 922        TOTAL FREE ENERGY PREDICTED BY IDOCK:   -3.89 KCAL/MOL
REMARK 923 INTER-LIGAND FREE ENERGY PREDICTED BY IDOCK:   -4.74 KCAL/MOL
REMARK 924 INTRA-LIGAND FREE ENERGY PREDICTED BY IDOCK:    0.85 KCAL/MOL
REMARK 927      BINDING AFFINITY PREDICTED BY RF-SCORE:    0.00 PKD
ROOT
HETATM    1  C   UNL     1     -12.459  11.245  69.549  1.00  0.00    -0.061 C  
HETATM    2  S   UNL     1     -11.128  12.201  68.868  1.00  0.00    -0.242 S  
HETATM    3  O   UNL     1     -11.836  12.689  67.473  1.00  0.00    -0.366 OA 
HETATM    4  O   UNL     1     -10.923  13.364  69.705  1.00  0.00    -0.050 OA 
HETATM    5  O   UNL     1     -10.044  11.301  68.527  1.00  0.00    -0.190 OA 
ENDROOT
BRANCH   3   6
HETATM    6  C   UNL     1     -11.008  13.529  66.662  1.00  0.00    -0.288 C  
BRANCH   6   7
HETATM    7  C   UNL     1     -10.470  14.733  67.441  1.00  0.00    -0.256 C  
HETATM    8  O   UNL     1      -9.073  14.532  67.732  1.00  0.00    -0.181 OA 
HETATM    9  H   UNL     1      -8.739  15.279  68.215  1.00  0.00     0.000 HD 
BRANCH   7  10
HETATM   10  C   UNL     1     -10.572  16.042  66.629  1.00  0.00    -0.297 C  
HETATM   11  H   UNL     1     -11.213  17.877  66.967  1.00  0.00     0.000 HD 
HETATM   12  O   UNL     1     -11.150  17.071  67.466  1.00  0.00    -0.183 OA 
BRANCH  10  13
HETATM   13  C   UNL     1      -9.247  16.611  66.086  1.00  0.00    -0.277 C  
HETATM   14  O   UNL     1      -8.315  15.511  66.027  1.00  0.00    -0.288 OA 
HETATM   15  H   UNL     1      -7.499  15.862  65.692  1.00  0.00     0.000 HD 
BRANCH  13  16
HETATM   16  C   UNL     1      -8.632  17.763  66.901  1.00  0.00    -0.244 C  
HETATM   17  H   UNL     1      -8.256  19.661  66.590  1.00  0.00     0.000 HD 
HETATM   18  O   UNL     1      -8.635  18.950  66.087  1.00  0.00    -0.423 OA 
BRANCH  16  19
HETATM   19  C   UNL     1      -7.208  17.466  67.385  1.00  0.00    -0.168 C  
BRANCH  19  20
HETATM   20  O   UNL     1      -6.490  18.706  67.440  1.00  0.00    -0.190 OA 
HETATM   21  S   UNL     1      -6.243  19.339  68.917  1.00  0.00    -0.258 S  
HETATM   22  C   UNL     1      -5.343  20.783  68.403  1.00  0.00    -0.297 C  
HETATM   23  O   UNL     1      -5.351  18.464  69.649  1.00  0.00    -0.187 OA 
HETATM   24  O   UNL     1      -7.523  19.758  69.452  1.00  0.00    -0.295 OA 
ENDBRANCH  19  20
ENDBRANCH  16  19
ENDBRANCH  13  16
ENDBRANCH  10  13
ENDBRANCH   7  10
ENDBRANCH   6   7
ENDBRANCH   3   6
TORSDOF 7
ENDMDL
MODEL      390
REMARK 921   NORMALIZED FREE ENERGY PREDICTED BY IDOCK:   -1.84 KCAL/MOL
REMARK 922        TOTAL FREE ENERGY PREDICTED BY IDOCK:   -3.84 KCAL/MOL
REMARK 923 INTER-LIGAND FREE ENERGY PREDICTED BY IDOCK:   -3.51 KCAL/MOL
REMARK 924 INTRA-LIGAND FREE ENERGY PREDICTED BY IDOCK:   -0.33 KCAL/MOL
REMARK 927      BINDING AFFINITY PREDICTED BY RF-SCORE:    0.00 PKD
ROOT
HETATM    1  C   UNL     1      -9.334   5.221  71.860  1.00  0.00    -0.141 C  
HETATM    2  S   UNL     1      -8.755   4.340  70.432  1.00  0.00    -0.081 S  
HETATM    3  O   UNL     1      -8.081   5.584  69.605  1.00  0.00    -0.097 OA 
HETATM    4  O   UNL     1      -7.698   3.442  70.844  1.00  0.00    -0.043 OA 
HETATM    5  O   UNL     1      -9.905   3.876  69.681  1.00  0.00    -0.194 OA 
ENDROOT
BRANCH   3   6
HETATM    6  C   UNL     1      -7.480   5.201  68.364  1.00  0.00    -0.075 C  
BRANCH   6   7
HETATM    7  C   UNL     1      -8.330   5.617  67.159  1.00  0.00    -0.104 C  
HETATM    8  O   UNL     1      -9.564   6.201  67.621  1.00  0.00    -0.112 OA 
HETATM    9  H   UNL     1     -10.091   6.459  66.873  1.00  0.00     0.000 HD 
BRANCH   7  10
HETATM   10  C   UNL     1      -7.627   6.686  66.295  1.00  0.00    -0.090 C  
HETATM   11  H   UNL     1      -7.687   7.249  64.405  1.00  0.00     0.000 HD 
HETATM   12  O   UNL     1      -8.119   6.591  64.937  1.00  0.00    -0.124 OA 
BRANCH  10  13
HETATM   13  C   UNL     1      -7.822   8.151  66.732  1.00  0.00    -0.095 C  
HETATM   14  O   UNL     1      -8.226   8.121  68.117  1.00  0.00    -0.126 OA 
HETATM   15  H   UNL     1      -8.346   9.023  68.386  1.00  0.00     0.000 HD 
BRANCH  13  16
HETATM   16  C   UNL     1      -8.845   8.959  65.915  1.00  0.00    -0.179 C  
HETATM   17  H   UNL     1      -8.761  10.356  64.543  1.00  0.00     0.000 HD 
HETATM   18  O   UNL     1      -8.130   9.857  65.047  1.00  0.00    -0.127 OA 
BRANCH  16  19
HETATM   19  C   UNL     1      -9.826   9.749  66.788  1.00  0.00    -0.208 C  
BRANCH  19  20
HETATM   20  O   UNL     1     -10.518  10.682  65.948  1.00  0.00    -0.236 OA 
HETATM   21  S   UNL     1     -10.940  12.099  66.627  1.00  0.00    -0.297 S  
HETATM   22  C   UNL     1     -11.709  12.821  65.197  1.00  0.00    -0.360 C  
HETATM   23  O   UNL     1      -9.733  12.839  66.935  1.00  0.00    -0.222 OA 
HETATM   24  O   UNL     1     -11.961  11.840  67.621  1.00  0.00    -0.599 OA 
ENDBRANCH  19  20
ENDBRANCH  16  19
ENDBRANCH  13  16
ENDBRANCH  10  13
ENDBRANCH   7  10
ENDBRANCH   6   7
ENDBRANCH   3   6
TORSDOF 7
ENDMDL
MODEL      391
REMARK 921   NORMALIZED FREE ENERGY PREDICTED BY IDOCK:   -1.84 KCAL/MOL
REMARK 922        TOTAL FREE ENERGY PREDICTED BY IDOCK:   -3.83 KCAL/MOL
REMARK 923 INTER-LIGAND FREE ENERGY PREDICTED BY IDOCK:   -3.40 KCAL/MOL
REMARK 924 INTRA-LIGAND FREE ENERGY PREDICTED BY IDOCK:   -0.44 KCAL/MOL
REMARK 927      BINDING AFFINITY PREDICTED BY RF-SCORE:    0.00 PKD
ROOT
HETATM    1  C   UNL     1      -9.101   6.287  73.592  1.00  0.00    -0.128 C  
HETATM    2  S   UNL     1      -8.307   4.889  72.841  1.00  0.00    -0.104 S  
HETATM    3  O   UNL     1      -8.261   5.409  71.287  1.00  0.00    -0.115 OA 
HETATM    4  O   UNL     1      -6.948   4.813  73.334  1.00  0.00    -0.067 OA 
HETATM    5  O   UNL     1      -9.210   3.758  72.906  1.00  0.00    -0.102 OA 
ENDROOT
BRANCH   3   6
HETATM    6  C   UNL     1      -7.640   4.490  70.383  1.00  0.00    -0.053 C  
BRANCH   6   7
HETATM    7  C   UNL     1      -8.654   3.837  69.439  1.00  0.00    -0.074 C  
HETATM    8  O   UNL     1      -9.984   4.014  69.964  1.00  0.00    -0.190 OA 
HETATM    9  H   UNL     1     -10.613   3.609  69.378  1.00  0.00     0.000 HD 
BRANCH   7  10
HETATM   10  C   UNL     1      -8.640   4.483  68.036  1.00  0.00    -0.102 C  
HETATM   11  H   UNL     1      -9.456   4.090  66.283  1.00  0.00     0.000 HD 
HETATM   12  O   UNL     1      -9.465   3.693  67.147  1.00  0.00    -0.191 OA 
BRANCH  10  13
HETATM   13  C   UNL     1      -9.160   5.931  67.947  1.00  0.00    -0.109 C  
HETATM   14  O   UNL     1      -8.409   6.701  68.909  1.00  0.00    -0.118 OA 
HETATM   15  H   UNL     1      -8.729   7.593  68.855  1.00  0.00     0.000 HD 
BRANCH  13  16
HETATM   16  C   UNL     1     -10.665   6.115  68.204  1.00  0.00    -0.294 C  
HETATM   17  H   UNL     1     -12.212   6.694  67.148  1.00  0.00     0.000 HD 
HETATM   18  O   UNL     1     -11.282   6.580  66.989  1.00  0.00    -0.397 OA 
BRANCH  16  19
HETATM   19  C   UNL     1     -10.968   7.089  69.348  1.00  0.00    -0.201 C  
BRANCH  19  20
HETATM   20  O   UNL     1     -10.675   8.417  68.891  1.00  0.00    -0.179 OA 
HETATM   21  S   UNL     1     -10.349   9.525  70.037  1.00  0.00    -0.267 S  
HETATM   22  C   UNL     1     -10.063  10.902  68.951  1.00  0.00    -0.198 C  
HETATM   23  O   UNL     1      -9.101   9.167  70.680  1.00  0.00    -0.216 OA 
HETATM   24  O   UNL     1     -11.562   9.771  70.789  1.00  0.00    -0.290 OA 
ENDBRANCH  19  20
ENDBRANCH  16  19
ENDBRANCH  13  16
ENDBRANCH  10  13
ENDBRANCH   7  10
ENDBRANCH   6   7
ENDBRANCH   3   6
TORSDOF 7
ENDMDL
MODEL      392
REMARK 921   NORMALIZED FREE ENERGY PREDICTED BY IDOCK:   -1.80 KCAL/MOL
REMARK 922        TOTAL FREE ENERGY PREDICTED BY IDOCK:   -3.78 KCAL/MOL
REMARK 923 INTER-LIGAND FREE ENERGY PREDICTED BY IDOCK:   -2.59 KCAL/MOL
REMARK 924 INTRA-LIGAND FREE ENERGY PREDICTED BY IDOCK:   -1.19 KCAL/MOL
REMARK 927      BINDING AFFINITY PREDICTED BY RF-SCORE:    0.00 PKD
ROOT
HETATM    1  C   UNL     1      -8.753  11.457  66.293  1.00  0.00    -0.173 C  
HETATM    2  S   UNL     1      -8.000  10.275  67.382  1.00  0.00    -0.106 S  
HETATM    3  O   UNL     1      -7.856   9.011  66.347  1.00  0.00    -0.098 OA 
HETATM    4  O   UNL     1      -6.671  10.741  67.717  1.00  0.00    -0.066 OA 
HETATM    5  O   UNL     1      -8.963   9.909  68.401  1.00  0.00    -0.119 OA 
ENDROOT
BRANCH   3   6
HETATM    6  C   UNL     1      -7.243   7.853  66.923  1.00  0.00    -0.089 C  
BRANCH   6   7
HETATM    7  C   UNL     1      -8.248   6.719  67.144  1.00  0.00    -0.121 C  
HETATM    8  O   UNL     1      -9.228   7.128  68.119  1.00  0.00    -0.133 OA 
HETATM    9  H   UNL     1      -9.851   6.424  68.256  1.00  0.00     0.000 HD 
BRANCH   7  10
HETATM   10  C   UNL     1      -9.022   6.370  65.855  1.00  0.00    -0.096 C  
HETATM   11  H   UNL     1      -8.567   6.087  63.957  1.00  0.00     0.000 HD 
HETATM   12  O   UNL     1      -8.091   6.302  64.750  1.00  0.00    -0.130 OA 
BRANCH  10  13
HETATM   13  C   UNL     1      -9.793   5.036  65.864  1.00  0.00    -0.164 C  
HETATM   14  O   UNL     1     -11.031   5.275  66.565  1.00  0.00    -0.506 OA 
HETATM   15  H   UNL     1     -11.506   4.453  66.570  1.00  0.00     0.000 HD 
BRANCH  13  16
HETATM   16  C   UNL     1      -9.059   3.847  66.508  1.00  0.00    -0.149 C  
HETATM   17  H   UNL     1      -8.683   1.989  66.011  1.00  0.00     0.000 HD 
HETATM   18  O   UNL     1      -9.137   2.722  65.613  1.00  0.00    -0.143 OA 
BRANCH  16  19
HETATM   19  C   UNL     1      -9.624   3.460  67.880  1.00  0.00    -0.105 C  
BRANCH  19  20
HETATM   20  O   UNL     1      -8.531   3.045  68.710  1.00  0.00    -0.063 OA 
HETATM   21  S   UNL     1      -8.525   3.604  70.238  1.00  0.00    -0.058 S  
HETATM   22  C   UNL     1      -7.034   2.799  70.773  1.00  0.00    -0.033 C  
HETATM   23  O   UNL     1      -9.651   3.026  70.943  1.00  0.00    -0.153 OA 
HETATM   24  O   UNL     1      -8.292   5.033  70.197  1.00  0.00    -0.083 OA 
ENDBRANCH  19  20
ENDBRANCH  16  19
ENDBRANCH  13  16
ENDBRANCH  10  13
ENDBRANCH   7  10
ENDBRANCH   6   7
ENDBRANCH   3   6
TORSDOF 7
ENDMDL
MODEL      393
REMARK 921   NORMALIZED FREE ENERGY PREDICTED BY IDOCK:   -1.80 KCAL/MOL
REMARK 922        TOTAL FREE ENERGY PREDICTED BY IDOCK:   -3.78 KCAL/MOL
REMARK 923 INTER-LIGAND FREE ENERGY PREDICTED BY IDOCK:   -3.17 KCAL/MOL
REMARK 924 INTRA-LIGAND FREE ENERGY PREDICTED BY IDOCK:   -0.61 KCAL/MOL
REMARK 927      BINDING AFFINITY PREDICTED BY RF-SCORE:    0.00 PKD
ROOT
HETATM    1  C   UNL     1      -6.400  10.855  66.623  1.00  0.00    -0.113 C  
HETATM    2  S   UNL     1      -7.664   9.802  67.288  1.00  0.00    -0.094 S  
HETATM    3  O   UNL     1      -7.595  10.260  68.860  1.00  0.00    -0.081 OA 
HETATM    4  O   UNL     1      -8.940  10.220  66.748  1.00  0.00    -0.132 OA 
HETATM    5  O   UNL     1      -7.209   8.429  67.203  1.00  0.00    -0.081 OA 
ENDROOT
BRANCH   3   6
HETATM    6  C   UNL     1      -8.538   9.591  69.704  1.00  0.00    -0.183 C  
BRANCH   6   7
HETATM    7  C   UNL     1      -7.891   8.458  70.505  1.00  0.00    -0.089 C  
HETATM    8  O   UNL     1      -6.626   8.904  71.033  1.00  0.00    -0.055 OA 
HETATM    9  H   UNL     1      -6.224   8.200  71.531  1.00  0.00     0.000 HD 
BRANCH   7  10
HETATM   10  C   UNL     1      -8.753   8.036  71.715  1.00  0.00    -0.137 C  
HETATM   11  H   UNL     1      -9.186   8.793  73.484  1.00  0.00     0.000 HD 
HETATM   12  O   UNL     1      -8.655   9.053  72.740  1.00  0.00    -0.258 OA 
BRANCH  10  13
HETATM   13  C   UNL     1     -10.255   7.831  71.441  1.00  0.00    -0.182 C  
HETATM   14  O   UNL     1     -10.952   8.203  72.649  1.00  0.00    -0.351 OA 
HETATM   15  H   UNL     1     -11.878   8.076  72.481  1.00  0.00     0.000 HD 
BRANCH  13  16
HETATM   16  C   UNL     1     -10.668   6.407  71.028  1.00  0.00    -0.251 C  
HETATM   17  H   UNL     1     -12.189   5.601  70.090  1.00  0.00     0.000 HD 
HETATM   18  O   UNL     1     -11.934   6.479  70.346  1.00  0.00    -0.397 OA 
BRANCH  16  19
HETATM   19  C   UNL     1     -10.769   5.439  72.212  1.00  0.00    -0.231 C  
BRANCH  19  20
HETATM   20  O   UNL     1      -9.548   4.691  72.280  1.00  0.00    -0.143 OA 
HETATM   21  S   UNL     1      -8.908   4.475  73.759  1.00  0.00    -0.103 S  
HETATM   22  C   UNL     1      -7.493   3.520  73.262  1.00  0.00    -0.057 C  
HETATM   23  O   UNL     1      -9.799   3.629  74.527  1.00  0.00    -0.117 OA 
HETATM   24  O   UNL     1      -8.451   5.759  74.249  1.00  0.00    -0.112 OA 
ENDBRANCH  19  20
ENDBRANCH  16  19
ENDBRANCH  13  16
ENDBRANCH  10  13
ENDBRANCH   7  10
ENDBRANCH   6   7
ENDBRANCH   3   6
TORSDOF 7
ENDMDL
MODEL      394
REMARK 921   NORMALIZED FREE ENERGY PREDICTED BY IDOCK:   -1.75 KCAL/MOL
REMARK 922        TOTAL FREE ENERGY PREDICTED BY IDOCK:   -3.71 KCAL/MOL
REMARK 923 INTER-LIGAND FREE ENERGY PREDICTED BY IDOCK:   -4.35 KCAL/MOL
REMARK 924 INTRA-LIGAND FREE ENERGY PREDICTED BY IDOCK:    0.64 KCAL/MOL
REMARK 927      BINDING AFFINITY PREDICTED BY RF-SCORE:    0.00 PKD
ROOT
HETATM    1  C   UNL     1      -5.963   8.560  66.906  1.00  0.00    -0.053 C  
HETATM    2  S   UNL     1      -6.406   9.390  65.401  1.00  0.00    -0.068 S  
HETATM    3  O   UNL     1      -7.895   9.932  65.823  1.00  0.00    -0.113 OA 
HETATM    4  O   UNL     1      -5.537  10.535  65.235  1.00  0.00    -0.112 OA 
HETATM    5  O   UNL     1      -6.572   8.396  64.360  1.00  0.00    -0.066 OA 
ENDROOT
BRANCH   3   6
HETATM    6  C   UNL     1      -8.550  10.690  64.801  1.00  0.00    -0.130 C  
BRANCH   6   7
HETATM    7  C   UNL     1      -9.990  11.046  65.182  1.00  0.00    -0.278 C  
HETATM    8  O   UNL     1     -10.099  11.144  66.616  1.00  0.00    -0.204 OA 
HETATM    9  H   UNL     1     -10.992  11.365  66.852  1.00  0.00     0.000 HD 
BRANCH   7  10
HETATM   10  C   UNL     1     -10.421  12.413  64.609  1.00  0.00    -0.309 C  
HETATM   11  H   UNL     1     -12.093  13.202  63.919  1.00  0.00     0.000 HD 
HETATM   12  O   UNL     1     -11.828  12.360  64.271  1.00  0.00    -0.351 OA 
BRANCH  10  13
HETATM   13  C   UNL     1     -10.237  13.629  65.537  1.00  0.00    -0.302 C  
HETATM   14  O   UNL     1      -9.331  13.221  66.583  1.00  0.00    -0.251 OA 
HETATM   15  H   UNL     1      -9.218  13.970  67.155  1.00  0.00     0.000 HD 
BRANCH  13  16
HETATM   16  C   UNL     1     -11.526  14.191  66.163  1.00  0.00    -0.347 C  
HETATM   17  H   UNL     1     -13.072  15.211  65.523  1.00  0.00     0.000 HD 
HETATM   18  O   UNL     1     -12.277  14.865  65.136  1.00  0.00    -0.247 OA 
BRANCH  16  19
HETATM   19  C   UNL     1     -11.262  15.149  67.330  1.00  0.00    -0.323 C  
BRANCH  19  20
HETATM   20  O   UNL     1      -9.941  15.685  67.176  1.00  0.00    -0.235 OA 
HETATM   21  S   UNL     1      -9.606  17.042  68.007  1.00  0.00    -0.268 S  
HETATM   22  C   UNL     1      -7.921  17.229  67.475  1.00  0.00    -0.182 C  
HETATM   23  O   UNL     1      -9.620  16.730  69.422  1.00  0.00    -0.157 OA 
HETATM   24  O   UNL     1     -10.391  18.123  67.449  1.00  0.00    -0.355 OA 
ENDBRANCH  19  20
ENDBRANCH  16  19
ENDBRANCH  13  16
ENDBRANCH  10  13
ENDBRANCH   7  10
ENDBRANCH   6   7
ENDBRANCH   3   6
TORSDOF 7
ENDMDL
MODEL      395
REMARK 921   NORMALIZED FREE ENERGY PREDICTED BY IDOCK:   -1.72 KCAL/MOL
REMARK 922        TOTAL FREE ENERGY PREDICTED BY IDOCK:   -3.66 KCAL/MOL
REMARK 923 INTER-LIGAND FREE ENERGY PREDICTED BY IDOCK:   -3.94 KCAL/MOL
REMARK 924 INTRA-LIGAND FREE ENERGY PREDICTED BY IDOCK:    0.28 KCAL/MOL
REMARK 927      BINDING AFFINITY PREDICTED BY RF-SCORE:    0.00 PKD
ROOT
HETATM    1  C   UNL     1      -5.414   9.036  66.707  1.00  0.00    -0.040 C  
HETATM    2  S   UNL     1      -6.391   9.721  65.393  1.00  0.00    -0.088 S  
HETATM    3  O   UNL     1      -7.358  10.714  66.268  1.00  0.00    -0.126 OA 
HETATM    4  O   UNL     1      -5.533  10.539  64.563  1.00  0.00    -0.132 OA 
HETATM    5  O   UNL     1      -7.218   8.668  64.839  1.00  0.00    -0.082 OA 
ENDROOT
BRANCH   3   6
HETATM    6  C   UNL     1      -8.289  11.463  65.481  1.00  0.00     0.236 C  
BRANCH   6   7
HETATM    7  C   UNL     1      -9.525  11.875  66.286  1.00  0.00    -0.227 C  
HETATM    8  O   UNL     1     -10.555  12.331  65.388  1.00  0.00    -0.259 OA 
HETATM    9  H   UNL     1     -11.322  12.587  65.888  1.00  0.00     0.000 HD 
BRANCH   7  10
HETATM   10  C   UNL     1     -10.120  10.692  67.081  1.00  0.00    -0.207 C  
HETATM   11  H   UNL     1      -9.542   9.559  68.589  1.00  0.00     0.000 HD 
HETATM   12  O   UNL     1      -9.175  10.286  68.099  1.00  0.00    -0.134 OA 
BRANCH  10  13
HETATM   13  C   UNL     1     -11.456  10.960  67.802  1.00  0.00    -0.243 C  
HETATM   14  O   UNL     1     -12.215  11.847  66.954  1.00  0.00    -0.493 OA 
HETATM   15  H   UNL     1     -13.038  12.012  67.398  1.00  0.00     0.000 HD 
BRANCH  13  16
HETATM   16  C   UNL     1     -11.342  11.567  69.211  1.00  0.00    -0.288 C  
HETATM   17  H   UNL     1     -12.261  11.324  70.925  1.00  0.00     0.000 HD 
HETATM   18  O   UNL     1     -12.331  10.949  70.055  1.00  0.00    -0.325 OA 
BRANCH  16  19
HETATM   19  C   UNL     1     -11.521  13.090  69.228  1.00  0.00    -0.289 C  
BRANCH  19  20
HETATM   20  O   UNL     1     -10.462  13.670  68.454  1.00  0.00    -0.235 OA 
HETATM   21  S   UNL     1     -10.319  15.289  68.517  1.00  0.00    -0.237 S  
HETATM   22  C   UNL     1      -8.913  15.439  67.441  1.00  0.00    -0.191 C  
HETATM   23  O   UNL     1      -9.924  15.664  69.860  1.00  0.00    -0.283 OA 
HETATM   24  O   UNL     1     -11.470  15.873  67.860  1.00  0.00    -0.299 OA 
ENDBRANCH  19  20
ENDBRANCH  16  19
ENDBRANCH  13  16
ENDBRANCH  10  13
ENDBRANCH   7  10
ENDBRANCH   6   7
ENDBRANCH   3   6
TORSDOF 7
ENDMDL
MODEL      396
REMARK 921   NORMALIZED FREE ENERGY PREDICTED BY IDOCK:   -1.62 KCAL/MOL
REMARK 922        TOTAL FREE ENERGY PREDICTED BY IDOCK:   -3.52 KCAL/MOL
REMARK 923 INTER-LIGAND FREE ENERGY PREDICTED BY IDOCK:   -3.89 KCAL/MOL
REMARK 924 INTRA-LIGAND FREE ENERGY PREDICTED BY IDOCK:    0.37 KCAL/MOL
REMARK 927      BINDING AFFINITY PREDICTED BY RF-SCORE:    0.00 PKD
ROOT
HETATM    1  C   UNL     1     -10.294  12.847  66.834  1.00  0.00    -0.243 C  
HETATM    2  S   UNL     1     -10.895  11.928  68.228  1.00  0.00    -0.240 S  
HETATM    3  O   UNL     1      -9.485  11.268  68.741  1.00  0.00    -0.187 OA 
HETATM    4  O   UNL     1     -11.351  12.864  69.233  1.00  0.00    -0.261 OA 
HETATM    5  O   UNL     1     -11.739  10.855  67.741  1.00  0.00    -0.569 OA 
ENDROOT
BRANCH   3   6
HETATM    6  C   UNL     1      -9.616  10.451  69.909  1.00  0.00     0.069 C  
BRANCH   6   7
HETATM    7  C   UNL     1      -8.546   9.356  69.969  1.00  0.00    -0.203 C  
HETATM    8  O   UNL     1      -7.425   9.821  70.746  1.00  0.00    -0.295 OA 
HETATM    9  H   UNL     1      -6.762   9.141  70.783  1.00  0.00     0.000 HD 
BRANCH   7  10
HETATM   10  C   UNL     1      -9.064   8.075  70.658  1.00  0.00    -0.153 C  
HETATM   11  H   UNL     1     -10.443   7.643  72.001  1.00  0.00     0.000 HD 
HETATM   12  O   UNL     1     -10.124   8.431  71.577  1.00  0.00    -0.193 OA 
BRANCH  10  13
HETATM   13  C   UNL     1      -9.635   6.986  69.730  1.00  0.00    -0.151 C  
HETATM   14  O   UNL     1     -10.676   7.609  68.949  1.00  0.00    -0.329 OA 
HETATM   15  H   UNL     1     -11.028   6.937  68.377  1.00  0.00     0.000 HD 
BRANCH  13  16
HETATM   16  C   UNL     1     -10.198   5.739  70.434  1.00  0.00    -0.224 C  
HETATM   17  H   UNL     1     -11.429   5.398  71.920  1.00  0.00     0.000 HD 
HETATM   18  O   UNL     1     -11.082   6.168  71.486  1.00  0.00    -0.266 OA 
BRANCH  16  19
HETATM   19  C   UNL     1      -9.108   4.826  71.009  1.00  0.00    -0.132 C  
BRANCH  19  20
HETATM   20  O   UNL     1      -9.749   3.701  71.624  1.00  0.00    -0.149 OA 
HETATM   21  S   UNL     1      -9.276   3.331  73.135  1.00  0.00    -0.090 S  
HETATM   22  C   UNL     1     -10.356   1.941  73.382  1.00  0.00    -0.109 C  
HETATM   23  O   UNL     1      -9.682   4.404  74.020  1.00  0.00    -0.115 OA 
HETATM   24  O   UNL     1      -7.910   2.852  73.080  1.00  0.00    -0.053 OA 
ENDBRANCH  19  20
ENDBRANCH  16  19
ENDBRANCH  13  16
ENDBRANCH  10  13
ENDBRANCH   7  10
ENDBRANCH   6   7
ENDBRANCH   3   6
TORSDOF 7
ENDMDL
MODEL      397
REMARK 921   NORMALIZED FREE ENERGY PREDICTED BY IDOCK:   -1.46 KCAL/MOL
REMARK 922        TOTAL FREE ENERGY PREDICTED BY IDOCK:   -3.31 KCAL/MOL
REMARK 923 INTER-LIGAND FREE ENERGY PREDICTED BY IDOCK:   -3.32 KCAL/MOL
REMARK 924 INTRA-LIGAND FREE ENERGY PREDICTED BY IDOCK:    0.02 KCAL/MOL
REMARK 927      BINDING AFFINITY PREDICTED BY RF-SCORE:    0.00 PKD
ROOT
HETATM    1  C   UNL     1      -9.165  12.383  66.977  1.00  0.00    -0.208 C  
HETATM    2  S   UNL     1      -8.616  11.272  68.247  1.00  0.00    -0.158 S  
HETATM    3  O   UNL     1      -8.271   9.961  67.325  1.00  0.00    -0.119 OA 
HETATM    4  O   UNL     1      -7.377  11.780  68.796  1.00  0.00    -0.109 OA 
HETATM    5  O   UNL     1      -9.748  10.940  69.088  1.00  0.00    -0.193 OA 
ENDROOT
BRANCH   3   6
HETATM    6  C   UNL     1      -7.764   8.846  68.065  1.00  0.00    -0.101 C  
BRANCH   6   7
HETATM    7  C   UNL     1      -8.780   7.703  68.152  1.00  0.00    -0.122 C  
HETATM    8  O   UNL     1      -9.583   7.861  69.338  1.00  0.00    -0.160 OA 
HETATM    9  H   UNL     1     -10.213   7.152  69.391  1.00  0.00     0.000 HD 
BRANCH   7  10
HETATM   10  C   UNL     1      -9.754   7.700  66.954  1.00  0.00    -0.213 C  
HETATM   11  H   UNL     1      -9.589   7.706  64.988  1.00  0.00     0.000 HD 
HETATM   12  O   UNL     1      -8.989   7.708  65.725  1.00  0.00    -0.145 OA 
BRANCH  10  13
HETATM   13  C   UNL     1     -10.720   6.503  66.863  1.00  0.00    -0.333 C  
HETATM   14  O   UNL     1     -11.652   6.637  67.956  1.00  0.00    -0.574 OA 
HETATM   15  H   UNL     1     -12.246   5.899  67.901  1.00  0.00     0.000 HD 
BRANCH  13  16
HETATM   16  C   UNL     1     -10.063   5.112  66.916  1.00  0.00    -0.226 C  
HETATM   17  H   UNL     1      -8.480   4.336  67.772  1.00  0.00     0.000 HD 
HETATM   18  O   UNL     1      -8.885   5.194  67.739  1.00  0.00    -0.106 OA 
BRANCH  16  19
HETATM   19  C   UNL     1      -9.694   4.566  65.532  1.00  0.00    -0.195 C  
BRANCH  19  20
HETATM   20  O   UNL     1      -8.265   4.574  65.417  1.00  0.00    -0.108 OA 
HETATM   21  S   UNL     1      -7.548   3.137  65.155  1.00  0.00    -0.081 S  
HETATM   22  C   UNL     1      -5.872   3.724  65.087  1.00  0.00    -0.022 C  
HETATM   23  O   UNL     1      -7.934   2.664  63.841  1.00  0.00    -0.079 OA 
HETATM   24  O   UNL     1      -7.707   2.326  66.344  1.00  0.00    -0.070 OA 
ENDBRANCH  19  20
ENDBRANCH  16  19
ENDBRANCH  13  16
ENDBRANCH  10  13
ENDBRANCH   7  10
ENDBRANCH   6   7
ENDBRANCH   3   6
TORSDOF 7
ENDMDL
MODEL      398
REMARK 921   NORMALIZED FREE ENERGY PREDICTED BY IDOCK:   -1.43 KCAL/MOL
REMARK 922        TOTAL FREE ENERGY PREDICTED BY IDOCK:   -3.27 KCAL/MOL
REMARK 923 INTER-LIGAND FREE ENERGY PREDICTED BY IDOCK:   -3.38 KCAL/MOL
REMARK 924 INTRA-LIGAND FREE ENERGY PREDICTED BY IDOCK:    0.11 KCAL/MOL
REMARK 927      BINDING AFFINITY PREDICTED BY RF-SCORE:    0.00 PKD
ROOT
HETATM    1  C   UNL     1      -8.887  12.277  68.112  1.00  0.00    -0.187 C  
HETATM    2  S   UNL     1      -8.607  10.548  68.393  1.00  0.00    -0.139 S  
HETATM    3  O   UNL     1      -7.784  10.183  67.023  1.00  0.00    -0.095 OA 
HETATM    4  O   UNL     1      -7.705  10.405  69.515  1.00  0.00    -0.140 OA 
HETATM    5  O   UNL     1      -9.883   9.862  68.342  1.00  0.00    -0.147 OA 
ENDROOT
BRANCH   3   6
HETATM    6  C   UNL     1      -7.374   8.815  66.936  1.00  0.00    -0.079 C  
BRANCH   6   7
HETATM    7  C   UNL     1      -8.568   7.860  66.842  1.00  0.00    -0.129 C  
HETATM    8  O   UNL     1      -9.339   8.169  65.664  1.00  0.00    -0.413 OA 
HETATM    9  H   UNL     1     -10.080   7.576  65.606  1.00  0.00     0.000 HD 
BRANCH   7  10
HETATM   10  C   UNL     1      -8.124   6.387  66.708  1.00  0.00    -0.109 C  
HETATM   11  H   UNL     1      -6.856   5.195  67.638  1.00  0.00     0.000 HD 
HETATM   12  O   UNL     1      -7.129   6.102  67.720  1.00  0.00    -0.076 OA 
BRANCH  10  13
HETATM   13  C   UNL     1      -9.229   5.326  66.867  1.00  0.00    -0.121 C  
HETATM   14  O   UNL     1      -9.797   5.118  65.556  1.00  0.00    -0.334 OA 
HETATM   15  H   UNL     1     -10.478   4.464  65.654  1.00  0.00     0.000 HD 
BRANCH  13  16
HETATM   16  C   UNL     1     -10.349   5.674  67.862  1.00  0.00    -0.205 C  
HETATM   17  H   UNL     1     -11.934   6.826  67.850  1.00  0.00     0.000 HD 
HETATM   18  O   UNL     1     -11.243   6.612  67.235  1.00  0.00    -0.366 OA 
BRANCH  16  19
HETATM   19  C   UNL     1      -9.826   6.254  69.181  1.00  0.00    -0.144 C  
BRANCH  19  20
HETATM   20  O   UNL     1     -10.208   5.366  70.241  1.00  0.00    -0.224 OA 
HETATM   21  S   UNL     1      -9.008   4.549  70.974  1.00  0.00    -0.126 S  
HETATM   22  C   UNL     1     -10.011   3.667  72.146  1.00  0.00    -0.168 C  
HETATM   23  O   UNL     1      -8.177   5.497  71.688  1.00  0.00    -0.115 OA 
HETATM   24  O   UNL     1      -8.459   3.601  70.027  1.00  0.00    -0.058 OA 
ENDBRANCH  19  20
ENDBRANCH  16  19
ENDBRANCH  13  16
ENDBRANCH  10  13
ENDBRANCH   7  10
ENDBRANCH   6   7
ENDBRANCH   3   6
TORSDOF 7
ENDMDL
MODEL      399
REMARK 921   NORMALIZED FREE ENERGY PREDICTED BY IDOCK:   -1.10 KCAL/MOL
REMARK 922        TOTAL FREE ENERGY PREDICTED BY IDOCK:   -2.79 KCAL/MOL
REMARK 923 INTER-LIGAND FREE ENERGY PREDICTED BY IDOCK:   -3.17 KCAL/MOL
REMARK 924 INTRA-LIGAND FREE ENERGY PREDICTED BY IDOCK:    0.37 KCAL/MOL
REMARK 927      BINDING AFFINITY PREDICTED BY RF-SCORE:    0.00 PKD
ROOT
HETATM    1  C   UNL     1     -11.282   8.354  72.564  1.00  0.00    -0.336 C  
HETATM    2  S   UNL     1     -10.793   6.677  72.880  1.00  0.00    -0.262 S  
HETATM    3  O   UNL     1      -9.539   6.562  71.830  1.00  0.00    -0.154 OA 
HETATM    4  O   UNL     1     -10.266   6.599  74.226  1.00  0.00    -0.349 OA 
HETATM    5  O   UNL     1     -11.845   5.796  72.416  1.00  0.00    -0.293 OA 
ENDROOT
BRANCH   3   6
HETATM    6  C   UNL     1      -8.880   5.292  71.846  1.00  0.00    -0.135 C  
BRANCH   6   7
HETATM    7  C   UNL     1      -9.064   4.531  70.529  1.00  0.00    -0.115 C  
HETATM    8  O   UNL     1     -10.394   4.760  70.023  1.00  0.00    -0.249 OA 
HETATM    9  H   UNL     1     -10.507   4.288  69.205  1.00  0.00     0.000 HD 
BRANCH   7  10
HETATM   10  C   UNL     1      -8.084   5.015  69.438  1.00  0.00    -0.079 C  
HETATM   11  H   UNL     1      -6.805   4.167  68.199  1.00  0.00     0.000 HD 
HETATM   12  O   UNL     1      -7.407   3.869  68.871  1.00  0.00    -0.053 OA 
BRANCH  10  13
HETATM   13  C   UNL     1      -8.706   5.787  68.258  1.00  0.00    -0.111 C  
HETATM   14  O   UNL     1      -9.499   6.849  68.828  1.00  0.00    -0.137 OA 
HETATM   15  H   UNL     1      -9.882   7.325  68.101  1.00  0.00     0.000 HD 
BRANCH  13  16
HETATM   16  C   UNL     1      -9.576   4.954  67.301  1.00  0.00    -0.155 C  
HETATM   17  H   UNL     1     -10.033   3.058  67.106  1.00  0.00     0.000 HD 
HETATM   18  O   UNL     1      -9.495   3.572  67.697  1.00  0.00    -0.197 OA 
BRANCH  16  19
HETATM   19  C   UNL     1      -9.166   5.099  65.831  1.00  0.00    -0.158 C  
BRANCH  19  20
HETATM   20  O   UNL     1      -8.248   6.196  65.731  1.00  0.00    -0.124 OA 
HETATM   21  S   UNL     1      -7.231   6.181  64.462  1.00  0.00    -0.068 S  
HETATM   22  C   UNL     1      -6.386   7.702  64.825  1.00  0.00    -0.044 C  
HETATM   23  O   UNL     1      -8.006   6.352  63.250  1.00  0.00    -0.114 OA 
HETATM   24  O   UNL     1      -6.304   5.083  64.636  1.00  0.00    -0.032 OA 
ENDBRANCH  19  20
ENDBRANCH  16  19
ENDBRANCH  13  16
ENDBRANCH  10  13
ENDBRANCH   7  10
ENDBRANCH   6   7
ENDBRANCH   3   6
TORSDOF 7
ENDMDL
MODEL      400
REMARK 921   NORMALIZED FREE ENERGY PREDICTED BY IDOCK:   -0.88 KCAL/MOL
REMARK 922        TOTAL FREE ENERGY PREDICTED BY IDOCK:   -2.48 KCAL/MOL
REMARK 923 INTER-LIGAND FREE ENERGY PREDICTED BY IDOCK:   -3.42 KCAL/MOL
REMARK 924 INTRA-LIGAND FREE ENERGY PREDICTED BY IDOCK:    0.94 KCAL/MOL
REMARK 927      BINDING AFFINITY PREDICTED BY RF-SCORE:    0.00 PKD
ROOT
HETATM    1  C   UNL     1     -11.491  16.338  71.276  1.00  0.00    -0.311 C  
HETATM    2  S   UNL     1     -12.524  14.958  70.854  1.00  0.00    -0.362 S  
HETATM    3  O   UNL     1     -11.418  14.021  70.088  1.00  0.00    -0.229 OA 
HETATM    4  O   UNL     1     -12.917  14.289  72.076  1.00  0.00    -0.322 OA 
HETATM    5  O   UNL     1     -13.495  15.394  69.872  1.00  0.00     0.294 OA 
ENDROOT
BRANCH   3   6
HETATM    6  C   UNL     1     -11.937  12.772  69.620  1.00  0.00    -0.288 C  
BRANCH   6   7
HETATM    7  C   UNL     1     -11.742  12.595  68.112  1.00  0.00    -0.347 C  
HETATM    8  O   UNL     1     -10.564  13.313  67.692  1.00  0.00    -0.232 OA 
HETATM    9  H   UNL     1     -10.443  13.203  66.756  1.00  0.00     0.000 HD 
BRANCH   7  10
HETATM   10  C   UNL     1     -11.523  11.117  67.723  1.00  0.00    -0.272 C  
HETATM   11  H   UNL     1     -11.601  10.058  66.061  1.00  0.00     0.000 HD 
HETATM   12  O   UNL     1     -11.736  10.968  66.300  1.00  0.00     0.001 OA 
BRANCH  10  13
HETATM   13  C   UNL     1     -10.129  10.533  68.024  1.00  0.00    -0.165 C  
HETATM   14  O   UNL     1      -9.584  11.300  69.117  1.00  0.00    -0.394 OA 
HETATM   15  H   UNL     1      -8.725  10.940  69.302  1.00  0.00     0.000 HD 
BRANCH  13  16
HETATM   16  C   UNL     1      -9.137  10.539  66.847  1.00  0.00    -0.147 C  
HETATM   17  H   UNL     1      -9.149   9.900  64.994  1.00  0.00     0.000 HD 
HETATM   18  O   UNL     1      -9.762   9.896  65.720  1.00  0.00    -0.226 OA 
BRANCH  16  19
HETATM   19  C   UNL     1      -7.810   9.844  67.173  1.00  0.00    -0.099 C  
BRANCH  19  20
HETATM   20  O   UNL     1      -7.051   9.743  65.961  1.00  0.00    -0.094 OA 
HETATM   21  S   UNL     1      -6.472   8.270  65.586  1.00  0.00    -0.052 S  
HETATM   22  C   UNL     1      -5.673   8.717  64.063  1.00  0.00    -0.066 C  
HETATM   23  O   UNL     1      -7.590   7.397  65.292  1.00  0.00    -0.086 OA 
HETATM   24  O   UNL     1      -5.455   7.921  66.557  1.00  0.00    -0.027 OA 
ENDBRANCH  19  20
ENDBRANCH  16  19
ENDBRANCH  13  16
ENDBRANCH  10  13
ENDBRANCH   7  10
ENDBRANCH   6   7
ENDBRANCH   3   6
TORSDOF 7
ENDMDL
MODEL      401
REMARK 921   NORMALIZED FREE ENERGY PREDICTED BY IDOCK:    0.53 KCAL/MOL
REMARK 922        TOTAL FREE ENERGY PREDICTED BY IDOCK:   -0.50 KCAL/MOL
REMARK 923 INTER-LIGAND FREE ENERGY PREDICTED BY IDOCK:   -2.24 KCAL/MOL
REMARK 924 INTRA-LIGAND FREE ENERGY PREDICTED BY IDOCK:    1.74 KCAL/MOL
REMARK 927      BINDING AFFINITY PREDICTED BY RF-SCORE:    0.00 PKD
ROOT
HETATM    1  C   UNL     1      -6.859  12.317  69.720  1.00  0.00     0.218 C  
HETATM    2  S   UNL     1      -6.467  13.859  68.933  1.00  0.00    -0.105 S  
HETATM    3  O   UNL     1      -7.833  14.066  68.052  1.00  0.00    -0.125 OA 
HETATM    4  O   UNL     1      -6.419  14.892  69.946  1.00  0.00    -0.150 OA 
HETATM    5  O   UNL     1      -5.371  13.638  68.011  1.00  0.00    -0.103 OA 
ENDROOT
BRANCH   3   6
HETATM    6  C   UNL     1      -7.855  15.273  67.284  1.00  0.00    -0.209 C  
BRANCH   6   7
HETATM    7  C   UNL     1      -8.501  16.432  68.049  1.00  0.00    -0.183 C  
HETATM    8  O   UNL     1      -8.117  17.682  67.444  1.00  0.00    -0.203 OA 
HETATM    9  H   UNL     1      -8.519  18.401  67.919  1.00  0.00     0.000 HD 
BRANCH   7  10
HETATM   10  C   UNL     1     -10.043  16.370  68.002  1.00  0.00    -0.248 C  
HETATM   11  H   UNL     1     -11.479  17.392  67.116  1.00  0.00     0.000 HD 
HETATM   12  O   UNL     1     -10.530  17.430  67.145  1.00  0.00    -0.332 OA 
BRANCH  10  13
HETATM   13  C   UNL     1     -10.656  15.060  67.472  1.00  0.00    -0.265 C  
HETATM   14  O   UNL     1     -11.820  15.427  66.703  1.00  0.00     0.029 OA 
HETATM   15  H   UNL     1     -12.199  14.620  66.377  1.00  0.00     0.000 HD 
BRANCH  13  16
HETATM   16  C   UNL     1     -11.054  14.030  68.544  1.00  0.00    -0.257 C  
HETATM   17  H   UNL     1     -10.160  12.557  69.479  1.00  0.00     0.000 HD 
HETATM   18  O   UNL     1      -9.914  13.193  68.817  1.00  0.00    -0.157 OA 
BRANCH  16  19
HETATM   19  C   UNL     1     -12.250  13.164  68.135  1.00  0.00    -0.028 C  
BRANCH  19  20
HETATM   20  O   UNL     1     -12.223  13.011  66.710  1.00  0.00    -0.368 OA 
HETATM   21  S   UNL     1     -11.336  11.778  66.127  1.00  0.00    -0.207 S  
HETATM   22  C   UNL     1     -11.664  12.052  64.402  1.00  0.00    -0.320 C  
HETATM   23  O   UNL     1     -11.958  10.533  66.532  1.00  0.00     0.984 OA 
HETATM   24  O   UNL     1      -9.939  12.061  66.385  1.00  0.00    -0.210 OA 
ENDBRANCH  19  20
ENDBRANCH  16  19
ENDBRANCH  13  16
ENDBRANCH  10  13
ENDBRANCH   7  10
ENDBRANCH   6   7
ENDBRANCH   3   6
TORSDOF 7
ENDMDL
MODEL      402
REMARK 921   NORMALIZED FREE ENERGY PREDICTED BY IDOCK:    0.61 KCAL/MOL
REMARK 922        TOTAL FREE ENERGY PREDICTED BY IDOCK:   -0.38 KCAL/MOL
REMARK 923 INTER-LIGAND FREE ENERGY PREDICTED BY IDOCK:   -1.75 KCAL/MOL
REMARK 924 INTRA-LIGAND FREE ENERGY PREDICTED BY IDOCK:    1.37 KCAL/MOL
REMARK 927      BINDING AFFINITY PREDICTED BY RF-SCORE:    0.00 PKD
ROOT
HETATM    1  C   UNL     1     -11.508  16.293  71.195  1.00  0.00    -0.314 C  
HETATM    2  S   UNL     1     -12.571  14.914  70.851  1.00  0.00    -0.371 S  
HETATM    3  O   UNL     1     -11.489  13.917  70.127  1.00  0.00    -0.210 OA 
HETATM    4  O   UNL     1     -12.968  14.316  72.108  1.00  0.00    -0.337 OA 
HETATM    5  O   UNL     1     -13.541  15.319  69.854  1.00  0.00     0.509 OA 
ENDROOT
BRANCH   3   6
HETATM    6  C   UNL     1     -12.036  12.657  69.727  1.00  0.00    -0.295 C  
BRANCH   6   7
HETATM    7  C   UNL     1     -11.851  12.398  68.229  1.00  0.00    -0.309 C  
HETATM    8  O   UNL     1     -10.638  13.031  67.777  1.00  0.00    -0.220 OA 
HETATM    9  H   UNL     1     -10.523  12.871  66.847  1.00  0.00     0.000 HD 
BRANCH   7  10
HETATM   10  C   UNL     1     -11.712  10.893  67.912  1.00  0.00    -0.068 C  
HETATM   11  H   UNL     1     -11.874   9.758  66.307  1.00  0.00     0.000 HD 
HETATM   12  O   UNL     1     -11.960  10.684  66.502  1.00  0.00     0.785 OA 
BRANCH  10  13
HETATM   13  C   UNL     1     -10.342  10.257  68.216  1.00  0.00    -0.181 C  
HETATM   14  O   UNL     1      -9.733  11.057  69.251  1.00  0.00    -0.392 OA 
HETATM   15  H   UNL     1      -8.889  10.665  69.439  1.00  0.00     0.000 HD 
BRANCH  13  16
HETATM   16  C   UNL     1      -9.379  10.145  67.021  1.00  0.00    -0.154 C  
HETATM   17  H   UNL     1      -7.892  11.205  66.308  1.00  0.00     0.000 HD 
HETATM   18  O   UNL     1      -8.487  11.275  67.046  1.00  0.00    -0.140 OA 
BRANCH  16  19
HETATM   19  C   UNL     1     -10.099  10.080  65.669  1.00  0.00    -0.251 C  
BRANCH  19  20
HETATM   20  O   UNL     1      -9.111  10.166  64.634  1.00  0.00    -0.188 OA 
HETATM   21  S   UNL     1      -9.360  11.288  63.482  1.00  0.00    -0.175 S  
HETATM   22  C   UNL     1      -7.895  10.968  62.528  1.00  0.00    -0.010 C  
HETATM   23  O   UNL     1      -9.248  12.600  64.087  1.00  0.00     0.470 OA 
HETATM   24  O   UNL     1     -10.516  10.893  62.705  1.00  0.00     0.097 OA 
ENDBRANCH  19  20
ENDBRANCH  16  19
ENDBRANCH  13  16
ENDBRANCH  10  13
ENDBRANCH   7  10
ENDBRANCH   6   7
ENDBRANCH   3   6
TORSDOF 7
ENDMDL
MODEL      403
REMARK 921   NORMALIZED FREE ENERGY PREDICTED BY IDOCK:   15.50 KCAL/MOL
REMARK 922        TOTAL FREE ENERGY PREDICTED BY IDOCK:   20.59 KCAL/MOL
REMARK 923 INTER-LIGAND FREE ENERGY PREDICTED BY IDOCK:   19.42 KCAL/MOL
REMARK 924 INTRA-LIGAND FREE ENERGY PREDICTED BY IDOCK:    1.17 KCAL/MOL
REMARK 927      BINDING AFFINITY PREDICTED BY RF-SCORE:    0.00 PKD
ROOT
HETATM    1  C   UNL     1      -9.409  16.502  71.482  1.00  0.00     6.472 C  
HETATM    2  S   UNL     1      -9.922  14.810  71.323  1.00  0.00     2.810 S  
HETATM    3  O   UNL     1      -8.772  14.277  70.284  1.00  0.00     1.345 OA 
HETATM    4  O   UNL     1      -9.725  14.150  72.596  1.00  0.00     5.928 OA 
HETATM    5  O   UNL     1     -11.196  14.780  70.633  1.00  0.00    -0.224 OA 
ENDROOT
BRANCH   3   6
HETATM    6  C   UNL     1      -8.887  12.891  69.949  1.00  0.00     2.991 C  
BRANCH   6   7
HETATM    7  C   UNL     1      -8.890  12.662  68.435  1.00  0.00    -0.119 C  
HETATM    8  O   UNL     1      -7.931  13.540  67.813  1.00  0.00    -0.138 OA 
HETATM    9  H   UNL     1      -7.933  13.398  66.874  1.00  0.00     0.000 HD 
BRANCH   7  10
HETATM   10  C   UNL     1      -8.477  11.221  68.065  1.00  0.00    -0.138 C  
HETATM   11  H   UNL     1      -8.956   9.921  66.660  1.00  0.00     0.000 HD 
HETATM   12  O   UNL     1      -9.210  10.808  66.887  1.00  0.00    -0.154 OA 
BRANCH  10  13
HETATM   13  C   UNL     1      -6.984  10.998  67.753  1.00  0.00    -0.080 C  
HETATM   14  O   UNL     1      -6.242  11.864  68.637  1.00  0.00    -0.051 OA 
HETATM   15  H   UNL     1      -5.322  11.728  68.445  1.00  0.00     0.000 HD 
BRANCH  13  16
HETATM   16  C   UNL     1      -6.561  11.265  66.298  1.00  0.00    -0.018 C  
HETATM   17  H   UNL     1      -7.139  12.467  64.862  1.00  0.00     0.000 HD 
HETATM   18  O   UNL     1      -7.401  12.303  65.760  1.00  0.00     1.350 OA 
BRANCH  16  19
HETATM   19  C   UNL     1      -6.638  10.018  65.409  1.00  0.00    -0.110 C  
BRANCH  19  20
HETATM   20  O   UNL     1      -7.520  10.307  64.315  1.00  0.00    -0.136 OA 
HETATM   21  S   UNL     1      -8.224   9.031  63.592  1.00  0.00    -0.176 S  
HETATM   22  C   UNL     1      -9.164   9.937  62.387  1.00  0.00    -0.284 C  
HETATM   23  O   UNL     1      -9.136   8.415  64.534  1.00  0.00     0.245 OA 
HETATM   24  O   UNL     1      -7.197   8.274  62.906  1.00  0.00    -0.092 OA 
ENDBRANCH  19  20
ENDBRANCH  16  19
ENDBRANCH  13  16
ENDBRANCH  10  13
ENDBRANCH   7  10
ENDBRANCH   6   7
ENDBRANCH   3   6
TORSDOF 7
ENDMDL
