MODEL        1
REMARK 921   NORMALIZED FREE ENERGY PREDICTED BY IDOCK:   -5.25 KCAL/MOL
REMARK 922        TOTAL FREE ENERGY PREDICTED BY IDOCK:   -7.09 KCAL/MOL
REMARK 923 INTER-LIGAND FREE ENERGY PREDICTED BY IDOCK:   -6.78 KCAL/MOL
REMARK 924 INTRA-LIGAND FREE ENERGY PREDICTED BY IDOCK:   -0.31 KCAL/MOL
REMARK 927      BINDING AFFINITY PREDICTED BY RF-SCORE:    0.00 PKD
ROOT
HETATM    1  O   UNL     1      -9.491   9.037  62.527  1.00  0.00    -0.492 OA 
HETATM    2  C   UNL     1      -9.280  10.431  62.768  1.00  0.00    -0.305 C  
HETATM    3  H   UNL     1      -8.968   8.782  61.775  1.00  0.00     0.000 HD 
ENDROOT
BRANCH   2   4
HETATM    4  C   UNL     1     -10.122  10.842  63.979  1.00  0.00    -0.358 C  
HETATM    5  H   UNL     1      -9.760  11.481  65.798  1.00  0.00     0.000 HD 
HETATM    6  O   UNL     1      -9.238  11.225  65.047  1.00  0.00    -0.203 OA 
BRANCH   4   7
HETATM    7  C   UNL     1     -11.125  11.980  63.678  1.00  0.00    -0.452 C  
HETATM    8  O   UNL     1     -12.355  11.409  63.193  1.00  0.00    -0.895 OA 
HETATM    9  H   UNL     1     -12.971  12.108  63.008  1.00  0.00     0.000 HD 
BRANCH   7  10
HETATM   10  C   UNL     1     -11.449  12.863  64.911  1.00  0.00    -0.315 C  
HETATM   11  H   UNL     1     -12.447  12.695  66.621  1.00  0.00     0.000 HD 
HETATM   12  O   UNL     1     -12.248  12.154  65.865  1.00  0.00    -0.604 OA 
BRANCH  10  13
HETATM   13  C   UNL     1     -12.154  14.176  64.529  1.00  0.00    -0.468 C  
HETATM   14  H   UNL     1     -13.029  14.912  62.929  1.00  0.00     0.000 HD 
HETATM   15  O   UNL     1     -12.593  14.101  63.164  1.00  0.00    -0.686 OA 
BRANCH  13  16
HETATM   16  C   UNL     1     -11.233  15.399  64.718  1.00  0.00    -0.395 C  
HETATM   17  O   UNL     1     -11.573  16.459  63.823  1.00  0.00    -1.605 OA 
HETATM   18  H   UNL     1     -11.006  17.213  63.940  1.00  0.00     0.000 HD 
ENDBRANCH  13  16
ENDBRANCH  10  13
ENDBRANCH   7  10
ENDBRANCH   4   7
ENDBRANCH   2   4
TORSDOF 5
ENDMDL
MODEL        2
REMARK 921   NORMALIZED FREE ENERGY PREDICTED BY IDOCK:   -5.17 KCAL/MOL
REMARK 922        TOTAL FREE ENERGY PREDICTED BY IDOCK:   -6.99 KCAL/MOL
REMARK 923 INTER-LIGAND FREE ENERGY PREDICTED BY IDOCK:   -6.11 KCAL/MOL
REMARK 924 INTRA-LIGAND FREE ENERGY PREDICTED BY IDOCK:   -0.88 KCAL/MOL
REMARK 927      BINDING AFFINITY PREDICTED BY RF-SCORE:    0.00 PKD
ROOT
HETATM    1  O   UNL     1      -9.413  12.060  63.161  1.00  0.00    -0.637 OA 
HETATM    2  C   UNL     1     -10.603  11.272  63.267  1.00  0.00    -0.255 C  
HETATM    3  H   UNL     1      -8.695  11.485  62.924  1.00  0.00     0.000 HD 
ENDROOT
BRANCH   2   4
HETATM    4  C   UNL     1     -11.760  12.198  63.650  1.00  0.00    -0.498 C  
HETATM    5  H   UNL     1     -13.699  12.231  63.354  1.00  0.00     0.000 HD 
HETATM    6  O   UNL     1     -12.981  11.656  63.116  1.00  0.00    -0.477 OA 
BRANCH   4   7
HETATM    7  C   UNL     1     -11.895  12.423  65.174  1.00  0.00    -0.388 C  
HETATM    8  O   UNL     1     -10.770  11.819  65.841  1.00  0.00    -0.264 OA 
HETATM    9  H   UNL     1     -10.853  11.956  66.777  1.00  0.00     0.000 HD 
BRANCH   7  10
HETATM   10  C   UNL     1     -11.955  13.919  65.577  1.00  0.00    -0.383 C  
HETATM   11  H   UNL     1     -13.153  15.477  65.281  1.00  0.00     0.000 HD 
HETATM   12  O   UNL     1     -13.115  14.560  65.034  1.00  0.00    -0.530 OA 
BRANCH  10  13
HETATM   13  C   UNL     1     -10.697  14.697  65.156  1.00  0.00    -0.414 C  
HETATM   14  H   UNL     1      -8.881  14.960  65.862  1.00  0.00     0.000 HD 
HETATM   15  O   UNL     1      -9.658  14.480  66.122  1.00  0.00    -0.298 OA 
BRANCH  13  16
HETATM   16  C   UNL     1     -10.976  16.208  65.014  1.00  0.00    -0.344 C  
HETATM   17  O   UNL     1     -11.596  16.515  63.764  1.00  0.00    -1.617 OA 
HETATM   18  H   UNL     1     -11.768  17.445  63.677  1.00  0.00     0.000 HD 
ENDBRANCH  13  16
ENDBRANCH  10  13
ENDBRANCH   7  10
ENDBRANCH   4   7
ENDBRANCH   2   4
TORSDOF 5
ENDMDL
MODEL        3
REMARK 921   NORMALIZED FREE ENERGY PREDICTED BY IDOCK:   -5.01 KCAL/MOL
REMARK 922        TOTAL FREE ENERGY PREDICTED BY IDOCK:   -6.78 KCAL/MOL
REMARK 923 INTER-LIGAND FREE ENERGY PREDICTED BY IDOCK:   -6.03 KCAL/MOL
REMARK 924 INTRA-LIGAND FREE ENERGY PREDICTED BY IDOCK:   -0.75 KCAL/MOL
REMARK 927      BINDING AFFINITY PREDICTED BY RF-SCORE:    0.00 PKD
ROOT
HETATM    1  O   UNL     1     -12.505  13.796  62.876  1.00  0.00    -1.009 OA 
HETATM    2  C   UNL     1     -12.455  12.755  63.856  1.00  0.00    -0.367 C  
HETATM    3  H   UNL     1     -12.648  13.397  62.025  1.00  0.00     0.000 HD 
ENDROOT
BRANCH   2   4
HETATM    4  C   UNL     1     -12.225  13.398  65.227  1.00  0.00    -0.440 C  
HETATM    5  H   UNL     1     -12.089  12.762  67.078  1.00  0.00     0.000 HD 
HETATM    6  O   UNL     1     -12.232  12.364  66.228  1.00  0.00    -0.620 OA 
BRANCH   4   7
HETATM    7  C   UNL     1     -10.919  14.220  65.315  1.00  0.00    -0.343 C  
HETATM    8  O   UNL     1     -10.123  13.967  64.141  1.00  0.00    -0.681 OA 
HETATM    9  H   UNL     1      -9.320  14.472  64.195  1.00  0.00     0.000 HD 
BRANCH   7  10
HETATM   10  C   UNL     1     -11.154  15.748  65.424  1.00  0.00    -0.228 C  
HETATM   11  H   UNL     1     -11.473  17.281  64.200  1.00  0.00     0.000 HD 
HETATM   12  O   UNL     1     -11.328  16.344  64.133  1.00  0.00    -0.941 OA 
BRANCH  10  13
HETATM   13  C   UNL     1     -10.019  16.470  66.171  1.00  0.00    -0.343 C  
HETATM   14  H   UNL     1      -8.158  16.070  66.664  1.00  0.00     0.000 HD 
HETATM   15  O   UNL     1      -8.859  15.625  66.203  1.00  0.00    -0.321 OA 
BRANCH  13  16
HETATM   16  C   UNL     1     -10.429  16.855  67.607  1.00  0.00    -0.332 C  
HETATM   17  O   UNL     1     -10.548  18.271  67.760  1.00  0.00    -0.408 OA 
HETATM   18  H   UNL     1     -10.801  18.508  68.644  1.00  0.00     0.000 HD 
ENDBRANCH  13  16
ENDBRANCH  10  13
ENDBRANCH   7  10
ENDBRANCH   4   7
ENDBRANCH   2   4
TORSDOF 5
ENDMDL
MODEL        4
REMARK 921   NORMALIZED FREE ENERGY PREDICTED BY IDOCK:   -4.95 KCAL/MOL
REMARK 922        TOTAL FREE ENERGY PREDICTED BY IDOCK:   -6.71 KCAL/MOL
REMARK 923 INTER-LIGAND FREE ENERGY PREDICTED BY IDOCK:   -5.89 KCAL/MOL
REMARK 924 INTRA-LIGAND FREE ENERGY PREDICTED BY IDOCK:   -0.81 KCAL/MOL
REMARK 927      BINDING AFFINITY PREDICTED BY RF-SCORE:    0.00 PKD
ROOT
HETATM    1  O   UNL     1     -12.079  11.057  68.358  1.00  0.00    -0.723 OA 
HETATM    2  C   UNL     1     -11.603  12.215  69.049  1.00  0.00    -0.319 C  
HETATM    3  H   UNL     1     -11.748  10.286  68.803  1.00  0.00     0.000 HD 
ENDROOT
BRANCH   2   4
HETATM    4  C   UNL     1     -12.137  13.458  68.330  1.00  0.00    -0.236 C  
HETATM    5  H   UNL     1     -12.427  15.341  68.794  1.00  0.00     0.000 HD 
HETATM    6  O   UNL     1     -12.096  14.571  69.240  1.00  0.00    -0.321 OA 
BRANCH   4   7
HETATM    7  C   UNL     1     -11.370  13.799  67.031  1.00  0.00    -0.326 C  
HETATM    8  O   UNL     1     -10.205  12.957  66.937  1.00  0.00    -0.237 OA 
HETATM    9  H   UNL     1      -9.734  13.167  66.139  1.00  0.00     0.000 HD 
BRANCH   7  10
HETATM   10  C   UNL     1     -12.214  13.610  65.745  1.00  0.00    -0.464 C  
HETATM   11  H   UNL     1     -13.085  12.119  64.760  1.00  0.00     0.000 HD 
HETATM   12  O   UNL     1     -12.567  12.235  65.549  1.00  0.00    -0.548 OA 
BRANCH  10  13
HETATM   13  C   UNL     1     -11.504  14.139  64.487  1.00  0.00    -0.372 C  
HETATM   14  H   UNL     1      -9.965  13.601  63.388  1.00  0.00     0.000 HD 
HETATM   15  O   UNL     1     -10.403  13.275  64.164  1.00  0.00    -0.407 OA 
BRANCH  13  16
HETATM   16  C   UNL     1     -10.999  15.584  64.677  1.00  0.00    -0.322 C  
HETATM   17  O   UNL     1     -11.582  16.476  63.725  1.00  0.00    -1.617 OA 
HETATM   18  H   UNL     1     -11.272  17.366  63.842  1.00  0.00     0.000 HD 
ENDBRANCH  13  16
ENDBRANCH  10  13
ENDBRANCH   7  10
ENDBRANCH   4   7
ENDBRANCH   2   4
TORSDOF 5
ENDMDL
MODEL        5
REMARK 921   NORMALIZED FREE ENERGY PREDICTED BY IDOCK:   -4.93 KCAL/MOL
REMARK 922        TOTAL FREE ENERGY PREDICTED BY IDOCK:   -6.69 KCAL/MOL
REMARK 923 INTER-LIGAND FREE ENERGY PREDICTED BY IDOCK:   -5.91 KCAL/MOL
REMARK 924 INTRA-LIGAND FREE ENERGY PREDICTED BY IDOCK:   -0.77 KCAL/MOL
REMARK 927      BINDING AFFINITY PREDICTED BY RF-SCORE:    0.00 PKD
ROOT
HETATM    1  O   UNL     1     -13.032  13.952  64.666  1.00  0.00    -0.654 OA 
HETATM    2  C   UNL     1     -12.473  12.688  65.033  1.00  0.00    -0.487 C  
HETATM    3  H   UNL     1     -13.429  13.865  63.807  1.00  0.00     0.000 HD 
ENDROOT
BRANCH   2   4
HETATM    4  C   UNL     1     -11.834  12.828  66.417  1.00  0.00    -0.408 C  
HETATM    5  H   UNL     1     -11.464  11.633  67.929  1.00  0.00     0.000 HD 
HETATM    6  O   UNL     1     -11.861  11.546  67.070  1.00  0.00    -0.568 OA 
BRANCH   4   7
HETATM    7  C   UNL     1     -10.390  13.380  66.380  1.00  0.00    -0.288 C  
HETATM    8  O   UNL     1      -9.834  13.156  65.069  1.00  0.00    -0.520 OA 
HETATM    9  H   UNL     1      -8.946  13.495  65.046  1.00  0.00     0.000 HD 
BRANCH   7  10
HETATM   10  C   UNL     1     -10.296  14.894  66.698  1.00  0.00    -0.283 C  
HETATM   11  H   UNL     1     -11.464  16.317  67.446  1.00  0.00     0.000 HD 
HETATM   12  O   UNL     1     -11.521  15.389  67.251  1.00  0.00    -0.286 OA 
BRANCH  10  13
HETATM   13  C   UNL     1      -9.913  15.735  65.468  1.00  0.00    -0.306 C  
HETATM   14  H   UNL     1      -8.499  17.020  65.005  1.00  0.00     0.000 HD 
HETATM   15  O   UNL     1      -8.735  16.501  65.764  1.00  0.00    -0.460 OA 
BRANCH  13  16
HETATM   16  C   UNL     1     -11.057  16.676  65.037  1.00  0.00    -0.115 C  
HETATM   17  O   UNL     1     -11.560  16.336  63.744  1.00  0.00    -1.539 OA 
HETATM   18  H   UNL     1     -12.265  16.915  63.478  1.00  0.00     0.000 HD 
ENDBRANCH  13  16
ENDBRANCH  10  13
ENDBRANCH   7  10
ENDBRANCH   4   7
ENDBRANCH   2   4
TORSDOF 5
ENDMDL
MODEL        6
REMARK 921   NORMALIZED FREE ENERGY PREDICTED BY IDOCK:   -4.90 KCAL/MOL
REMARK 922        TOTAL FREE ENERGY PREDICTED BY IDOCK:   -6.65 KCAL/MOL
REMARK 923 INTER-LIGAND FREE ENERGY PREDICTED BY IDOCK:   -6.14 KCAL/MOL
REMARK 924 INTRA-LIGAND FREE ENERGY PREDICTED BY IDOCK:   -0.51 KCAL/MOL
REMARK 927      BINDING AFFINITY PREDICTED BY RF-SCORE:    0.00 PKD
ROOT
HETATM    1  O   UNL     1     -11.110  11.402  62.968  1.00  0.00    -0.803 OA 
HETATM    2  C   UNL     1     -12.309  11.937  63.535  1.00  0.00    -0.490 C  
HETATM    3  H   UNL     1     -11.318  10.570  62.559  1.00  0.00     0.000 HD 
ENDROOT
BRANCH   2   4
HETATM    4  C   UNL     1     -11.972  13.278  64.195  1.00  0.00    -0.447 C  
HETATM    5  H   UNL     1     -12.528  15.145  63.961  1.00  0.00     0.000 HD 
HETATM    6  O   UNL     1     -12.737  14.313  63.552  1.00  0.00    -0.767 OA 
BRANCH   4   7
HETATM    7  C   UNL     1     -12.221  13.297  65.721  1.00  0.00    -0.456 C  
HETATM    8  O   UNL     1     -12.047  11.966  66.243  1.00  0.00    -0.535 OA 
HETATM    9  H   UNL     1     -12.200  11.977  67.181  1.00  0.00     0.000 HD 
BRANCH   7  10
HETATM   10  C   UNL     1     -11.274  14.252  66.492  1.00  0.00    -0.332 C  
HETATM   11  H   UNL     1     -11.429  15.834  67.684  1.00  0.00     0.000 HD 
HETATM   12  O   UNL     1     -12.010  15.248  67.211  1.00  0.00    -0.104 OA 
BRANCH  10  13
HETATM   13  C   UNL     1     -10.249  14.938  65.572  1.00  0.00    -0.374 C  
HETATM   14  H   UNL     1      -8.297  15.173  65.539  1.00  0.00     0.000 HD 
HETATM   15  O   UNL     1      -8.930  14.749  66.107  1.00  0.00    -0.205 OA 
BRANCH  13  16
HETATM   16  C   UNL     1     -10.539  16.445  65.411  1.00  0.00    -0.320 C  
HETATM   17  O   UNL     1     -11.410  16.699  64.308  1.00  0.00    -1.304 OA 
HETATM   18  H   UNL     1     -11.590  17.627  64.209  1.00  0.00     0.000 HD 
ENDBRANCH  13  16
ENDBRANCH  10  13
ENDBRANCH   7  10
ENDBRANCH   4   7
ENDBRANCH   2   4
TORSDOF 5
ENDMDL
MODEL        7
REMARK 921   NORMALIZED FREE ENERGY PREDICTED BY IDOCK:   -4.84 KCAL/MOL
REMARK 922        TOTAL FREE ENERGY PREDICTED BY IDOCK:   -6.57 KCAL/MOL
REMARK 923 INTER-LIGAND FREE ENERGY PREDICTED BY IDOCK:   -6.15 KCAL/MOL
REMARK 924 INTRA-LIGAND FREE ENERGY PREDICTED BY IDOCK:   -0.41 KCAL/MOL
REMARK 927      BINDING AFFINITY PREDICTED BY RF-SCORE:    0.00 PKD
ROOT
HETATM    1  O   UNL     1     -10.840  12.211  69.480  1.00  0.00    -0.447 OA 
HETATM    2  C   UNL     1     -11.884  12.017  68.523  1.00  0.00    -0.311 C  
HETATM    3  H   UNL     1     -11.079  11.756  70.279  1.00  0.00     0.000 HD 
ENDROOT
BRANCH   2   4
HETATM    4  C   UNL     1     -11.498  12.751  67.235  1.00  0.00    -0.337 C  
HETATM    5  H   UNL     1     -11.882  12.543  65.322  1.00  0.00     0.000 HD 
HETATM    6  O   UNL     1     -12.121  12.087  66.121  1.00  0.00    -0.582 OA 
BRANCH   4   7
HETATM    7  C   UNL     1     -11.872  14.252  67.242  1.00  0.00    -0.413 C  
HETATM    8  O   UNL     1     -12.535  14.567  68.481  1.00  0.00    -0.589 OA 
HETATM    9  H   UNL     1     -12.765  15.489  68.485  1.00  0.00     0.000 HD 
BRANCH   7  10
HETATM   10  C   UNL     1     -10.652  15.195  67.087  1.00  0.00    -0.295 C  
HETATM   11  H   UNL     1     -10.122  17.023  67.659  1.00  0.00     0.000 HD 
HETATM   12  O   UNL     1     -10.870  16.444  67.754  1.00  0.00    -0.332 OA 
BRANCH  10  13
HETATM   13  C   UNL     1     -10.291  15.459  65.615  1.00  0.00    -0.372 C  
HETATM   14  H   UNL     1      -9.475  16.924  64.588  1.00  0.00     0.000 HD 
HETATM   15  O   UNL     1      -9.699  16.762  65.497  1.00  0.00    -0.537 OA 
BRANCH  13  16
HETATM   16  C   UNL     1     -11.523  15.356  64.693  1.00  0.00    -0.337 C  
HETATM   17  O   UNL     1     -11.633  16.490  63.831  1.00  0.00    -1.598 OA 
HETATM   18  H   UNL     1     -12.392  16.426  63.263  1.00  0.00     0.000 HD 
ENDBRANCH  13  16
ENDBRANCH  10  13
ENDBRANCH   7  10
ENDBRANCH   4   7
ENDBRANCH   2   4
TORSDOF 5
ENDMDL
MODEL        8
REMARK 921   NORMALIZED FREE ENERGY PREDICTED BY IDOCK:   -4.83 KCAL/MOL
REMARK 922        TOTAL FREE ENERGY PREDICTED BY IDOCK:   -6.55 KCAL/MOL
REMARK 923 INTER-LIGAND FREE ENERGY PREDICTED BY IDOCK:   -5.98 KCAL/MOL
REMARK 924 INTRA-LIGAND FREE ENERGY PREDICTED BY IDOCK:   -0.58 KCAL/MOL
REMARK 927      BINDING AFFINITY PREDICTED BY RF-SCORE:    0.00 PKD
ROOT
HETATM    1  O   UNL     1     -12.521  13.863  63.320  1.00  0.00    -1.113 OA 
HETATM    2  C   UNL     1     -12.506  14.031  64.740  1.00  0.00    -0.365 C  
HETATM    3  H   UNL     1     -13.404  13.632  63.056  1.00  0.00     0.000 HD 
ENDROOT
BRANCH   2   4
HETATM    4  C   UNL     1     -11.082  14.402  65.165  1.00  0.00    -0.362 C  
HETATM    5  H   UNL     1      -9.278  13.724  64.799  1.00  0.00     0.000 HD 
HETATM    6  O   UNL     1     -10.162  13.494  64.535  1.00  0.00    -0.396 OA 
BRANCH   4   7
HETATM    7  C   UNL     1     -10.700  15.865  64.840  1.00  0.00    -0.341 C  
HETATM    8  O   UNL     1     -11.580  16.365  63.816  1.00  0.00    -1.605 OA 
HETATM    9  H   UNL     1     -11.345  17.264  63.616  1.00  0.00     0.000 HD 
BRANCH   7  10
HETATM   10  C   UNL     1     -10.783  16.814  66.063  1.00  0.00    -0.138 C  
HETATM   11  H   UNL     1     -10.242  18.669  66.526  1.00  0.00     0.000 HD 
HETATM   12  O   UNL     1     -10.192  18.087  65.777  1.00  0.00    -0.574 OA 
BRANCH  10  13
HETATM   13  C   UNL     1     -10.128  16.218  67.321  1.00  0.00    -0.264 C  
HETATM   14  H   UNL     1     -10.598  16.035  69.222  1.00  0.00     0.000 HD 
HETATM   15  O   UNL     1     -11.002  16.403  68.445  1.00  0.00    -0.326 OA 
BRANCH  13  16
HETATM   16  C   UNL     1      -8.754  16.856  67.612  1.00  0.00    -0.209 C  
HETATM   17  O   UNL     1      -8.881  18.051  68.386  1.00  0.00    -0.281 OA 
HETATM   18  H   UNL     1      -8.036  18.444  68.565  1.00  0.00     0.000 HD 
ENDBRANCH  13  16
ENDBRANCH  10  13
ENDBRANCH   7  10
ENDBRANCH   4   7
ENDBRANCH   2   4
TORSDOF 5
ENDMDL
MODEL        9
REMARK 921   NORMALIZED FREE ENERGY PREDICTED BY IDOCK:   -4.83 KCAL/MOL
REMARK 922        TOTAL FREE ENERGY PREDICTED BY IDOCK:   -6.55 KCAL/MOL
REMARK 923 INTER-LIGAND FREE ENERGY PREDICTED BY IDOCK:   -6.37 KCAL/MOL
REMARK 924 INTRA-LIGAND FREE ENERGY PREDICTED BY IDOCK:   -0.18 KCAL/MOL
REMARK 927      BINDING AFFINITY PREDICTED BY RF-SCORE:    0.00 PKD
ROOT
HETATM    1  O   UNL     1     -11.703  16.360  63.673  1.00  0.00    -1.520 OA 
HETATM    2  C   UNL     1     -11.070  15.483  64.609  1.00  0.00    -0.359 C  
HETATM    3  H   UNL     1     -11.254  17.196  63.696  1.00  0.00     0.000 HD 
ENDROOT
BRANCH   2   4
HETATM    4  C   UNL     1     -11.795  14.134  64.571  1.00  0.00    -0.436 C  
HETATM    5  H   UNL     1     -13.039  13.235  63.350  1.00  0.00     0.000 HD 
HETATM    6  O   UNL     1     -12.590  14.071  63.374  1.00  0.00    -0.845 OA 
BRANCH   4   7
HETATM    7  C   UNL     1     -10.844  12.917  64.648  1.00  0.00    -0.342 C  
HETATM    8  O   UNL     1      -9.703  13.156  63.801  1.00  0.00    -0.634 OA 
HETATM    9  H   UNL     1      -9.119  12.409  63.848  1.00  0.00     0.000 HD 
BRANCH   7  10
HETATM   10  C   UNL     1     -10.335  12.617  66.081  1.00  0.00    -0.256 C  
HETATM   11  H   UNL     1      -9.051  11.380  66.959  1.00  0.00     0.000 HD 
HETATM   12  O   UNL     1      -9.363  11.565  66.080  1.00  0.00    -0.205 OA 
BRANCH  10  13
HETATM   13  C   UNL     1     -11.474  12.261  67.051  1.00  0.00    -0.354 C  
HETATM   14  H   UNL     1     -12.367  13.120  68.578  1.00  0.00     0.000 HD 
HETATM   15  O   UNL     1     -11.663  13.340  67.979  1.00  0.00    -0.318 OA 
BRANCH  13  16
HETATM   16  C   UNL     1     -11.187  10.953  67.818  1.00  0.00    -0.317 C  
HETATM   17  O   UNL     1     -12.193  10.684  68.797  1.00  0.00    -0.790 OA 
HETATM   18  H   UNL     1     -12.017   9.879  69.269  1.00  0.00     0.000 HD 
ENDBRANCH  13  16
ENDBRANCH  10  13
ENDBRANCH   7  10
ENDBRANCH   4   7
ENDBRANCH   2   4
TORSDOF 5
ENDMDL
MODEL       10
REMARK 921   NORMALIZED FREE ENERGY PREDICTED BY IDOCK:   -4.79 KCAL/MOL
REMARK 922        TOTAL FREE ENERGY PREDICTED BY IDOCK:   -6.50 KCAL/MOL
REMARK 923 INTER-LIGAND FREE ENERGY PREDICTED BY IDOCK:   -5.24 KCAL/MOL
REMARK 924 INTRA-LIGAND FREE ENERGY PREDICTED BY IDOCK:   -1.26 KCAL/MOL
REMARK 927      BINDING AFFINITY PREDICTED BY RF-SCORE:    0.00 PKD
ROOT
HETATM    1  O   UNL     1      -9.652  12.365  64.043  1.00  0.00    -0.554 OA 
HETATM    2  C   UNL     1     -10.864  11.652  63.778  1.00  0.00    -0.424 C  
HETATM    3  H   UNL     1      -8.927  11.755  63.977  1.00  0.00     0.000 HD 
ENDROOT
BRANCH   2   4
HETATM    4  C   UNL     1     -12.033  12.635  63.886  1.00  0.00    -0.479 C  
HETATM    5  H   UNL     1     -13.905  12.672  63.300  1.00  0.00     0.000 HD 
HETATM    6  O   UNL     1     -13.179  12.062  63.232  1.00  0.00    -0.628 OA 
BRANCH   4   7
HETATM    7  C   UNL     1     -12.384  13.024  65.341  1.00  0.00    -0.486 C  
HETATM    8  O   UNL     1     -11.841  12.035  66.237  1.00  0.00    -0.563 OA 
HETATM    9  H   UNL     1     -12.056  12.273  67.131  1.00  0.00     0.000 HD 
BRANCH   7  10
HETATM   10  C   UNL     1     -11.840  14.413  65.760  1.00  0.00    -0.364 C  
HETATM   11  H   UNL     1     -10.631  15.806  65.020  1.00  0.00     0.000 HD 
HETATM   12  O   UNL     1     -10.965  14.954  64.763  1.00  0.00    -0.390 OA 
BRANCH  10  13
HETATM   13  C   UNL     1     -11.112  14.380  67.115  1.00  0.00    -0.312 C  
HETATM   14  H   UNL     1     -11.187  15.393  68.799  1.00  0.00     0.000 HD 
HETATM   15  O   UNL     1     -11.637  15.414  67.962  1.00  0.00    -0.344 OA 
BRANCH  13  16
HETATM   16  C   UNL     1      -9.588  14.556  66.953  1.00  0.00    -0.250 C  
HETATM   17  O   UNL     1      -8.970  13.369  66.452  1.00  0.00    -0.446 OA 
HETATM   18  H   UNL     1      -8.032  13.478  66.351  1.00  0.00     0.000 HD 
ENDBRANCH  13  16
ENDBRANCH  10  13
ENDBRANCH   7  10
ENDBRANCH   4   7
ENDBRANCH   2   4
TORSDOF 5
ENDMDL
MODEL       11
REMARK 921   NORMALIZED FREE ENERGY PREDICTED BY IDOCK:   -4.75 KCAL/MOL
REMARK 922        TOTAL FREE ENERGY PREDICTED BY IDOCK:   -6.44 KCAL/MOL
REMARK 923 INTER-LIGAND FREE ENERGY PREDICTED BY IDOCK:   -6.05 KCAL/MOL
REMARK 924 INTRA-LIGAND FREE ENERGY PREDICTED BY IDOCK:   -0.40 KCAL/MOL
REMARK 927      BINDING AFFINITY PREDICTED BY RF-SCORE:    0.00 PKD
ROOT
HETATM    1  O   UNL     1     -10.414  10.535  62.541  1.00  0.00    -0.669 OA 
HETATM    2  C   UNL     1     -10.152  11.754  63.242  1.00  0.00    -0.420 C  
HETATM    3  H   UNL     1      -9.627  10.003  62.563  1.00  0.00     0.000 HD 
ENDROOT
BRANCH   2   4
HETATM    4  C   UNL     1     -11.420  12.612  63.205  1.00  0.00    -0.306 C  
HETATM    5  H   UNL     1     -13.353  12.275  63.223  1.00  0.00     0.000 HD 
HETATM    6  O   UNL     1     -12.566  11.742  63.245  1.00  0.00    -0.561 OA 
BRANCH   4   7
HETATM    7  C   UNL     1     -11.497  13.653  64.346  1.00  0.00    -0.386 C  
HETATM    8  O   UNL     1     -12.051  14.878  63.830  1.00  0.00    -0.905 OA 
HETATM    9  H   UNL     1     -12.098  15.518  64.531  1.00  0.00     0.000 HD 
BRANCH   7  10
HETATM   10  C   UNL     1     -12.362  13.194  65.547  1.00  0.00    -0.474 C  
HETATM   11  H   UNL     1     -13.990  13.806  66.509  1.00  0.00     0.000 HD 
HETATM   12  O   UNL     1     -13.460  14.087  65.772  1.00  0.00    -0.480 OA 
BRANCH  10  13
HETATM   13  C   UNL     1     -11.546  13.050  66.844  1.00  0.00    -0.366 C  
HETATM   14  H   UNL     1     -11.574  11.878  68.422  1.00  0.00     0.000 HD 
HETATM   15  O   UNL     1     -12.077  11.967  67.622  1.00  0.00    -0.568 OA 
BRANCH  13  16
HETATM   16  C   UNL     1     -11.557  14.349  67.676  1.00  0.00    -0.370 C  
HETATM   17  O   UNL     1     -12.616  14.353  68.635  1.00  0.00    -0.542 OA 
HETATM   18  H   UNL     1     -12.622  15.153  69.148  1.00  0.00     0.000 HD 
ENDBRANCH  13  16
ENDBRANCH  10  13
ENDBRANCH   7  10
ENDBRANCH   4   7
ENDBRANCH   2   4
TORSDOF 5
ENDMDL
MODEL       12
REMARK 921   NORMALIZED FREE ENERGY PREDICTED BY IDOCK:   -4.71 KCAL/MOL
REMARK 922        TOTAL FREE ENERGY PREDICTED BY IDOCK:   -6.40 KCAL/MOL
REMARK 923 INTER-LIGAND FREE ENERGY PREDICTED BY IDOCK:   -6.20 KCAL/MOL
REMARK 924 INTRA-LIGAND FREE ENERGY PREDICTED BY IDOCK:   -0.20 KCAL/MOL
REMARK 927      BINDING AFFINITY PREDICTED BY RF-SCORE:    0.00 PKD
ROOT
HETATM    1  O   UNL     1     -12.415  13.872  63.221  1.00  0.00    -1.113 OA 
HETATM    2  C   UNL     1     -12.250  14.406  64.538  1.00  0.00    -0.463 C  
HETATM    3  H   UNL     1     -13.133  13.250  63.239  1.00  0.00     0.000 HD 
ENDROOT
BRANCH   2   4
HETATM    4  C   UNL     1     -11.092  15.408  64.509  1.00  0.00    -0.256 C  
HETATM    5  H   UNL     1     -10.870  17.293  64.013  1.00  0.00     0.000 HD 
HETATM    6  O   UNL     1     -11.588  16.671  64.031  1.00  0.00    -1.197 OA 
BRANCH   4   7
HETATM    7  C   UNL     1     -10.396  15.589  65.878  1.00  0.00    -0.347 C  
HETATM    8  O   UNL     1      -9.047  15.091  65.790  1.00  0.00    -0.468 OA 
HETATM    9  H   UNL     1      -8.619  15.201  66.631  1.00  0.00     0.000 HD 
BRANCH   7  10
HETATM   10  C   UNL     1     -10.342  17.062  66.357  1.00  0.00    -0.303 C  
HETATM   11  H   UNL     1      -9.038  18.562  66.363  1.00  0.00     0.000 HD 
HETATM   12  O   UNL     1      -9.071  17.659  66.070  1.00  0.00    -0.493 OA 
BRANCH  10  13
HETATM   13  C   UNL     1     -10.647  17.208  67.858  1.00  0.00    -0.376 C  
HETATM   14  H   UNL     1      -9.726  17.936  69.435  1.00  0.00     0.000 HD 
HETATM   15  O   UNL     1      -9.537  17.846  68.508  1.00  0.00    -0.301 OA 
BRANCH  13  16
HETATM   16  C   UNL     1     -10.934  15.846  68.522  1.00  0.00    -0.324 C  
HETATM   17  O   UNL     1     -12.210  15.831  69.165  1.00  0.00    -0.556 OA 
HETATM   18  H   UNL     1     -12.387  14.992  69.573  1.00  0.00     0.000 HD 
ENDBRANCH  13  16
ENDBRANCH  10  13
ENDBRANCH   7  10
ENDBRANCH   4   7
ENDBRANCH   2   4
TORSDOF 5
ENDMDL
MODEL       13
REMARK 921   NORMALIZED FREE ENERGY PREDICTED BY IDOCK:   -4.68 KCAL/MOL
REMARK 922        TOTAL FREE ENERGY PREDICTED BY IDOCK:   -6.36 KCAL/MOL
REMARK 923 INTER-LIGAND FREE ENERGY PREDICTED BY IDOCK:   -5.61 KCAL/MOL
REMARK 924 INTRA-LIGAND FREE ENERGY PREDICTED BY IDOCK:   -0.75 KCAL/MOL
REMARK 927      BINDING AFFINITY PREDICTED BY RF-SCORE:    0.00 PKD
ROOT
HETATM    1  O   UNL     1     -10.569  12.932  63.597  1.00  0.00    -0.488 OA 
HETATM    2  C   UNL     1     -11.992  12.943  63.749  1.00  0.00    -0.512 C  
HETATM    3  H   UNL     1     -10.311  12.078  63.272  1.00  0.00     0.000 HD 
ENDROOT
BRANCH   2   4
HETATM    4  C   UNL     1     -12.409  14.320  64.274  1.00  0.00    -0.377 C  
HETATM    5  H   UNL     1     -13.553  14.993  65.718  1.00  0.00     0.000 HD 
HETATM    6  O   UNL     1     -13.295  14.139  65.392  1.00  0.00    -0.705 OA 
BRANCH   4   7
HETATM    7  C   UNL     1     -11.215  15.217  64.676  1.00  0.00    -0.356 C  
HETATM    8  O   UNL     1     -11.295  16.461  63.952  1.00  0.00    -1.510 OA 
HETATM    9  H   UNL     1     -10.561  17.012  64.199  1.00  0.00     0.000 HD 
BRANCH   7  10
HETATM   10  C   UNL     1     -11.162  15.536  66.191  1.00  0.00    -0.102 C  
HETATM   11  H   UNL     1     -10.725  17.087  67.356  1.00  0.00     0.000 HD 
HETATM   12  O   UNL     1     -10.758  16.891  66.426  1.00  0.00    -0.220 OA 
BRANCH  10  13
HETATM   13  C   UNL     1     -10.232  14.585  66.965  1.00  0.00    -0.262 C  
HETATM   14  H   UNL     1      -8.978  13.139  66.514  1.00  0.00     0.000 HD 
HETATM   15  O   UNL     1      -9.552  13.727  66.036  1.00  0.00    -0.258 OA 
BRANCH  13  16
HETATM   16  C   UNL     1     -11.005  13.737  67.996  1.00  0.00    -0.250 C  
HETATM   17  O   UNL     1     -12.248  14.345  68.353  1.00  0.00    -0.573 OA 
HETATM   18  H   UNL     1     -12.724  13.823  68.987  1.00  0.00     0.000 HD 
ENDBRANCH  13  16
ENDBRANCH  10  13
ENDBRANCH   7  10
ENDBRANCH   4   7
ENDBRANCH   2   4
TORSDOF 5
ENDMDL
MODEL       14
REMARK 921   NORMALIZED FREE ENERGY PREDICTED BY IDOCK:   -4.67 KCAL/MOL
REMARK 922        TOTAL FREE ENERGY PREDICTED BY IDOCK:   -6.35 KCAL/MOL
REMARK 923 INTER-LIGAND FREE ENERGY PREDICTED BY IDOCK:   -6.02 KCAL/MOL
REMARK 924 INTRA-LIGAND FREE ENERGY PREDICTED BY IDOCK:   -0.33 KCAL/MOL
REMARK 927      BINDING AFFINITY PREDICTED BY RF-SCORE:    0.00 PKD
ROOT
HETATM    1  O   UNL     1     -12.535  14.231  63.421  1.00  0.00    -1.125 OA 
HETATM    2  C   UNL     1     -12.013  14.456  64.733  1.00  0.00    -0.447 C  
HETATM    3  H   UNL     1     -13.098  13.465  63.450  1.00  0.00     0.000 HD 
ENDROOT
BRANCH   2   4
HETATM    4  C   UNL     1     -11.107  15.689  64.685  1.00  0.00    -0.373 C  
HETATM    5  H   UNL     1     -11.174  17.457  63.837  1.00  0.00     0.000 HD 
HETATM    6  O   UNL     1     -11.736  16.692  63.867  1.00  0.00    -1.153 OA 
BRANCH   4   7
HETATM    7  C   UNL     1     -10.773  16.267  66.080  1.00  0.00    -0.214 C  
HETATM    8  O   UNL     1     -10.144  15.244  66.875  1.00  0.00    -0.249 OA 
HETATM    9  H   UNL     1      -9.939  15.599  67.733  1.00  0.00     0.000 HD 
BRANCH   7  10
HETATM   10  C   UNL     1      -9.830  17.497  66.032  1.00  0.00    -0.179 C  
HETATM   11  H   UNL     1      -7.906  17.865  65.700  1.00  0.00     0.000 HD 
HETATM   12  O   UNL     1      -8.484  17.112  65.730  1.00  0.00    -0.522 OA 
BRANCH  10  13
HETATM   13  C   UNL     1      -9.848  18.308  67.340  1.00  0.00    -0.316 C  
HETATM   14  H   UNL     1     -10.604  18.089  69.142  1.00  0.00     0.000 HD 
HETATM   15  O   UNL     1     -10.593  17.589  68.334  1.00  0.00    -0.370 OA 
BRANCH  13  16
HETATM   16  C   UNL     1     -10.457  19.711  67.138  1.00  0.00    -0.471 C  
HETATM   17  O   UNL     1      -9.459  20.731  67.188  1.00  0.00    -0.606 OA 
HETATM   18  H   UNL     1      -9.834  21.595  67.063  1.00  0.00     0.000 HD 
ENDBRANCH  13  16
ENDBRANCH  10  13
ENDBRANCH   7  10
ENDBRANCH   4   7
ENDBRANCH   2   4
TORSDOF 5
ENDMDL
MODEL       15
REMARK 921   NORMALIZED FREE ENERGY PREDICTED BY IDOCK:   -4.66 KCAL/MOL
REMARK 922        TOTAL FREE ENERGY PREDICTED BY IDOCK:   -6.33 KCAL/MOL
REMARK 923 INTER-LIGAND FREE ENERGY PREDICTED BY IDOCK:   -5.71 KCAL/MOL
REMARK 924 INTRA-LIGAND FREE ENERGY PREDICTED BY IDOCK:   -0.62 KCAL/MOL
REMARK 927      BINDING AFFINITY PREDICTED BY RF-SCORE:    0.00 PKD
ROOT
HETATM    1  O   UNL     1     -10.636  16.667  67.364  1.00  0.00    -0.318 OA 
HETATM    2  C   UNL     1     -10.339  16.908  65.986  1.00  0.00    -0.325 C  
HETATM    3  H   UNL     1     -10.068  17.215  67.893  1.00  0.00     0.000 HD 
ENDROOT
BRANCH   2   4
HETATM    4  C   UNL     1     -11.254  16.024  65.134  1.00  0.00    -0.189 C  
HETATM    5  H   UNL     1     -12.222  16.214  63.439  1.00  0.00     0.000 HD 
HETATM    6  O   UNL     1     -11.654  16.763  63.967  1.00  0.00    -1.195 OA 
BRANCH   4   7
HETATM    7  C   UNL     1     -10.609  14.680  64.723  1.00  0.00    -0.353 C  
HETATM    8  O   UNL     1      -9.494  14.406  65.594  1.00  0.00    -0.526 OA 
HETATM    9  H   UNL     1      -9.098  13.581  65.341  1.00  0.00     0.000 HD 
BRANCH   7  10
HETATM   10  C   UNL     1     -11.585  13.478  64.787  1.00  0.00    -0.349 C  
HETATM   11  H   UNL     1     -11.886  11.884  65.935  1.00  0.00     0.000 HD 
HETATM   12  O   UNL     1     -11.288  12.621  65.896  1.00  0.00    -0.304 OA 
BRANCH  10  13
HETATM   13  C   UNL     1     -11.591  12.651  63.489  1.00  0.00    -0.514 C  
HETATM   14  H   UNL     1     -12.930  11.684  62.422  1.00  0.00     0.000 HD 
HETATM   15  O   UNL     1     -12.926  12.195  63.223  1.00  0.00    -0.735 OA 
BRANCH  13  16
HETATM   16  C   UNL     1     -10.630  11.446  63.571  1.00  0.00    -0.402 C  
HETATM   17  O   UNL     1      -9.265  11.863  63.616  1.00  0.00    -0.500 OA 
HETATM   18  H   UNL     1      -8.673  11.122  63.667  1.00  0.00     0.000 HD 
ENDBRANCH  13  16
ENDBRANCH  10  13
ENDBRANCH   7  10
ENDBRANCH   4   7
ENDBRANCH   2   4
TORSDOF 5
ENDMDL
MODEL       16
REMARK 921   NORMALIZED FREE ENERGY PREDICTED BY IDOCK:   -4.65 KCAL/MOL
REMARK 922        TOTAL FREE ENERGY PREDICTED BY IDOCK:   -6.32 KCAL/MOL
REMARK 923 INTER-LIGAND FREE ENERGY PREDICTED BY IDOCK:   -5.93 KCAL/MOL
REMARK 924 INTRA-LIGAND FREE ENERGY PREDICTED BY IDOCK:   -0.38 KCAL/MOL
REMARK 927      BINDING AFFINITY PREDICTED BY RF-SCORE:    0.00 PKD
ROOT
HETATM    1  O   UNL     1     -10.393  10.560  62.333  1.00  0.00    -0.714 OA 
HETATM    2  C   UNL     1      -9.970  11.496  63.328  1.00  0.00    -0.409 C  
HETATM    3  H   UNL     1      -9.622  10.223  61.892  1.00  0.00     0.000 HD 
ENDROOT
BRANCH   2   4
HETATM    4  C   UNL     1     -11.214  12.039  64.037  1.00  0.00    -0.397 C  
HETATM    5  H   UNL     1     -11.898  12.049  65.876  1.00  0.00     0.000 HD 
HETATM    6  O   UNL     1     -11.126  11.712  65.436  1.00  0.00    -0.294 OA 
BRANCH   4   7
HETATM    7  C   UNL     1     -11.418  13.561  63.854  1.00  0.00    -0.250 C  
HETATM    8  O   UNL     1     -12.437  13.784  62.860  1.00  0.00    -1.009 OA 
HETATM    9  H   UNL     1     -12.561  14.719  62.747  1.00  0.00     0.000 HD 
BRANCH   7  10
HETATM   10  C   UNL     1     -11.836  14.292  65.155  1.00  0.00    -0.384 C  
HETATM   11  H   UNL     1     -13.514  14.902  66.027  1.00  0.00     0.000 HD 
HETATM   12  O   UNL     1     -13.257  14.453  65.230  1.00  0.00    -0.619 OA 
BRANCH  10  13
HETATM   13  C   UNL     1     -11.157  15.665  65.307  1.00  0.00    -0.303 C  
HETATM   14  H   UNL     1     -10.867  17.244  64.173  1.00  0.00     0.000 HD 
HETATM   15  O   UNL     1     -11.286  16.397  64.079  1.00  0.00    -0.964 OA 
BRANCH  13  16
HETATM   16  C   UNL     1      -9.668  15.531  65.685  1.00  0.00    -0.320 C  
HETATM   17  O   UNL     1      -9.160  16.735  66.262  1.00  0.00    -0.270 OA 
HETATM   18  H   UNL     1      -8.243  16.653  66.496  1.00  0.00     0.000 HD 
ENDBRANCH  13  16
ENDBRANCH  10  13
ENDBRANCH   7  10
ENDBRANCH   4   7
ENDBRANCH   2   4
TORSDOF 5
ENDMDL
MODEL       17
REMARK 921   NORMALIZED FREE ENERGY PREDICTED BY IDOCK:   -4.62 KCAL/MOL
REMARK 922        TOTAL FREE ENERGY PREDICTED BY IDOCK:   -6.28 KCAL/MOL
REMARK 923 INTER-LIGAND FREE ENERGY PREDICTED BY IDOCK:   -5.64 KCAL/MOL
REMARK 924 INTRA-LIGAND FREE ENERGY PREDICTED BY IDOCK:   -0.64 KCAL/MOL
REMARK 927      BINDING AFFINITY PREDICTED BY RF-SCORE:    0.00 PKD
ROOT
HETATM    1  O   UNL     1     -12.357  14.076  62.978  1.00  0.00    -1.101 OA 
HETATM    2  C   UNL     1     -12.285  14.284  64.391  1.00  0.00    -0.447 C  
HETATM    3  H   UNL     1     -12.237  14.914  62.546  1.00  0.00     0.000 HD 
ENDROOT
BRANCH   2   4
HETATM    4  C   UNL     1     -12.479  12.934  65.087  1.00  0.00    -0.501 C  
HETATM    5  H   UNL     1     -13.517  11.305  64.742  1.00  0.00     0.000 HD 
HETATM    6  O   UNL     1     -13.396  12.143  64.311  1.00  0.00    -0.761 OA 
BRANCH   4   7
HETATM    7  C   UNL     1     -11.160  12.158  65.312  1.00  0.00    -0.321 C  
HETATM    8  O   UNL     1     -10.070  12.907  64.741  1.00  0.00    -0.452 OA 
HETATM    9  H   UNL     1      -9.259  12.430  64.879  1.00  0.00     0.000 HD 
BRANCH   7  10
HETATM   10  C   UNL     1     -10.843  11.895  66.806  1.00  0.00    -0.266 C  
HETATM   11  H   UNL     1     -11.795  11.232  68.419  1.00  0.00     0.000 HD 
HETATM   12  O   UNL     1     -11.989  11.393  67.503  1.00  0.00    -0.626 OA 
BRANCH  10  13
HETATM   13  C   UNL     1     -10.313  13.146  67.528  1.00  0.00    -0.225 C  
HETATM   14  H   UNL     1      -8.704  13.628  68.551  1.00  0.00     0.000 HD 
HETATM   15  O   UNL     1      -9.031  12.855  68.105  1.00  0.00    -0.194 OA 
BRANCH  13  16
HETATM   16  C   UNL     1     -11.285  13.632  68.623  1.00  0.00    -0.277 C  
HETATM   17  O   UNL     1     -11.197  12.828  69.801  1.00  0.00    -0.473 OA 
HETATM   18  H   UNL     1     -11.794  13.127  70.476  1.00  0.00     0.000 HD 
ENDBRANCH  13  16
ENDBRANCH  10  13
ENDBRANCH   7  10
ENDBRANCH   4   7
ENDBRANCH   2   4
TORSDOF 5
ENDMDL
MODEL       18
REMARK 921   NORMALIZED FREE ENERGY PREDICTED BY IDOCK:   -4.61 KCAL/MOL
REMARK 922        TOTAL FREE ENERGY PREDICTED BY IDOCK:   -6.27 KCAL/MOL
REMARK 923 INTER-LIGAND FREE ENERGY PREDICTED BY IDOCK:   -5.68 KCAL/MOL
REMARK 924 INTRA-LIGAND FREE ENERGY PREDICTED BY IDOCK:   -0.58 KCAL/MOL
REMARK 927      BINDING AFFINITY PREDICTED BY RF-SCORE:    0.00 PKD
ROOT
HETATM    1  O   UNL     1     -12.446  14.234  63.242  1.00  0.00    -1.133 OA 
HETATM    2  C   UNL     1     -12.500  14.541  64.638  1.00  0.00    -0.321 C  
HETATM    3  H   UNL     1     -13.329  14.271  62.894  1.00  0.00     0.000 HD 
ENDROOT
BRANCH   2   4
HETATM    4  C   UNL     1     -11.076  14.481  65.199  1.00  0.00    -0.370 C  
HETATM    5  H   UNL     1      -9.458  13.435  64.833  1.00  0.00     0.000 HD 
HETATM    6  O   UNL     1     -10.341  13.472  64.485  1.00  0.00    -0.423 OA 
BRANCH   4   7
HETATM    7  C   UNL     1     -10.329  15.834  65.138  1.00  0.00    -0.299 C  
HETATM    8  O   UNL     1     -11.113  16.771  64.375  1.00  0.00    -1.176 OA 
HETATM    9  H   UNL     1     -10.653  17.602  64.337  1.00  0.00     0.000 HD 
BRANCH   7  10
HETATM   10  C   UNL     1     -10.048  16.451  66.531  1.00  0.00    -0.295 C  
HETATM   11  H   UNL     1     -10.914  16.506  68.319  1.00  0.00     0.000 HD 
HETATM   12  O   UNL     1     -11.086  16.127  67.465  1.00  0.00    -0.282 OA 
BRANCH  10  13
HETATM   13  C   UNL     1      -9.869  17.978  66.477  1.00  0.00    -0.353 C  
HETATM   14  H   UNL     1      -8.380  19.246  66.683  1.00  0.00     0.000 HD 
HETATM   15  O   UNL     1      -8.491  18.303  66.717  1.00  0.00    -0.244 OA 
BRANCH  13  16
HETATM   16  C   UNL     1     -10.766  18.700  67.504  1.00  0.00    -0.394 C  
HETATM   17  O   UNL     1     -10.187  18.689  68.810  1.00  0.00    -0.393 OA 
HETATM   18  H   UNL     1     -10.739  19.134  69.442  1.00  0.00     0.000 HD 
ENDBRANCH  13  16
ENDBRANCH  10  13
ENDBRANCH   7  10
ENDBRANCH   4   7
ENDBRANCH   2   4
TORSDOF 5
ENDMDL
MODEL       19
REMARK 921   NORMALIZED FREE ENERGY PREDICTED BY IDOCK:   -4.61 KCAL/MOL
REMARK 922        TOTAL FREE ENERGY PREDICTED BY IDOCK:   -6.26 KCAL/MOL
REMARK 923 INTER-LIGAND FREE ENERGY PREDICTED BY IDOCK:   -5.79 KCAL/MOL
REMARK 924 INTRA-LIGAND FREE ENERGY PREDICTED BY IDOCK:   -0.47 KCAL/MOL
REMARK 927      BINDING AFFINITY PREDICTED BY RF-SCORE:    0.00 PKD
ROOT
HETATM    1  O   UNL     1      -8.532  11.576  62.456  1.00  0.00    -0.608 OA 
HETATM    2  C   UNL     1      -9.710  11.012  63.039  1.00  0.00    -0.354 C  
HETATM    3  H   UNL     1      -7.977  10.865  62.157  1.00  0.00     0.000 HD 
ENDROOT
BRANCH   2   4
HETATM    4  C   UNL     1     -10.604  12.158  63.521  1.00  0.00    -0.458 C  
HETATM    5  H   UNL     1     -12.534  12.484  63.651  1.00  0.00     0.000 HD 
HETATM    6  O   UNL     1     -11.980  11.773  63.352  1.00  0.00    -0.474 OA 
BRANCH   4   7
HETATM    7  C   UNL     1     -10.340  12.575  64.987  1.00  0.00    -0.299 C  
HETATM    8  O   UNL     1      -9.075  12.032  65.411  1.00  0.00    -0.426 OA 
HETATM    9  H   UNL     1      -8.913  12.287  66.311  1.00  0.00     0.000 HD 
BRANCH   7  10
HETATM   10  C   UNL     1     -10.308  14.110  65.199  1.00  0.00    -0.405 C  
HETATM   11  H   UNL     1      -9.381  15.415  66.377  1.00  0.00     0.000 HD 
HETATM   12  O   UNL     1      -9.401  14.474  66.246  1.00  0.00    -0.285 OA 
BRANCH  10  13
HETATM   13  C   UNL     1     -11.699  14.695  65.502  1.00  0.00    -0.316 C  
HETATM   14  H   UNL     1     -13.399  14.024  66.227  1.00  0.00     0.000 HD 
HETATM   15  O   UNL     1     -12.541  13.663  66.040  1.00  0.00    -0.441 OA 
BRANCH  13  16
HETATM   16  C   UNL     1     -12.352  15.305  64.245  1.00  0.00    -0.121 C  
HETATM   17  O   UNL     1     -11.615  16.428  63.760  1.00  0.00    -1.605 OA 
HETATM   18  H   UNL     1     -12.017  16.804  62.986  1.00  0.00     0.000 HD 
ENDBRANCH  13  16
ENDBRANCH  10  13
ENDBRANCH   7  10
ENDBRANCH   4   7
ENDBRANCH   2   4
TORSDOF 5
ENDMDL
MODEL       20
REMARK 921   NORMALIZED FREE ENERGY PREDICTED BY IDOCK:   -4.60 KCAL/MOL
REMARK 922        TOTAL FREE ENERGY PREDICTED BY IDOCK:   -6.25 KCAL/MOL
REMARK 923 INTER-LIGAND FREE ENERGY PREDICTED BY IDOCK:   -5.86 KCAL/MOL
REMARK 924 INTRA-LIGAND FREE ENERGY PREDICTED BY IDOCK:   -0.39 KCAL/MOL
REMARK 927      BINDING AFFINITY PREDICTED BY RF-SCORE:    0.00 PKD
ROOT
HETATM    1  O   UNL     1     -11.634  16.508  63.908  1.00  0.00    -1.598 OA 
HETATM    2  C   UNL     1     -11.506  15.564  64.974  1.00  0.00    -0.218 C  
HETATM    3  H   UNL     1     -11.302  17.346  64.210  1.00  0.00     0.000 HD 
ENDROOT
BRANCH   2   4
HETATM    4  C   UNL     1     -12.040  14.214  64.488  1.00  0.00    -0.468 C  
HETATM    5  H   UNL     1     -13.079  13.579  62.949  1.00  0.00     0.000 HD 
HETATM    6  O   UNL     1     -12.747  14.416  63.251  1.00  0.00    -0.587 OA 
BRANCH   4   7
HETATM    7  C   UNL     1     -10.942  13.141  64.308  1.00  0.00    -0.403 C  
HETATM    8  O   UNL     1      -9.748  13.569  64.991  1.00  0.00    -0.564 OA 
HETATM    9  H   UNL     1      -9.073  12.910  64.881  1.00  0.00     0.000 HD 
BRANCH   7  10
HETATM   10  C   UNL     1     -11.342  11.746  64.853  1.00  0.00    -0.236 C  
HETATM   11  H   UNL     1     -11.843  10.934  66.596  1.00  0.00     0.000 HD 
HETATM   12  O   UNL     1     -11.598  11.789  66.262  1.00  0.00    -0.441 OA 
BRANCH  10  13
HETATM   13  C   UNL     1     -10.283  10.669  64.559  1.00  0.00    -0.329 C  
HETATM   14  H   UNL     1      -8.542  10.142  65.305  1.00  0.00     0.000 HD 
HETATM   15  O   UNL     1      -9.195  10.806  65.486  1.00  0.00    -0.186 OA 
BRANCH  13  16
HETATM   16  C   UNL     1      -9.755  10.762  63.112  1.00  0.00    -0.357 C  
HETATM   17  O   UNL     1      -8.545  11.518  63.040  1.00  0.00    -0.470 OA 
HETATM   18  H   UNL     1      -8.219  11.575  62.149  1.00  0.00     0.000 HD 
ENDBRANCH  13  16
ENDBRANCH  10  13
ENDBRANCH   7  10
ENDBRANCH   4   7
ENDBRANCH   2   4
TORSDOF 5
ENDMDL
MODEL       21
REMARK 921   NORMALIZED FREE ENERGY PREDICTED BY IDOCK:   -4.58 KCAL/MOL
REMARK 922        TOTAL FREE ENERGY PREDICTED BY IDOCK:   -6.24 KCAL/MOL
REMARK 923 INTER-LIGAND FREE ENERGY PREDICTED BY IDOCK:   -5.60 KCAL/MOL
REMARK 924 INTRA-LIGAND FREE ENERGY PREDICTED BY IDOCK:   -0.64 KCAL/MOL
REMARK 927      BINDING AFFINITY PREDICTED BY RF-SCORE:    0.00 PKD
ROOT
HETATM    1  O   UNL     1     -12.414  14.106  63.030  1.00  0.00    -1.077 OA 
HETATM    2  C   UNL     1     -12.259  14.333  64.433  1.00  0.00    -0.447 C  
HETATM    3  H   UNL     1     -12.408  14.947  62.588  1.00  0.00     0.000 HD 
ENDROOT
BRANCH   2   4
HETATM    4  C   UNL     1     -12.269  12.977  65.144  1.00  0.00    -0.459 C  
HETATM    5  H   UNL     1     -13.063  11.214  64.810  1.00  0.00     0.000 HD 
HETATM    6  O   UNL     1     -13.057  12.056  64.369  1.00  0.00    -0.655 OA 
BRANCH   4   7
HETATM    7  C   UNL     1     -10.857  12.397  65.393  1.00  0.00    -0.285 C  
HETATM    8  O   UNL     1      -9.911  13.081  64.549  1.00  0.00    -0.577 OA 
HETATM    9  H   UNL     1      -9.044  12.725  64.702  1.00  0.00     0.000 HD 
BRANCH   7  10
HETATM   10  C   UNL     1     -10.384  12.528  66.863  1.00  0.00    -0.229 C  
HETATM   11  H   UNL     1      -9.621  11.355  68.274  1.00  0.00     0.000 HD 
HETATM   12  O   UNL     1      -9.911  11.275  67.373  1.00  0.00    -0.179 OA 
BRANCH  10  13
HETATM   13  C   UNL     1     -11.481  13.076  67.792  1.00  0.00    -0.316 C  
HETATM   14  H   UNL     1     -11.763  14.704  68.858  1.00  0.00     0.000 HD 
HETATM   15  O   UNL     1     -11.086  14.366  68.284  1.00  0.00    -0.244 OA 
BRANCH  13  16
HETATM   16  C   UNL     1     -11.761  12.125  68.974  1.00  0.00    -0.322 C  
HETATM   17  O   UNL     1     -12.384  10.915  68.542  1.00  0.00    -0.807 OA 
HETATM   18  H   UNL     1     -12.557  10.329  69.269  1.00  0.00     0.000 HD 
ENDBRANCH  13  16
ENDBRANCH  10  13
ENDBRANCH   7  10
ENDBRANCH   4   7
ENDBRANCH   2   4
TORSDOF 5
ENDMDL
MODEL       22
REMARK 921   NORMALIZED FREE ENERGY PREDICTED BY IDOCK:   -4.57 KCAL/MOL
REMARK 922        TOTAL FREE ENERGY PREDICTED BY IDOCK:   -6.22 KCAL/MOL
REMARK 923 INTER-LIGAND FREE ENERGY PREDICTED BY IDOCK:   -5.86 KCAL/MOL
REMARK 924 INTRA-LIGAND FREE ENERGY PREDICTED BY IDOCK:   -0.36 KCAL/MOL
REMARK 927      BINDING AFFINITY PREDICTED BY RF-SCORE:    0.00 PKD
ROOT
HETATM    1  O   UNL     1     -10.358  14.737  70.153  1.00  0.00    -0.460 OA 
HETATM    2  C   UNL     1     -11.695  14.745  69.645  1.00  0.00    -0.314 C  
HETATM    3  H   UNL     1     -10.382  14.434  71.053  1.00  0.00     0.000 HD 
ENDROOT
BRANCH   2   4
HETATM    4  C   UNL     1     -11.656  15.235  68.195  1.00  0.00    -0.330 C  
HETATM    5  H   UNL     1     -10.761  16.681  67.217  1.00  0.00     0.000 HD 
HETATM    6  O   UNL     1     -10.785  16.378  68.117  1.00  0.00    -0.309 OA 
BRANCH   4   7
HETATM    7  C   UNL     1     -11.208  14.151  67.187  1.00  0.00    -0.317 C  
HETATM    8  O   UNL     1     -10.786  12.979  67.912  1.00  0.00    -0.231 OA 
HETATM    9  H   UNL     1     -10.511  12.313  67.293  1.00  0.00     0.000 HD 
BRANCH   7  10
HETATM   10  C   UNL     1     -12.319  13.734  66.190  1.00  0.00    -0.452 C  
HETATM   11  H   UNL     1     -12.924  12.083  65.264  1.00  0.00     0.000 HD 
HETATM   12  O   UNL     1     -12.243  12.339  65.876  1.00  0.00    -0.634 OA 
BRANCH  10  13
HETATM   13  C   UNL     1     -12.284  14.553  64.888  1.00  0.00    -0.402 C  
HETATM   14  H   UNL     1     -12.395  14.174  62.962  1.00  0.00     0.000 HD 
HETATM   15  O   UNL     1     -12.417  13.668  63.766  1.00  0.00    -0.703 OA 
BRANCH  13  16
HETATM   16  C   UNL     1     -10.983  15.373  64.759  1.00  0.00    -0.393 C  
HETATM   17  O   UNL     1     -11.240  16.703  64.308  1.00  0.00    -1.314 OA 
HETATM   18  H   UNL     1     -10.439  17.208  64.229  1.00  0.00     0.000 HD 
ENDBRANCH  13  16
ENDBRANCH  10  13
ENDBRANCH   7  10
ENDBRANCH   4   7
ENDBRANCH   2   4
TORSDOF 5
ENDMDL
MODEL       23
REMARK 921   NORMALIZED FREE ENERGY PREDICTED BY IDOCK:   -4.57 KCAL/MOL
REMARK 922        TOTAL FREE ENERGY PREDICTED BY IDOCK:   -6.21 KCAL/MOL
REMARK 923 INTER-LIGAND FREE ENERGY PREDICTED BY IDOCK:   -5.73 KCAL/MOL
REMARK 924 INTRA-LIGAND FREE ENERGY PREDICTED BY IDOCK:   -0.48 KCAL/MOL
REMARK 927      BINDING AFFINITY PREDICTED BY RF-SCORE:    0.00 PKD
ROOT
HETATM    1  O   UNL     1      -9.913  12.660  68.920  1.00  0.00    -0.417 OA 
HETATM    2  C   UNL     1      -9.798  12.203  67.569  1.00  0.00    -0.191 C  
HETATM    3  H   UNL     1      -9.047  12.657  69.311  1.00  0.00     0.000 HD 
ENDROOT
BRANCH   2   4
HETATM    4  C   UNL     1     -11.194  12.208  66.940  1.00  0.00    -0.320 C  
HETATM    5  H   UNL     1     -12.946  11.445  67.384  1.00  0.00     0.000 HD 
HETATM    6  O   UNL     1     -12.079  11.441  67.774  1.00  0.00    -0.637 OA 
BRANCH   4   7
HETATM    7  C   UNL     1     -11.766  13.627  66.713  1.00  0.00    -0.392 C  
HETATM    8  O   UNL     1     -12.296  14.126  67.956  1.00  0.00    -0.560 OA 
HETATM    9  H   UNL     1     -12.648  14.997  67.817  1.00  0.00     0.000 HD 
BRANCH   7  10
HETATM   10  C   UNL     1     -10.718  14.641  66.187  1.00  0.00    -0.314 C  
HETATM   11  H   UNL     1      -9.988  16.413  66.716  1.00  0.00     0.000 HD 
HETATM   12  O   UNL     1     -10.631  15.791  67.038  1.00  0.00    -0.309 OA 
BRANCH  10  13
HETATM   13  C   UNL     1     -11.003  15.094  64.745  1.00  0.00    -0.377 C  
HETATM   14  H   UNL     1     -11.055  16.802  63.771  1.00  0.00     0.000 HD 
HETATM   15  O   UNL     1     -10.879  16.522  64.662  1.00  0.00    -0.741 OA 
BRANCH  13  16
HETATM   16  C   UNL     1     -12.407  14.660  64.273  1.00  0.00    -0.349 C  
HETATM   17  O   UNL     1     -12.343  13.873  63.083  1.00  0.00    -1.122 OA 
HETATM   18  H   UNL     1     -13.207  13.606  62.792  1.00  0.00     0.000 HD 
ENDBRANCH  13  16
ENDBRANCH  10  13
ENDBRANCH   7  10
ENDBRANCH   4   7
ENDBRANCH   2   4
TORSDOF 5
ENDMDL
MODEL       24
REMARK 921   NORMALIZED FREE ENERGY PREDICTED BY IDOCK:   -4.56 KCAL/MOL
REMARK 922        TOTAL FREE ENERGY PREDICTED BY IDOCK:   -6.20 KCAL/MOL
REMARK 923 INTER-LIGAND FREE ENERGY PREDICTED BY IDOCK:   -5.99 KCAL/MOL
REMARK 924 INTRA-LIGAND FREE ENERGY PREDICTED BY IDOCK:   -0.21 KCAL/MOL
REMARK 927      BINDING AFFINITY PREDICTED BY RF-SCORE:    0.00 PKD
ROOT
HETATM    1  O   UNL     1      -9.094  12.673  68.642  1.00  0.00    -0.376 OA 
HETATM    2  C   UNL     1     -10.271  13.201  68.024  1.00  0.00    -0.233 C  
HETATM    3  H   UNL     1      -8.780  13.306  69.277  1.00  0.00     0.000 HD 
ENDROOT
BRANCH   2   4
HETATM    4  C   UNL     1     -10.777  12.180  67.001  1.00  0.00    -0.238 C  
HETATM    5  H   UNL     1     -12.347  11.017  66.825  1.00  0.00     0.000 HD 
HETATM    6  O   UNL     1     -12.033  11.651  67.460  1.00  0.00    -0.622 OA 
BRANCH   4   7
HETATM    7  C   UNL     1     -10.927  12.756  65.574  1.00  0.00    -0.280 C  
HETATM    8  O   UNL     1     -10.394  11.811  64.626  1.00  0.00    -0.262 OA 
HETATM    9  H   UNL     1     -10.486  12.165  63.749  1.00  0.00     0.000 HD 
BRANCH   7  10
HETATM   10  C   UNL     1     -12.394  13.067  65.181  1.00  0.00    -0.484 C  
HETATM   11  H   UNL     1     -13.874  12.181  64.195  1.00  0.00     0.000 HD 
HETATM   12  O   UNL     1     -12.975  11.990  64.436  1.00  0.00    -0.600 OA 
BRANCH  10  13
HETATM   13  C   UNL     1     -12.528  14.374  64.380  1.00  0.00    -0.312 C  
HETATM   14  H   UNL     1     -12.556  14.884  62.482  1.00  0.00     0.000 HD 
HETATM   15  O   UNL     1     -12.473  14.078  62.976  1.00  0.00    -0.641 OA 
BRANCH  13  16
HETATM   16  C   UNL     1     -11.426  15.389  64.747  1.00  0.00    -0.336 C  
HETATM   17  O   UNL     1     -11.495  16.560  63.932  1.00  0.00    -1.608 OA 
HETATM   18  H   UNL     1     -10.817  17.186  64.158  1.00  0.00     0.000 HD 
ENDBRANCH  13  16
ENDBRANCH  10  13
ENDBRANCH   7  10
ENDBRANCH   4   7
ENDBRANCH   2   4
TORSDOF 5
ENDMDL
MODEL       25
REMARK 921   NORMALIZED FREE ENERGY PREDICTED BY IDOCK:   -4.53 KCAL/MOL
REMARK 922        TOTAL FREE ENERGY PREDICTED BY IDOCK:   -6.17 KCAL/MOL
REMARK 923 INTER-LIGAND FREE ENERGY PREDICTED BY IDOCK:   -5.17 KCAL/MOL
REMARK 924 INTRA-LIGAND FREE ENERGY PREDICTED BY IDOCK:   -1.00 KCAL/MOL
REMARK 927      BINDING AFFINITY PREDICTED BY RF-SCORE:    0.00 PKD
ROOT
HETATM    1  O   UNL     1      -9.814  13.221  64.023  1.00  0.00    -0.741 OA 
HETATM    2  C   UNL     1     -10.867  12.343  63.617  1.00  0.00    -0.462 C  
HETATM    3  H   UNL     1      -9.019  12.962  63.574  1.00  0.00     0.000 HD 
ENDROOT
BRANCH   2   4
HETATM    4  C   UNL     1     -12.150  12.761  64.342  1.00  0.00    -0.416 C  
HETATM    5  H   UNL     1     -14.067  12.396  64.143  1.00  0.00     0.000 HD 
HETATM    6  O   UNL     1     -13.271  12.137  63.693  1.00  0.00    -0.770 OA 
BRANCH   4   7
HETATM    7  C   UNL     1     -12.147  12.422  65.851  1.00  0.00    -0.281 C  
HETATM    8  O   UNL     1     -11.070  11.505  66.125  1.00  0.00    -0.296 OA 
HETATM    9  H   UNL     1     -11.068  11.296  67.052  1.00  0.00     0.000 HD 
BRANCH   7  10
HETATM   10  C   UNL     1     -11.977  13.662  66.765  1.00  0.00    -0.414 C  
HETATM   11  H   UNL     1     -11.184  15.480  66.649  1.00  0.00     0.000 HD 
HETATM   12  O   UNL     1     -11.288  14.720  66.089  1.00  0.00    -0.341 OA 
BRANCH  10  13
HETATM   13  C   UNL     1     -11.246  13.334  68.078  1.00  0.00    -0.276 C  
HETATM   14  H   UNL     1     -11.385  11.965  69.484  1.00  0.00     0.000 HD 
HETATM   15  O   UNL     1     -11.837  12.168  68.673  1.00  0.00    -0.309 OA 
BRANCH  13  16
HETATM   16  C   UNL     1     -11.293  14.512  69.073  1.00  0.00    -0.272 C  
HETATM   17  O   UNL     1     -12.362  15.412  68.775  1.00  0.00    -0.593 OA 
HETATM   18  H   UNL     1     -12.391  16.137  69.387  1.00  0.00     0.000 HD 
ENDBRANCH  13  16
ENDBRANCH  10  13
ENDBRANCH   7  10
ENDBRANCH   4   7
ENDBRANCH   2   4
TORSDOF 5
ENDMDL
MODEL       26
REMARK 921   NORMALIZED FREE ENERGY PREDICTED BY IDOCK:   -4.52 KCAL/MOL
REMARK 922        TOTAL FREE ENERGY PREDICTED BY IDOCK:   -6.15 KCAL/MOL
REMARK 923 INTER-LIGAND FREE ENERGY PREDICTED BY IDOCK:   -5.36 KCAL/MOL
REMARK 924 INTRA-LIGAND FREE ENERGY PREDICTED BY IDOCK:   -0.79 KCAL/MOL
REMARK 927      BINDING AFFINITY PREDICTED BY RF-SCORE:    0.00 PKD
ROOT
HETATM    1  O   UNL     1     -12.485  14.023  63.333  1.00  0.00    -1.108 OA 
HETATM    2  C   UNL     1     -12.329  13.926  64.752  1.00  0.00    -0.400 C  
HETATM    3  H   UNL     1     -13.407  14.148  63.142  1.00  0.00     0.000 HD 
ENDROOT
BRANCH   2   4
HETATM    4  C   UNL     1     -10.842  13.724  65.059  1.00  0.00    -0.371 C  
HETATM    5  H   UNL     1      -9.361  12.714  64.262  1.00  0.00     0.000 HD 
HETATM    6  O   UNL     1     -10.283  12.839  64.071  1.00  0.00    -0.403 OA 
BRANCH   4   7
HETATM    7  C   UNL     1     -10.036  15.042  65.115  1.00  0.00    -0.315 C  
HETATM    8  O   UNL     1     -10.799  16.088  64.484  1.00  0.00    -0.843 OA 
HETATM    9  H   UNL     1     -10.304  16.899  64.518  1.00  0.00     0.000 HD 
BRANCH   7  10
HETATM   10  C   UNL     1      -9.686  15.494  66.556  1.00  0.00    -0.270 C  
HETATM   11  H   UNL     1      -9.178  14.650  68.282  1.00  0.00     0.000 HD 
HETATM   12  O   UNL     1      -9.392  14.374  67.398  1.00  0.00    -0.189 OA 
BRANCH  10  13
HETATM   13  C   UNL     1     -10.801  16.338  67.199  1.00  0.00    -0.190 C  
HETATM   14  H   UNL     1     -11.018  18.200  67.790  1.00  0.00     0.000 HD 
HETATM   15  O   UNL     1     -10.330  17.680  67.393  1.00  0.00    -0.335 OA 
BRANCH  13  16
HETATM   16  C   UNL     1     -11.268  15.744  68.544  1.00  0.00    -0.354 C  
HETATM   17  O   UNL     1     -12.190  14.670  68.355  1.00  0.00    -0.585 OA 
HETATM   18  H   UNL     1     -12.477  14.304  69.183  1.00  0.00     0.000 HD 
ENDBRANCH  13  16
ENDBRANCH  10  13
ENDBRANCH   7  10
ENDBRANCH   4   7
ENDBRANCH   2   4
TORSDOF 5
ENDMDL
MODEL       27
REMARK 921   NORMALIZED FREE ENERGY PREDICTED BY IDOCK:   -4.50 KCAL/MOL
REMARK 922        TOTAL FREE ENERGY PREDICTED BY IDOCK:   -6.12 KCAL/MOL
REMARK 923 INTER-LIGAND FREE ENERGY PREDICTED BY IDOCK:   -5.73 KCAL/MOL
REMARK 924 INTRA-LIGAND FREE ENERGY PREDICTED BY IDOCK:   -0.39 KCAL/MOL
REMARK 927      BINDING AFFINITY PREDICTED BY RF-SCORE:    0.00 PKD
ROOT
HETATM    1  O   UNL     1     -12.394  14.116  63.094  1.00  0.00    -1.125 OA 
HETATM    2  C   UNL     1     -12.222  14.751  64.364  1.00  0.00    -0.428 C  
HETATM    3  H   UNL     1     -12.056  14.696  62.421  1.00  0.00     0.000 HD 
ENDROOT
BRANCH   2   4
HETATM    4  C   UNL     1     -12.768  13.816  65.447  1.00  0.00    -0.472 C  
HETATM    5  H   UNL     1     -13.498  11.996  65.503  1.00  0.00     0.000 HD 
HETATM    6  O   UNL     1     -13.160  12.577  64.831  1.00  0.00    -0.833 OA 
BRANCH   4   7
HETATM    7  C   UNL     1     -11.768  13.551  66.597  1.00  0.00    -0.387 C  
HETATM    8  O   UNL     1     -12.300  14.097  67.819  1.00  0.00    -0.565 OA 
HETATM    9  H   UNL     1     -11.686  13.935  68.526  1.00  0.00     0.000 HD 
BRANCH   7  10
HETATM   10  C   UNL     1     -11.469  12.047  66.824  1.00  0.00    -0.345 C  
HETATM   11  H   UNL     1     -11.865  10.656  68.187  1.00  0.00     0.000 HD 
HETATM   12  O   UNL     1     -12.049  11.578  68.047  1.00  0.00    -0.617 OA 
BRANCH  10  13
HETATM   13  C   UNL     1      -9.962  11.736  66.821  1.00  0.00    -0.201 C  
HETATM   14  H   UNL     1      -8.840  10.122  66.836  1.00  0.00     0.000 HD 
HETATM   15  O   UNL     1      -9.770  10.314  66.838  1.00  0.00    -0.174 OA 
BRANCH  13  16
HETATM   16  C   UNL     1      -9.240  12.379  68.023  1.00  0.00    -0.203 C  
HETATM   17  O   UNL     1      -9.634  11.778  69.258  1.00  0.00    -0.380 OA 
HETATM   18  H   UNL     1      -9.189  12.173  69.998  1.00  0.00     0.000 HD 
ENDBRANCH  13  16
ENDBRANCH  10  13
ENDBRANCH   7  10
ENDBRANCH   4   7
ENDBRANCH   2   4
TORSDOF 5
ENDMDL
MODEL       28
REMARK 921   NORMALIZED FREE ENERGY PREDICTED BY IDOCK:   -4.50 KCAL/MOL
REMARK 922        TOTAL FREE ENERGY PREDICTED BY IDOCK:   -6.12 KCAL/MOL
REMARK 923 INTER-LIGAND FREE ENERGY PREDICTED BY IDOCK:   -5.63 KCAL/MOL
REMARK 924 INTRA-LIGAND FREE ENERGY PREDICTED BY IDOCK:   -0.49 KCAL/MOL
REMARK 927      BINDING AFFINITY PREDICTED BY RF-SCORE:    0.00 PKD
ROOT
HETATM    1  O   UNL     1     -11.277  11.324  63.159  1.00  0.00    -0.829 OA 
HETATM    2  C   UNL     1     -12.404  12.134  63.505  1.00  0.00    -0.574 C  
HETATM    3  H   UNL     1     -11.593  10.554  62.700  1.00  0.00     0.000 HD 
ENDROOT
BRANCH   2   4
HETATM    4  C   UNL     1     -11.895  13.374  64.246  1.00  0.00    -0.423 C  
HETATM    5  H   UNL     1     -12.229  15.305  64.160  1.00  0.00     0.000 HD 
HETATM    6  O   UNL     1     -12.545  14.536  63.700  1.00  0.00    -0.798 OA 
BRANCH   4   7
HETATM    7  C   UNL     1     -12.105  13.311  65.777  1.00  0.00    -0.441 C  
HETATM    8  O   UNL     1     -11.971  11.945  66.215  1.00  0.00    -0.554 OA 
HETATM    9  H   UNL     1     -12.100  11.906  67.155  1.00  0.00     0.000 HD 
BRANCH   7  10
HETATM   10  C   UNL     1     -11.103  14.181  66.577  1.00  0.00    -0.318 C  
HETATM   11  H   UNL     1      -9.396  13.932  67.563  1.00  0.00     0.000 HD 
HETATM   12  O   UNL     1     -10.010  13.399  67.072  1.00  0.00    -0.238 OA 
BRANCH  10  13
HETATM   13  C   UNL     1     -11.769  14.927  67.746  1.00  0.00    -0.317 C  
HETATM   14  H   UNL     1     -11.416  16.563  68.779  1.00  0.00     0.000 HD 
HETATM   15  O   UNL     1     -11.005  16.102  68.057  1.00  0.00    -0.331 OA 
BRANCH  13  16
HETATM   16  C   UNL     1     -11.895  14.036  68.999  1.00  0.00    -0.354 C  
HETATM   17  O   UNL     1     -10.795  14.221  69.891  1.00  0.00    -0.452 OA 
HETATM   18  H   UNL     1     -10.873  13.673  70.663  1.00  0.00     0.000 HD 
ENDBRANCH  13  16
ENDBRANCH  10  13
ENDBRANCH   7  10
ENDBRANCH   4   7
ENDBRANCH   2   4
TORSDOF 5
ENDMDL
MODEL       29
REMARK 921   NORMALIZED FREE ENERGY PREDICTED BY IDOCK:   -4.46 KCAL/MOL
REMARK 922        TOTAL FREE ENERGY PREDICTED BY IDOCK:   -6.08 KCAL/MOL
REMARK 923 INTER-LIGAND FREE ENERGY PREDICTED BY IDOCK:   -4.98 KCAL/MOL
REMARK 924 INTRA-LIGAND FREE ENERGY PREDICTED BY IDOCK:   -1.10 KCAL/MOL
REMARK 927      BINDING AFFINITY PREDICTED BY RF-SCORE:    0.00 PKD
ROOT
HETATM    1  O   UNL     1     -13.273  12.704  64.689  1.00  0.00    -0.828 OA 
HETATM    2  C   UNL     1     -12.426  12.253  63.628  1.00  0.00    -0.541 C  
HETATM    3  H   UNL     1     -14.161  12.420  64.503  1.00  0.00     0.000 HD 
ENDROOT
BRANCH   2   4
HETATM    4  C   UNL     1     -10.996  12.710  63.928  1.00  0.00    -0.424 C  
HETATM    5  H   UNL     1     -10.128  14.400  64.419  1.00  0.00     0.000 HD 
HETATM    6  O   UNL     1     -11.015  14.116  64.233  1.00  0.00    -0.285 OA 
BRANCH   4   7
HETATM    7  C   UNL     1     -10.321  11.922  65.075  1.00  0.00    -0.289 C  
HETATM    8  O   UNL     1      -9.064  11.394  64.608  1.00  0.00    -0.391 OA 
HETATM    9  H   UNL     1      -8.650  10.909  65.312  1.00  0.00     0.000 HD 
BRANCH   7  10
HETATM   10  C   UNL     1     -10.052  12.776  66.340  1.00  0.00    -0.259 C  
HETATM   11  H   UNL     1      -8.566  13.079  67.624  1.00  0.00     0.000 HD 
HETATM   12  O   UNL     1      -8.731  12.555  66.848  1.00  0.00    -0.200 OA 
BRANCH  10  13
HETATM   13  C   UNL     1     -11.078  12.518  67.457  1.00  0.00    -0.267 C  
HETATM   14  H   UNL     1     -12.644  11.356  67.714  1.00  0.00     0.000 HD 
HETATM   15  O   UNL     1     -12.010  11.515  67.024  1.00  0.00    -0.556 OA 
BRANCH  13  16
HETATM   16  C   UNL     1     -11.835  13.804  67.851  1.00  0.00    -0.378 C  
HETATM   17  O   UNL     1     -12.478  14.403  66.725  1.00  0.00    -0.563 OA 
HETATM   18  H   UNL     1     -12.944  15.194  66.967  1.00  0.00     0.000 HD 
ENDBRANCH  13  16
ENDBRANCH  10  13
ENDBRANCH   7  10
ENDBRANCH   4   7
ENDBRANCH   2   4
TORSDOF 5
ENDMDL
MODEL       30
REMARK 921   NORMALIZED FREE ENERGY PREDICTED BY IDOCK:   -4.44 KCAL/MOL
REMARK 922        TOTAL FREE ENERGY PREDICTED BY IDOCK:   -6.05 KCAL/MOL
REMARK 923 INTER-LIGAND FREE ENERGY PREDICTED BY IDOCK:   -5.88 KCAL/MOL
REMARK 924 INTRA-LIGAND FREE ENERGY PREDICTED BY IDOCK:   -0.18 KCAL/MOL
REMARK 927      BINDING AFFINITY PREDICTED BY RF-SCORE:    0.00 PKD
ROOT
HETATM    1  O   UNL     1     -10.528  19.583  68.759  1.00  0.00    -0.527 OA 
HETATM    2  C   UNL     1     -10.498  19.095  67.414  1.00  0.00    -0.458 C  
HETATM    3  H   UNL     1     -10.759  20.505  68.737  1.00  0.00     0.000 HD 
ENDROOT
BRANCH   2   4
HETATM    4  C   UNL     1     -10.125  17.610  67.450  1.00  0.00    -0.331 C  
HETATM    5  H   UNL     1     -10.909  15.976  68.200  1.00  0.00     0.000 HD 
HETATM    6  O   UNL     1     -11.141  16.897  68.178  1.00  0.00    -0.347 OA 
BRANCH   4   7
HETATM    7  C   UNL     1      -9.931  16.987  66.049  1.00  0.00    -0.269 C  
HETATM    8  O   UNL     1      -8.530  16.726  65.838  1.00  0.00    -0.484 OA 
HETATM    9  H   UNL     1      -8.411  16.343  64.977  1.00  0.00     0.000 HD 
BRANCH   7  10
HETATM   10  C   UNL     1     -10.710  15.662  65.846  1.00  0.00    -0.329 C  
HETATM   11  H   UNL     1     -10.374  13.712  66.037  1.00  0.00     0.000 HD 
HETATM   12  O   UNL     1      -9.897  14.525  66.161  1.00  0.00    -0.289 OA 
BRANCH  10  13
HETATM   13  C   UNL     1     -11.265  15.513  64.419  1.00  0.00    -0.219 C  
HETATM   14  H   UNL     1     -12.105  16.691  63.087  1.00  0.00     0.000 HD 
HETATM   15  O   UNL     1     -11.762  16.783  63.969  1.00  0.00    -1.120 OA 
BRANCH  13  16
HETATM   16  C   UNL     1     -12.385  14.454  64.345  1.00  0.00    -0.403 C  
HETATM   17  O   UNL     1     -12.471  13.868  63.045  1.00  0.00    -1.099 OA 
HETATM   18  H   UNL     1     -13.160  13.216  63.000  1.00  0.00     0.000 HD 
ENDBRANCH  13  16
ENDBRANCH  10  13
ENDBRANCH   7  10
ENDBRANCH   4   7
ENDBRANCH   2   4
TORSDOF 5
ENDMDL
MODEL       31
REMARK 921   NORMALIZED FREE ENERGY PREDICTED BY IDOCK:   -4.43 KCAL/MOL
REMARK 922        TOTAL FREE ENERGY PREDICTED BY IDOCK:   -6.04 KCAL/MOL
REMARK 923 INTER-LIGAND FREE ENERGY PREDICTED BY IDOCK:   -5.20 KCAL/MOL
REMARK 924 INTRA-LIGAND FREE ENERGY PREDICTED BY IDOCK:   -0.84 KCAL/MOL
REMARK 927      BINDING AFFINITY PREDICTED BY RF-SCORE:    0.00 PKD
ROOT
HETATM    1  O   UNL     1     -13.464  12.052  64.183  1.00  0.00    -0.672 OA 
HETATM    2  C   UNL     1     -12.406  11.974  63.224  1.00  0.00    -0.438 C  
HETATM    3  H   UNL     1     -14.290  12.088  63.714  1.00  0.00     0.000 HD 
ENDROOT
BRANCH   2   4
HETATM    4  C   UNL     1     -11.075  11.915  63.980  1.00  0.00    -0.391 C  
HETATM    5  H   UNL     1      -9.250  11.318  63.579  1.00  0.00     0.000 HD 
HETATM    6  O   UNL     1     -10.076  11.355  63.110  1.00  0.00    -0.351 OA 
BRANCH   4   7
HETATM    7  C   UNL     1     -10.609  13.287  64.520  1.00  0.00    -0.419 C  
HETATM    8  O   UNL     1     -11.583  14.288  64.168  1.00  0.00    -0.600 OA 
HETATM    9  H   UNL     1     -11.296  15.131  64.499  1.00  0.00     0.000 HD 
BRANCH   7  10
HETATM   10  C   UNL     1     -10.414  13.314  66.057  1.00  0.00    -0.286 C  
HETATM   11  H   UNL     1      -9.422  12.281  67.435  1.00  0.00     0.000 HD 
HETATM   12  O   UNL     1      -9.542  12.264  66.492  1.00  0.00    -0.226 OA 
BRANCH  10  13
HETATM   13  C   UNL     1     -11.744  13.224  66.825  1.00  0.00    -0.385 C  
HETATM   14  H   UNL     1     -12.976  14.485  67.695  1.00  0.00     0.000 HD 
HETATM   15  O   UNL     1     -12.154  14.541  67.222  1.00  0.00    -0.392 OA 
BRANCH  13  16
HETATM   16  C   UNL     1     -11.632  12.312  68.064  1.00  0.00    -0.349 C  
HETATM   17  O   UNL     1     -11.941  10.953  67.749  1.00  0.00    -0.691 OA 
HETATM   18  H   UNL     1     -11.872  10.391  68.511  1.00  0.00     0.000 HD 
ENDBRANCH  13  16
ENDBRANCH  10  13
ENDBRANCH   7  10
ENDBRANCH   4   7
ENDBRANCH   2   4
TORSDOF 5
ENDMDL
MODEL       32
REMARK 921   NORMALIZED FREE ENERGY PREDICTED BY IDOCK:   -4.43 KCAL/MOL
REMARK 922        TOTAL FREE ENERGY PREDICTED BY IDOCK:   -6.03 KCAL/MOL
REMARK 923 INTER-LIGAND FREE ENERGY PREDICTED BY IDOCK:   -5.57 KCAL/MOL
REMARK 924 INTRA-LIGAND FREE ENERGY PREDICTED BY IDOCK:   -0.47 KCAL/MOL
REMARK 927      BINDING AFFINITY PREDICTED BY RF-SCORE:    0.00 PKD
ROOT
HETATM    1  O   UNL     1     -10.305   9.668  65.368  1.00  0.00    -0.228 OA 
HETATM    2  C   UNL     1      -9.729  10.975  65.292  1.00  0.00    -0.239 C  
HETATM    3  H   UNL     1      -9.658   9.077  65.735  1.00  0.00     0.000 HD 
ENDROOT
BRANCH   2   4
HETATM    4  C   UNL     1     -10.772  11.927  64.700  1.00  0.00    -0.307 C  
HETATM    5  H   UNL     1     -12.017  11.890  63.184  1.00  0.00     0.000 HD 
HETATM    6  O   UNL     1     -11.369  11.299  63.552  1.00  0.00    -0.314 OA 
BRANCH   4   7
HETATM    7  C   UNL     1     -11.865  12.353  65.707  1.00  0.00    -0.406 C  
HETATM    8  O   UNL     1     -11.576  11.768  66.992  1.00  0.00    -0.480 OA 
HETATM    9  H   UNL     1     -12.247  12.029  67.611  1.00  0.00     0.000 HD 
BRANCH   7  10
HETATM   10  C   UNL     1     -11.979  13.888  65.885  1.00  0.00    -0.407 C  
HETATM   11  H   UNL     1     -13.291  15.325  65.476  1.00  0.00     0.000 HD 
HETATM   12  O   UNL     1     -13.220  14.383  65.368  1.00  0.00    -0.607 OA 
BRANCH  10  13
HETATM   13  C   UNL     1     -10.813  14.649  65.230  1.00  0.00    -0.377 C  
HETATM   14  H   UNL     1      -8.916  14.971  65.634  1.00  0.00     0.000 HD 
HETATM   15  O   UNL     1      -9.636  14.502  66.039  1.00  0.00    -0.303 OA 
BRANCH  13  16
HETATM   16  C   UNL     1     -11.137  16.146  65.041  1.00  0.00    -0.294 C  
HETATM   17  O   UNL     1     -11.610  16.420  63.721  1.00  0.00    -1.605 OA 
HETATM   18  H   UNL     1     -11.810  17.341  63.604  1.00  0.00     0.000 HD 
ENDBRANCH  13  16
ENDBRANCH  10  13
ENDBRANCH   7  10
ENDBRANCH   4   7
ENDBRANCH   2   4
TORSDOF 5
ENDMDL
MODEL       33
REMARK 921   NORMALIZED FREE ENERGY PREDICTED BY IDOCK:   -4.43 KCAL/MOL
REMARK 922        TOTAL FREE ENERGY PREDICTED BY IDOCK:   -6.03 KCAL/MOL
REMARK 923 INTER-LIGAND FREE ENERGY PREDICTED BY IDOCK:   -5.11 KCAL/MOL
REMARK 924 INTRA-LIGAND FREE ENERGY PREDICTED BY IDOCK:   -0.93 KCAL/MOL
REMARK 927      BINDING AFFINITY PREDICTED BY RF-SCORE:    0.00 PKD
ROOT
HETATM    1  O   UNL     1      -8.323  11.995  66.164  1.00  0.00    -0.390 OA 
HETATM    2  C   UNL     1      -8.595  12.929  67.213  1.00  0.00    -0.205 C  
HETATM    3  H   UNL     1      -7.381  11.895  66.091  1.00  0.00     0.000 HD 
ENDROOT
BRANCH   2   4
HETATM    4  C   UNL     1     -10.113  13.091  67.331  1.00  0.00    -0.231 C  
HETATM    5  H   UNL     1     -11.377  13.550  68.760  1.00  0.00     0.000 HD 
HETATM    6  O   UNL     1     -10.435  13.450  68.687  1.00  0.00    -0.243 OA 
BRANCH   4   7
HETATM    7  C   UNL     1     -10.704  14.128  66.347  1.00  0.00    -0.288 C  
HETATM    8  O   UNL     1      -9.656  14.608  65.484  1.00  0.00    -0.504 OA 
HETATM    9  H   UNL     1     -10.019  15.246  64.879  1.00  0.00     0.000 HD 
BRANCH   7  10
HETATM   10  C   UNL     1     -11.845  13.564  65.463  1.00  0.00    -0.363 C  
HETATM   11  H   UNL     1     -12.978  11.933  65.384  1.00  0.00     0.000 HD 
HETATM   12  O   UNL     1     -12.279  12.279  65.926  1.00  0.00    -0.634 OA 
BRANCH  10  13
HETATM   13  C   UNL     1     -11.452  13.466  63.979  1.00  0.00    -0.352 C  
HETATM   14  H   UNL     1     -12.376  13.589  62.248  1.00  0.00     0.000 HD 
HETATM   15  O   UNL     1     -12.620  13.649  63.165  1.00  0.00    -0.792 OA 
BRANCH  13  16
HETATM   16  C   UNL     1     -10.787  12.113  63.649  1.00  0.00    -0.464 C  
HETATM   17  O   UNL     1      -9.378  12.251  63.459  1.00  0.00    -0.642 OA 
HETATM   18  H   UNL     1      -8.968  11.418  63.256  1.00  0.00     0.000 HD 
ENDBRANCH  13  16
ENDBRANCH  10  13
ENDBRANCH   7  10
ENDBRANCH   4   7
ENDBRANCH   2   4
TORSDOF 5
ENDMDL
MODEL       34
REMARK 921   NORMALIZED FREE ENERGY PREDICTED BY IDOCK:   -4.40 KCAL/MOL
REMARK 922        TOTAL FREE ENERGY PREDICTED BY IDOCK:   -6.00 KCAL/MOL
REMARK 923 INTER-LIGAND FREE ENERGY PREDICTED BY IDOCK:   -5.44 KCAL/MOL
REMARK 924 INTRA-LIGAND FREE ENERGY PREDICTED BY IDOCK:   -0.56 KCAL/MOL
REMARK 927      BINDING AFFINITY PREDICTED BY RF-SCORE:    0.00 PKD
ROOT
HETATM    1  O   UNL     1      -9.434  12.096  68.830  1.00  0.00    -0.408 OA 
HETATM    2  C   UNL     1      -9.743  10.842  68.216  1.00  0.00    -0.165 C  
HETATM    3  H   UNL     1      -8.754  11.951  69.479  1.00  0.00     0.000 HD 
ENDROOT
BRANCH   2   4
HETATM    4  C   UNL     1     -10.839  11.077  67.171  1.00  0.00    -0.282 C  
HETATM    5  H   UNL     1     -12.758  11.483  67.205  1.00  0.00     0.000 HD 
HETATM    6  O   UNL     1     -12.078  11.338  67.853  1.00  0.00    -0.634 OA 
BRANCH   4   7
HETATM    7  C   UNL     1     -10.518  12.223  66.184  1.00  0.00    -0.240 C  
HETATM    8  O   UNL     1      -9.089  12.331  66.036  1.00  0.00    -0.397 OA 
HETATM    9  H   UNL     1      -8.892  13.036  65.429  1.00  0.00     0.000 HD 
BRANCH   7  10
HETATM   10  C   UNL     1     -11.142  12.024  64.779  1.00  0.00    -0.317 C  
HETATM   11  H   UNL     1     -10.723  12.516  62.899  1.00  0.00     0.000 HD 
HETATM   12  O   UNL     1     -10.341  12.637  63.761  1.00  0.00    -0.415 OA 
BRANCH  10  13
HETATM   13  C   UNL     1     -12.581  12.560  64.689  1.00  0.00    -0.426 C  
HETATM   14  H   UNL     1     -14.027  12.542  63.357  1.00  0.00     0.000 HD 
HETATM   15  O   UNL     1     -13.138  12.211  63.413  1.00  0.00    -0.752 OA 
BRANCH  13  16
HETATM   16  C   UNL     1     -12.639  14.089  64.888  1.00  0.00    -0.342 C  
HETATM   17  O   UNL     1     -12.528  14.787  63.647  1.00  0.00    -1.064 OA 
HETATM   18  H   UNL     1     -12.565  15.728  63.769  1.00  0.00     0.000 HD 
ENDBRANCH  13  16
ENDBRANCH  10  13
ENDBRANCH   7  10
ENDBRANCH   4   7
ENDBRANCH   2   4
TORSDOF 5
ENDMDL
MODEL       35
REMARK 921   NORMALIZED FREE ENERGY PREDICTED BY IDOCK:   -4.39 KCAL/MOL
REMARK 922        TOTAL FREE ENERGY PREDICTED BY IDOCK:   -5.99 KCAL/MOL
REMARK 923 INTER-LIGAND FREE ENERGY PREDICTED BY IDOCK:   -5.67 KCAL/MOL
REMARK 924 INTRA-LIGAND FREE ENERGY PREDICTED BY IDOCK:   -0.31 KCAL/MOL
REMARK 927      BINDING AFFINITY PREDICTED BY RF-SCORE:    0.00 PKD
ROOT
HETATM    1  O   UNL     1     -12.224  11.358  68.399  1.00  0.00    -0.571 OA 
HETATM    2  C   UNL     1     -11.254  12.008  67.572  1.00  0.00    -0.294 C  
HETATM    3  H   UNL     1     -11.856  10.536  68.700  1.00  0.00     0.000 HD 
ENDROOT
BRANCH   2   4
HETATM    4  C   UNL     1     -11.848  13.334  67.087  1.00  0.00    -0.374 C  
HETATM    5  H   UNL     1     -11.185  15.160  66.810  1.00  0.00     0.000 HD 
HETATM    6  O   UNL     1     -10.817  14.337  67.111  1.00  0.00    -0.288 OA 
BRANCH   4   7
HETATM    7  C   UNL     1     -12.482  13.251  65.679  1.00  0.00    -0.451 C  
HETATM    8  O   UNL     1     -13.642  14.104  65.633  1.00  0.00    -0.671 OA 
HETATM    9  H   UNL     1     -14.031  14.053  64.768  1.00  0.00     0.000 HD 
BRANCH   7  10
HETATM   10  C   UNL     1     -11.520  13.673  64.540  1.00  0.00    -0.379 C  
HETATM   11  H   UNL     1     -11.226  15.251  63.368  1.00  0.00     0.000 HD 
HETATM   12  O   UNL     1     -11.816  14.992  64.067  1.00  0.00    -0.342 OA 
BRANCH  10  13
HETATM   13  C   UNL     1     -11.537  12.690  63.356  1.00  0.00    -0.469 C  
HETATM   14  H   UNL     1     -12.836  11.454  62.549  1.00  0.00     0.000 HD 
HETATM   15  O   UNL     1     -12.825  12.061  63.280  1.00  0.00    -0.732 OA 
BRANCH  13  16
HETATM   16  C   UNL     1     -10.435  11.618  63.482  1.00  0.00    -0.443 C  
HETATM   17  O   UNL     1     -10.562  10.611  62.477  1.00  0.00    -0.660 OA 
HETATM   18  H   UNL     1      -9.883   9.951  62.554  1.00  0.00     0.000 HD 
ENDBRANCH  13  16
ENDBRANCH  10  13
ENDBRANCH   7  10
ENDBRANCH   4   7
ENDBRANCH   2   4
TORSDOF 5
ENDMDL
MODEL       36
REMARK 921   NORMALIZED FREE ENERGY PREDICTED BY IDOCK:   -4.39 KCAL/MOL
REMARK 922        TOTAL FREE ENERGY PREDICTED BY IDOCK:   -5.98 KCAL/MOL
REMARK 923 INTER-LIGAND FREE ENERGY PREDICTED BY IDOCK:   -5.56 KCAL/MOL
REMARK 924 INTRA-LIGAND FREE ENERGY PREDICTED BY IDOCK:   -0.41 KCAL/MOL
REMARK 927      BINDING AFFINITY PREDICTED BY RF-SCORE:    0.00 PKD
ROOT
HETATM    1  O   UNL     1     -11.842  11.998  67.705  1.00  0.00    -0.512 OA 
HETATM    2  C   UNL     1     -11.688  12.189  66.296  1.00  0.00    -0.320 C  
HETATM    3  H   UNL     1     -11.404  11.190  67.946  1.00  0.00     0.000 HD 
ENDROOT
BRANCH   2   4
HETATM    4  C   UNL     1     -12.395  13.490  65.907  1.00  0.00    -0.456 C  
HETATM    5  H   UNL     1     -12.965  15.120  66.838  1.00  0.00     0.000 HD 
HETATM    6  O   UNL     1     -12.527  14.312  67.080  1.00  0.00    -0.304 OA 
BRANCH   4   7
HETATM    7  C   UNL     1     -11.678  14.272  64.782  1.00  0.00    -0.415 C  
HETATM    8  O   UNL     1     -12.486  14.231  63.590  1.00  0.00    -1.043 OA 
HETATM    9  H   UNL     1     -12.045  14.712  62.899  1.00  0.00     0.000 HD 
BRANCH   7  10
HETATM   10  C   UNL     1     -11.404  15.756  65.135  1.00  0.00    -0.154 C  
HETATM   11  H   UNL     1     -11.549  17.531  64.254  1.00  0.00     0.000 HD 
HETATM   12  O   UNL     1     -11.717  16.622  64.037  1.00  0.00    -1.143 OA 
BRANCH  10  13
HETATM   13  C   UNL     1      -9.952  16.001  65.580  1.00  0.00    -0.313 C  
HETATM   14  H   UNL     1      -8.456  14.902  66.231  1.00  0.00     0.000 HD 
HETATM   15  O   UNL     1      -9.353  14.751  65.956  1.00  0.00    -0.284 OA 
BRANCH  13  16
HETATM   16  C   UNL     1      -9.870  16.998  66.755  1.00  0.00    -0.278 C  
HETATM   17  O   UNL     1     -10.881  16.745  67.732  1.00  0.00    -0.341 OA 
HETATM   18  H   UNL     1     -10.830  17.358  68.456  1.00  0.00     0.000 HD 
ENDBRANCH  13  16
ENDBRANCH  10  13
ENDBRANCH   7  10
ENDBRANCH   4   7
ENDBRANCH   2   4
TORSDOF 5
ENDMDL
MODEL       37
REMARK 921   NORMALIZED FREE ENERGY PREDICTED BY IDOCK:   -4.38 KCAL/MOL
REMARK 922        TOTAL FREE ENERGY PREDICTED BY IDOCK:   -5.97 KCAL/MOL
REMARK 923 INTER-LIGAND FREE ENERGY PREDICTED BY IDOCK:   -5.37 KCAL/MOL
REMARK 924 INTRA-LIGAND FREE ENERGY PREDICTED BY IDOCK:   -0.60 KCAL/MOL
REMARK 927      BINDING AFFINITY PREDICTED BY RF-SCORE:    0.00 PKD
ROOT
HETATM    1  O   UNL     1     -11.523  16.499  63.712  1.00  0.00    -1.615 OA 
HETATM    2  C   UNL     1     -10.931  15.824  64.825  1.00  0.00    -0.393 C  
HETATM    3  H   UNL     1     -11.194  17.390  63.694  1.00  0.00     0.000 HD 
ENDROOT
BRANCH   2   4
HETATM    4  C   UNL     1     -11.461  14.387  64.854  1.00  0.00    -0.386 C  
HETATM    5  H   UNL     1     -10.734  12.607  64.466  1.00  0.00     0.000 HD 
HETATM    6  O   UNL     1     -10.405  13.498  64.448  1.00  0.00    -0.433 OA 
BRANCH   4   7
HETATM    7  C   UNL     1     -12.022  13.961  66.230  1.00  0.00    -0.434 C  
HETATM    8  O   UNL     1     -13.384  13.520  66.068  1.00  0.00    -0.138 OA 
HETATM    9  H   UNL     1     -13.728  13.258  66.914  1.00  0.00     0.000 HD 
BRANCH   7  10
HETATM   10  C   UNL     1     -11.215  12.821  66.903  1.00  0.00    -0.296 C  
HETATM   11  H   UNL     1     -11.584  11.082  67.790  1.00  0.00     0.000 HD 
HETATM   12  O   UNL     1     -12.078  11.781  67.378  1.00  0.00    -0.595 OA 
BRANCH  10  13
HETATM   13  C   UNL     1     -10.334  13.322  68.060  1.00  0.00    -0.241 C  
HETATM   14  H   UNL     1     -10.050  15.025  69.001  1.00  0.00     0.000 HD 
HETATM   15  O   UNL     1     -10.594  14.716  68.286  1.00  0.00    -0.228 OA 
BRANCH  13  16
HETATM   16  C   UNL     1      -8.833  13.107  67.775  1.00  0.00    -0.191 C  
HETATM   17  O   UNL     1      -8.379  13.924  66.694  1.00  0.00    -0.424 OA 
HETATM   18  H   UNL     1      -7.455  13.792  66.519  1.00  0.00     0.000 HD 
ENDBRANCH  13  16
ENDBRANCH  10  13
ENDBRANCH   7  10
ENDBRANCH   4   7
ENDBRANCH   2   4
TORSDOF 5
ENDMDL
MODEL       38
REMARK 921   NORMALIZED FREE ENERGY PREDICTED BY IDOCK:   -4.37 KCAL/MOL
REMARK 922        TOTAL FREE ENERGY PREDICTED BY IDOCK:   -5.96 KCAL/MOL
REMARK 923 INTER-LIGAND FREE ENERGY PREDICTED BY IDOCK:   -5.42 KCAL/MOL
REMARK 924 INTRA-LIGAND FREE ENERGY PREDICTED BY IDOCK:   -0.54 KCAL/MOL
REMARK 927      BINDING AFFINITY PREDICTED BY RF-SCORE:    0.00 PKD
ROOT
HETATM    1  O   UNL     1     -11.366  17.023  64.370  1.00  0.00    -1.140 OA 
HETATM    2  C   UNL     1     -11.746  15.654  64.207  1.00  0.00    -0.169 C  
HETATM    3  H   UNL     1     -11.656  17.507  63.606  1.00  0.00     0.000 HD 
ENDROOT
BRANCH   2   4
HETATM    4  C   UNL     1     -11.278  14.875  65.440  1.00  0.00    -0.359 C  
HETATM    5  H   UNL     1     -10.666  15.328  67.248  1.00  0.00     0.000 HD 
HETATM    6  O   UNL     1     -10.957  15.812  66.483  1.00  0.00    -0.278 OA 
BRANCH   4   7
HETATM    7  C   UNL     1     -12.309  13.840  65.947  1.00  0.00    -0.476 C  
HETATM    8  O   UNL     1     -13.598  14.142  65.379  1.00  0.00    -0.600 OA 
HETATM    9  H   UNL     1     -14.232  13.506  65.691  1.00  0.00     0.000 HD 
BRANCH   7  10
HETATM   10  C   UNL     1     -11.948  12.376  65.588  1.00  0.00    -0.386 C  
HETATM   11  H   UNL     1     -10.619  11.008  66.146  1.00  0.00     0.000 HD 
HETATM   12  O   UNL     1     -10.841  11.905  66.366  1.00  0.00    -0.256 OA 
BRANCH  10  13
HETATM   13  C   UNL     1     -11.635  12.194  64.092  1.00  0.00    -0.390 C  
HETATM   14  H   UNL     1     -12.668  11.894  62.447  1.00  0.00     0.000 HD 
HETATM   15  O   UNL     1     -12.861  12.006  63.370  1.00  0.00    -0.760 OA 
BRANCH  13  16
HETATM   16  C   UNL     1     -10.690  11.000  63.844  1.00  0.00    -0.240 C  
HETATM   17  O   UNL     1      -9.318  11.397  63.874  1.00  0.00    -0.369 OA 
HETATM   18  H   UNL     1      -8.736  10.662  63.722  1.00  0.00     0.000 HD 
ENDBRANCH  13  16
ENDBRANCH  10  13
ENDBRANCH   7  10
ENDBRANCH   4   7
ENDBRANCH   2   4
TORSDOF 5
ENDMDL
MODEL       39
REMARK 921   NORMALIZED FREE ENERGY PREDICTED BY IDOCK:   -4.37 KCAL/MOL
REMARK 922        TOTAL FREE ENERGY PREDICTED BY IDOCK:   -5.96 KCAL/MOL
REMARK 923 INTER-LIGAND FREE ENERGY PREDICTED BY IDOCK:   -4.96 KCAL/MOL
REMARK 924 INTRA-LIGAND FREE ENERGY PREDICTED BY IDOCK:   -1.00 KCAL/MOL
REMARK 927      BINDING AFFINITY PREDICTED BY RF-SCORE:    0.00 PKD
ROOT
HETATM    1  O   UNL     1     -12.157  10.803  68.273  1.00  0.00    -0.805 OA 
HETATM    2  C   UNL     1     -11.721  12.011  68.904  1.00  0.00    -0.326 C  
HETATM    3  H   UNL     1     -12.194  10.119  68.931  1.00  0.00     0.000 HD 
ENDROOT
BRANCH   2   4
HETATM    4  C   UNL     1     -11.661  13.113  67.843  1.00  0.00    -0.357 C  
HETATM    5  H   UNL     1     -12.014  15.042  67.791  1.00  0.00     0.000 HD 
HETATM    6  O   UNL     1     -12.052  14.358  68.449  1.00  0.00    -0.322 OA 
BRANCH   4   7
HETATM    7  C   UNL     1     -10.274  13.255  67.174  1.00  0.00    -0.246 C  
HETATM    8  O   UNL     1      -9.452  12.134  67.553  1.00  0.00    -0.174 OA 
HETATM    9  H   UNL     1      -8.599  12.221  67.143  1.00  0.00     0.000 HD 
BRANCH   7  10
HETATM   10  C   UNL     1     -10.335  13.315  65.627  1.00  0.00    -0.287 C  
HETATM   11  H   UNL     1     -10.697  14.669  64.219  1.00  0.00     0.000 HD 
HETATM   12  O   UNL     1     -10.659  14.632  65.167  1.00  0.00    -0.363 OA 
BRANCH  10  13
HETATM   13  C   UNL     1     -11.334  12.306  65.034  1.00  0.00    -0.328 C  
HETATM   14  H   UNL     1     -11.516  10.350  64.971  1.00  0.00     0.000 HD 
HETATM   15  O   UNL     1     -10.899  10.972  65.337  1.00  0.00    -0.206 OA 
BRANCH  13  16
HETATM   16  C   UNL     1     -11.485  12.476  63.508  1.00  0.00    -0.496 C  
HETATM   17  O   UNL     1     -12.293  13.609  63.181  1.00  0.00    -1.045 OA 
HETATM   18  H   UNL     1     -12.386  13.714  62.241  1.00  0.00     0.000 HD 
ENDBRANCH  13  16
ENDBRANCH  10  13
ENDBRANCH   7  10
ENDBRANCH   4   7
ENDBRANCH   2   4
TORSDOF 5
ENDMDL
MODEL       40
REMARK 921   NORMALIZED FREE ENERGY PREDICTED BY IDOCK:   -4.37 KCAL/MOL
REMARK 922        TOTAL FREE ENERGY PREDICTED BY IDOCK:   -5.96 KCAL/MOL
REMARK 923 INTER-LIGAND FREE ENERGY PREDICTED BY IDOCK:   -5.67 KCAL/MOL
REMARK 924 INTRA-LIGAND FREE ENERGY PREDICTED BY IDOCK:   -0.29 KCAL/MOL
REMARK 927      BINDING AFFINITY PREDICTED BY RF-SCORE:    0.00 PKD
ROOT
HETATM    1  O   UNL     1     -12.532  14.211  63.023  1.00  0.00    -1.077 OA 
HETATM    2  C   UNL     1     -12.190  14.799  64.282  1.00  0.00    -0.379 C  
HETATM    3  H   UNL     1     -12.114  14.715  62.335  1.00  0.00     0.000 HD 
ENDROOT
BRANCH   2   4
HETATM    4  C   UNL     1     -12.864  13.986  65.391  1.00  0.00    -0.410 C  
HETATM    5  H   UNL     1     -13.515  12.147  65.596  1.00  0.00     0.000 HD 
HETATM    6  O   UNL     1     -13.098  12.651  64.908  1.00  0.00    -0.850 OA 
BRANCH   4   7
HETATM    7  C   UNL     1     -12.054  13.945  66.708  1.00  0.00    -0.439 C  
HETATM    8  O   UNL     1     -11.941  12.579  67.150  1.00  0.00    -0.484 OA 
HETATM    9  H   UNL     1     -11.444  12.554  67.959  1.00  0.00     0.000 HD 
BRANCH   7  10
HETATM   10  C   UNL     1     -10.627  14.536  66.577  1.00  0.00    -0.297 C  
HETATM   11  H   UNL     1      -8.754  13.874  66.567  1.00  0.00     0.000 HD 
HETATM   12  O   UNL     1      -9.629  13.512  66.647  1.00  0.00    -0.264 OA 
BRANCH  10  13
HETATM   13  C   UNL     1     -10.332  15.611  67.638  1.00  0.00    -0.275 C  
HETATM   14  H   UNL     1     -11.338  16.527  69.057  1.00  0.00     0.000 HD 
HETATM   15  O   UNL     1     -11.521  15.864  68.402  1.00  0.00    -0.365 OA 
BRANCH  13  16
HETATM   16  C   UNL     1      -9.826  16.922  67.003  1.00  0.00    -0.270 C  
HETATM   17  O   UNL     1      -9.895  16.879  65.577  1.00  0.00    -0.559 OA 
HETATM   18  H   UNL     1      -9.584  17.687  65.186  1.00  0.00     0.000 HD 
ENDBRANCH  13  16
ENDBRANCH  10  13
ENDBRANCH   7  10
ENDBRANCH   4   7
ENDBRANCH   2   4
TORSDOF 5
ENDMDL
MODEL       41
REMARK 921   NORMALIZED FREE ENERGY PREDICTED BY IDOCK:   -4.35 KCAL/MOL
REMARK 922        TOTAL FREE ENERGY PREDICTED BY IDOCK:   -5.94 KCAL/MOL
REMARK 923 INTER-LIGAND FREE ENERGY PREDICTED BY IDOCK:   -5.35 KCAL/MOL
REMARK 924 INTRA-LIGAND FREE ENERGY PREDICTED BY IDOCK:   -0.59 KCAL/MOL
REMARK 927      BINDING AFFINITY PREDICTED BY RF-SCORE:    0.00 PKD
ROOT
HETATM    1  O   UNL     1     -12.692  11.314  62.709  1.00  0.00    -0.876 OA 
HETATM    2  C   UNL     1     -12.700  11.976  63.977  1.00  0.00    -0.305 C  
HETATM    3  H   UNL     1     -13.536  10.895  62.586  1.00  0.00     0.000 HD 
ENDROOT
BRANCH   2   4
HETATM    4  C   UNL     1     -11.340  12.652  64.175  1.00  0.00    -0.383 C  
HETATM    5  H   UNL     1      -9.570  12.533  63.338  1.00  0.00     0.000 HD 
HETATM    6  O   UNL     1     -10.414  12.114  63.215  1.00  0.00    -0.432 OA 
BRANCH   4   7
HETATM    7  C   UNL     1     -11.392  14.193  64.065  1.00  0.00     0.052 C  
HETATM    8  O   UNL     1     -12.739  14.639  64.320  1.00  0.00    -0.679 OA 
HETATM    9  H   UNL     1     -12.771  15.586  64.251  1.00  0.00     0.000 HD 
BRANCH   7  10
HETATM   10  C   UNL     1     -10.443  14.918  65.053  1.00  0.00    -0.401 C  
HETATM   11  H   UNL     1      -9.681  14.605  66.861  1.00  0.00     0.000 HD 
HETATM   12  O   UNL     1     -10.263  14.161  66.255  1.00  0.00    -0.279 OA 
BRANCH  10  13
HETATM   13  C   UNL     1     -10.929  16.334  65.409  1.00  0.00    -0.197 C  
HETATM   14  H   UNL     1     -11.623  17.891  64.429  1.00  0.00     0.000 HD 
HETATM   15  O   UNL     1     -11.323  17.017  64.209  1.00  0.00    -1.191 OA 
BRANCH  13  16
HETATM   16  C   UNL     1      -9.842  17.147  66.144  1.00  0.00    -0.262 C  
HETATM   17  O   UNL     1      -8.548  16.564  65.982  1.00  0.00    -0.398 OA 
HETATM   18  H   UNL     1      -7.879  17.064  66.434  1.00  0.00     0.000 HD 
ENDBRANCH  13  16
ENDBRANCH  10  13
ENDBRANCH   7  10
ENDBRANCH   4   7
ENDBRANCH   2   4
TORSDOF 5
ENDMDL
MODEL       42
REMARK 921   NORMALIZED FREE ENERGY PREDICTED BY IDOCK:   -4.34 KCAL/MOL
REMARK 922        TOTAL FREE ENERGY PREDICTED BY IDOCK:   -5.92 KCAL/MOL
REMARK 923 INTER-LIGAND FREE ENERGY PREDICTED BY IDOCK:   -5.14 KCAL/MOL
REMARK 924 INTRA-LIGAND FREE ENERGY PREDICTED BY IDOCK:   -0.78 KCAL/MOL
REMARK 927      BINDING AFFINITY PREDICTED BY RF-SCORE:    0.00 PKD
ROOT
HETATM    1  O   UNL     1     -14.373   8.832  73.255  1.00  0.00    -1.125 OA 
HETATM    2  C   UNL     1     -14.295   8.414  71.889  1.00  0.00    -0.473 C  
HETATM    3  H   UNL     1     -15.135   8.424  73.649  1.00  0.00     0.000 HD 
ENDROOT
BRANCH   2   4
HETATM    4  C   UNL     1     -13.067   9.072  71.254  1.00  0.00    -0.220 C  
HETATM    5  H   UNL     1     -12.366  10.898  71.100  1.00  0.00     0.000 HD 
HETATM    6  O   UNL     1     -13.128  10.489  71.493  1.00  0.00    -0.400 OA 
BRANCH   4   7
HETATM    7  C   UNL     1     -11.724   8.499  71.764  1.00  0.00    -0.327 C  
HETATM    8  O   UNL     1     -11.990   7.445  72.709  1.00  0.00    -0.545 OA 
HETATM    9  H   UNL     1     -11.165   7.093  73.023  1.00  0.00     0.000 HD 
BRANCH   7  10
HETATM   10  C   UNL     1     -10.825   7.930  70.637  1.00  0.00    -0.237 C  
HETATM   11  H   UNL     1     -10.138   8.511  68.865  1.00  0.00     0.000 HD 
HETATM   12  O   UNL     1     -10.689   8.860  69.556  1.00  0.00    -0.230 OA 
BRANCH  10  13
HETATM   13  C   UNL     1     -11.338   6.585  70.092  1.00  0.00    -0.402 C  
HETATM   14  H   UNL     1     -11.315   4.708  70.677  1.00  0.00     0.000 HD 
HETATM   15  O   UNL     1     -10.998   5.538  71.014  1.00  0.00    -0.222 OA 
BRANCH  13  16
HETATM   16  C   UNL     1     -10.757   6.270  68.699  1.00  0.00    -0.298 C  
HETATM   17  O   UNL     1     -11.633   6.694  67.653  1.00  0.00    -0.664 OA 
HETATM   18  H   UNL     1     -11.275   6.500  66.795  1.00  0.00     0.000 HD 
ENDBRANCH  13  16
ENDBRANCH  10  13
ENDBRANCH   7  10
ENDBRANCH   4   7
ENDBRANCH   2   4
TORSDOF 5
ENDMDL
MODEL       43
REMARK 921   NORMALIZED FREE ENERGY PREDICTED BY IDOCK:   -4.33 KCAL/MOL
REMARK 922        TOTAL FREE ENERGY PREDICTED BY IDOCK:   -5.91 KCAL/MOL
REMARK 923 INTER-LIGAND FREE ENERGY PREDICTED BY IDOCK:   -5.44 KCAL/MOL
REMARK 924 INTRA-LIGAND FREE ENERGY PREDICTED BY IDOCK:   -0.48 KCAL/MOL
REMARK 927      BINDING AFFINITY PREDICTED BY RF-SCORE:    0.00 PKD
ROOT
HETATM    1  O   UNL     1     -10.666  15.930  66.991  1.00  0.00    -0.316 OA 
HETATM    2  C   UNL     1     -10.345  15.682  65.620  1.00  0.00    -0.385 C  
HETATM    3  H   UNL     1      -9.853  16.033  67.474  1.00  0.00     0.000 HD 
ENDROOT
BRANCH   2   4
HETATM    4  C   UNL     1     -11.655  15.515  64.843  1.00  0.00    -0.201 C  
HETATM    5  H   UNL     1     -12.426  16.260  63.200  1.00  0.00     0.000 HD 
HETATM    6  O   UNL     1     -11.614  16.364  63.682  1.00  0.00    -0.926 OA 
BRANCH   4   7
HETATM    7  C   UNL     1     -11.947  14.054  64.428  1.00  0.00    -0.454 C  
HETATM    8  O   UNL     1     -12.401  14.034  63.061  1.00  0.00    -1.101 OA 
HETATM    9  H   UNL     1     -12.581  13.136  62.806  1.00  0.00     0.000 HD 
BRANCH   7  10
HETATM   10  C   UNL     1     -10.718  13.117  64.548  1.00  0.00    -0.398 C  
HETATM   11  H   UNL     1      -9.457  12.179  63.332  1.00  0.00     0.000 HD 
HETATM   12  O   UNL     1     -10.210  12.753  63.259  1.00  0.00    -0.212 OA 
BRANCH  10  13
HETATM   13  C   UNL     1     -11.020  11.844  65.356  1.00  0.00    -0.301 C  
HETATM   14  H   UNL     1     -12.211  11.347  66.840  1.00  0.00     0.000 HD 
HETATM   15  O   UNL     1     -12.024  12.133  66.341  1.00  0.00    -0.611 OA 
BRANCH  13  16
HETATM   16  C   UNL     1      -9.757  11.283  66.041  1.00  0.00    -0.220 C  
HETATM   17  O   UNL     1      -8.725  11.000  65.095  1.00  0.00    -0.310 OA 
HETATM   18  H   UNL     1      -7.947  10.656  65.516  1.00  0.00     0.000 HD 
ENDBRANCH  13  16
ENDBRANCH  10  13
ENDBRANCH   7  10
ENDBRANCH   4   7
ENDBRANCH   2   4
TORSDOF 5
ENDMDL
MODEL       44
REMARK 921   NORMALIZED FREE ENERGY PREDICTED BY IDOCK:   -4.31 KCAL/MOL
REMARK 922        TOTAL FREE ENERGY PREDICTED BY IDOCK:   -5.88 KCAL/MOL
REMARK 923 INTER-LIGAND FREE ENERGY PREDICTED BY IDOCK:   -5.41 KCAL/MOL
REMARK 924 INTRA-LIGAND FREE ENERGY PREDICTED BY IDOCK:   -0.47 KCAL/MOL
REMARK 927      BINDING AFFINITY PREDICTED BY RF-SCORE:    0.00 PKD
ROOT
HETATM    1  O   UNL     1     -10.153  10.749  62.342  1.00  0.00    -0.691 OA 
HETATM    2  C   UNL     1      -9.706  10.870  63.695  1.00  0.00    -0.329 C  
HETATM    3  H   UNL     1      -9.424  10.445  61.813  1.00  0.00     0.000 HD 
ENDROOT
BRANCH   2   4
HETATM    4  C   UNL     1     -10.880  11.360  64.547  1.00  0.00    -0.309 C  
HETATM    5  H   UNL     1     -11.332  11.368  66.456  1.00  0.00     0.000 HD 
HETATM    6  O   UNL     1     -10.604  11.064  65.928  1.00  0.00    -0.252 OA 
BRANCH   4   7
HETATM    7  C   UNL     1     -11.186  12.866  64.373  1.00  0.00    -0.351 C  
HETATM    8  O   UNL     1     -11.870  13.066  63.121  1.00  0.00    -0.806 OA 
HETATM    9  H   UNL     1     -12.057  13.992  63.014  1.00  0.00     0.000 HD 
BRANCH   7  10
HETATM   10  C   UNL     1     -12.061  13.457  65.508  1.00  0.00    -0.428 C  
HETATM   11  H   UNL     1     -13.791  14.419  65.684  1.00  0.00     0.000 HD 
HETATM   12  O   UNL     1     -13.254  14.057  64.989  1.00  0.00    -0.720 OA 
BRANCH  10  13
HETATM   13  C   UNL     1     -11.304  14.485  66.365  1.00  0.00    -0.349 C  
HETATM   14  H   UNL     1      -9.463  15.168  66.478  1.00  0.00     0.000 HD 
HETATM   15  O   UNL     1      -9.931  14.532  65.949  1.00  0.00    -0.299 OA 
BRANCH  13  16
HETATM   16  C   UNL     1     -11.386  14.152  67.869  1.00  0.00    -0.294 C  
HETATM   17  O   UNL     1     -12.240  15.062  68.565  1.00  0.00    -0.585 OA 
HETATM   18  H   UNL     1     -12.291  14.856  69.491  1.00  0.00     0.000 HD 
ENDBRANCH  13  16
ENDBRANCH  10  13
ENDBRANCH   7  10
ENDBRANCH   4   7
ENDBRANCH   2   4
TORSDOF 5
ENDMDL
MODEL       45
REMARK 921   NORMALIZED FREE ENERGY PREDICTED BY IDOCK:   -4.28 KCAL/MOL
REMARK 922        TOTAL FREE ENERGY PREDICTED BY IDOCK:   -5.84 KCAL/MOL
REMARK 923 INTER-LIGAND FREE ENERGY PREDICTED BY IDOCK:   -5.12 KCAL/MOL
REMARK 924 INTRA-LIGAND FREE ENERGY PREDICTED BY IDOCK:   -0.72 KCAL/MOL
REMARK 927      BINDING AFFINITY PREDICTED BY RF-SCORE:    0.00 PKD
ROOT
HETATM    1  O   UNL     1     -12.511  14.211  63.257  1.00  0.00    -1.146 OA 
HETATM    2  C   UNL     1     -12.481  12.784  63.352  1.00  0.00    -0.339 C  
HETATM    3  H   UNL     1     -13.116  14.451  62.566  1.00  0.00     0.000 HD 
ENDROOT
BRANCH   2   4
HETATM    4  C   UNL     1     -11.504  12.397  64.467  1.00  0.00    -0.337 C  
HETATM    5  H   UNL     1      -9.559  12.437  64.715  1.00  0.00     0.000 HD 
HETATM    6  O   UNL     1     -10.164  12.677  64.024  1.00  0.00    -0.397 OA 
BRANCH   4   7
HETATM    7  C   UNL     1     -11.785  13.108  65.811  1.00  0.00    -0.374 C  
HETATM    8  O   UNL     1     -11.944  12.117  66.844  1.00  0.00    -0.603 OA 
HETATM    9  H   UNL     1     -12.117  12.554  67.670  1.00  0.00     0.000 HD 
BRANCH   7  10
HETATM   10  C   UNL     1     -10.662  14.086  66.241  1.00  0.00    -0.289 C  
HETATM   11  H   UNL     1      -9.556  14.441  67.854  1.00  0.00     0.000 HD 
HETATM   12  O   UNL     1     -10.244  13.841  67.589  1.00  0.00    -0.237 OA 
BRANCH  10  13
HETATM   13  C   UNL     1     -11.074  15.561  66.094  1.00  0.00    -0.177 C  
HETATM   14  H   UNL     1     -11.125  16.889  64.644  1.00  0.00     0.000 HD 
HETATM   15  O   UNL     1     -10.871  15.978  64.735  1.00  0.00    -0.587 OA 
BRANCH  13  16
HETATM   16  C   UNL     1     -10.280  16.477  67.049  1.00  0.00    -0.288 C  
HETATM   17  O   UNL     1     -10.943  16.631  68.305  1.00  0.00    -0.350 OA 
HETATM   18  H   UNL     1     -10.454  17.195  68.893  1.00  0.00     0.000 HD 
ENDBRANCH  13  16
ENDBRANCH  10  13
ENDBRANCH   7  10
ENDBRANCH   4   7
ENDBRANCH   2   4
TORSDOF 5
ENDMDL
MODEL       46
REMARK 921   NORMALIZED FREE ENERGY PREDICTED BY IDOCK:   -4.28 KCAL/MOL
REMARK 922        TOTAL FREE ENERGY PREDICTED BY IDOCK:   -5.84 KCAL/MOL
REMARK 923 INTER-LIGAND FREE ENERGY PREDICTED BY IDOCK:   -5.33 KCAL/MOL
REMARK 924 INTRA-LIGAND FREE ENERGY PREDICTED BY IDOCK:   -0.51 KCAL/MOL
REMARK 927      BINDING AFFINITY PREDICTED BY RF-SCORE:    0.00 PKD
ROOT
HETATM    1  O   UNL     1      -8.310  17.050  68.218  1.00  0.00    -0.212 OA 
HETATM    2  C   UNL     1      -9.714  17.143  67.961  1.00  0.00    -0.274 C  
HETATM    3  H   UNL     1      -8.185  16.919  69.151  1.00  0.00     0.000 HD 
ENDROOT
BRANCH   2   4
HETATM    4  C   UNL     1      -9.914  17.354  66.457  1.00  0.00    -0.311 C  
HETATM    5  H   UNL     1      -8.790  17.236  64.853  1.00  0.00     0.000 HD 
HETATM    6  O   UNL     1      -8.666  17.105  65.786  1.00  0.00    -0.527 OA 
BRANCH   4   7
HETATM    7  C   UNL     1     -11.033  16.475  65.852  1.00  0.00     0.029 C  
HETATM    8  O   UNL     1     -11.086  16.694  64.429  1.00  0.00    -1.133 OA 
HETATM    9  H   UNL     1     -11.774  16.154  64.057  1.00  0.00     0.000 HD 
BRANCH   7  10
HETATM   10  C   UNL     1     -10.837  14.959  66.106  1.00  0.00    -0.327 C  
HETATM   11  H   UNL     1      -9.740  13.473  65.371  1.00  0.00     0.000 HD 
HETATM   12  O   UNL     1      -9.861  14.402  65.216  1.00  0.00    -0.319 OA 
BRANCH  10  13
HETATM   13  C   UNL     1     -12.148  14.164  65.987  1.00  0.00    -0.432 C  
HETATM   14  H   UNL     1     -13.077  12.782  67.033  1.00  0.00     0.000 HD 
HETATM   15  O   UNL     1     -12.267  13.272  67.106  1.00  0.00    -0.335 OA 
BRANCH  13  16
HETATM   16  C   UNL     1     -12.219  13.365  64.669  1.00  0.00    -0.407 C  
HETATM   17  O   UNL     1     -12.378  14.225  63.539  1.00  0.00    -1.080 OA 
HETATM   18  H   UNL     1     -12.421  13.734  62.727  1.00  0.00     0.000 HD 
ENDBRANCH  13  16
ENDBRANCH  10  13
ENDBRANCH   7  10
ENDBRANCH   4   7
ENDBRANCH   2   4
TORSDOF 5
ENDMDL
MODEL       47
REMARK 921   NORMALIZED FREE ENERGY PREDICTED BY IDOCK:   -4.28 KCAL/MOL
REMARK 922        TOTAL FREE ENERGY PREDICTED BY IDOCK:   -5.84 KCAL/MOL
REMARK 923 INTER-LIGAND FREE ENERGY PREDICTED BY IDOCK:   -5.23 KCAL/MOL
REMARK 924 INTRA-LIGAND FREE ENERGY PREDICTED BY IDOCK:   -0.61 KCAL/MOL
REMARK 927      BINDING AFFINITY PREDICTED BY RF-SCORE:    0.00 PKD
ROOT
HETATM    1  O   UNL     1      -9.884  12.128  69.139  1.00  0.00    -0.403 OA 
HETATM    2  C   UNL     1      -9.747  13.145  68.142  1.00  0.00    -0.228 C  
HETATM    3  H   UNL     1     -10.104  12.546  69.963  1.00  0.00     0.000 HD 
ENDROOT
BRANCH   2   4
HETATM    4  C   UNL     1      -9.393  12.471  66.813  1.00  0.00    -0.230 C  
HETATM    5  H   UNL     1      -7.991  11.254  66.177  1.00  0.00     0.000 HD 
HETATM    6  O   UNL     1      -8.211  11.673  67.002  1.00  0.00    -0.157 OA 
BRANCH   4   7
HETATM    7  C   UNL     1     -10.537  11.608  66.232  1.00  0.00    -0.258 C  
HETATM    8  O   UNL     1     -11.671  11.671  67.117  1.00  0.00    -0.566 OA 
HETATM    9  H   UNL     1     -12.374  11.141  66.760  1.00  0.00     0.000 HD 
BRANCH   7  10
HETATM   10  C   UNL     1     -10.994  12.054  64.820  1.00  0.00    -0.311 C  
HETATM   11  H   UNL     1     -10.391  13.314  63.406  1.00  0.00     0.000 HD 
HETATM   12  O   UNL     1     -10.111  13.041  64.272  1.00  0.00    -0.342 OA 
BRANCH  10  13
HETATM   13  C   UNL     1     -12.434  12.593  64.806  1.00  0.00    -0.484 C  
HETATM   14  H   UNL     1     -13.983  12.490  63.599  1.00  0.00     0.000 HD 
HETATM   15  O   UNL     1     -13.094  12.157  63.608  1.00  0.00    -0.787 OA 
BRANCH  13  16
HETATM   16  C   UNL     1     -12.473  14.133  64.897  1.00  0.00    -0.401 C  
HETATM   17  O   UNL     1     -12.462  14.738  63.604  1.00  0.00    -1.064 OA 
HETATM   18  H   UNL     1     -12.486  15.686  63.659  1.00  0.00     0.000 HD 
ENDBRANCH  13  16
ENDBRANCH  10  13
ENDBRANCH   7  10
ENDBRANCH   4   7
ENDBRANCH   2   4
TORSDOF 5
ENDMDL
MODEL       48
REMARK 921   NORMALIZED FREE ENERGY PREDICTED BY IDOCK:   -4.23 KCAL/MOL
REMARK 922        TOTAL FREE ENERGY PREDICTED BY IDOCK:   -5.77 KCAL/MOL
REMARK 923 INTER-LIGAND FREE ENERGY PREDICTED BY IDOCK:   -5.01 KCAL/MOL
REMARK 924 INTRA-LIGAND FREE ENERGY PREDICTED BY IDOCK:   -0.77 KCAL/MOL
REMARK 927      BINDING AFFINITY PREDICTED BY RF-SCORE:    0.00 PKD
ROOT
HETATM    1  O   UNL     1      -9.260  12.425  68.610  1.00  0.00    -0.374 OA 
HETATM    2  C   UNL     1     -10.005  11.209  68.506  1.00  0.00    -0.199 C  
HETATM    3  H   UNL     1      -9.040  12.563  69.525  1.00  0.00     0.000 HD 
ENDROOT
BRANCH   2   4
HETATM    4  C   UNL     1     -10.358  10.987  67.032  1.00  0.00    -0.228 C  
HETATM    5  H   UNL     1     -10.927   9.466  65.931  1.00  0.00     0.000 HD 
HETATM    6  O   UNL     1     -10.707   9.604  66.845  1.00  0.00    -0.203 OA 
BRANCH   4   7
HETATM    7  C   UNL     1     -11.498  11.901  66.524  1.00  0.00    -0.314 C  
HETATM    8  O   UNL     1     -12.142  12.522  67.653  1.00  0.00    -0.436 OA 
HETATM    9  H   UNL     1     -12.842  13.083  67.341  1.00  0.00     0.000 HD 
BRANCH   7  10
HETATM   10  C   UNL     1     -11.016  13.016  65.562  1.00  0.00    -0.274 C  
HETATM   11  H   UNL     1      -9.368  14.082  65.251  1.00  0.00     0.000 HD 
HETATM   12  O   UNL     1      -9.663  13.398  65.840  1.00  0.00    -0.262 OA 
BRANCH  10  13
HETATM   13  C   UNL     1     -11.917  14.263  65.603  1.00  0.00    -0.386 C  
HETATM   14  H   UNL     1     -13.754  14.711  65.064  1.00  0.00     0.000 HD 
HETATM   15  O   UNL     1     -13.198  13.942  65.039  1.00  0.00    -0.729 OA 
BRANCH  13  16
HETATM   16  C   UNL     1     -11.290  15.450  64.842  1.00  0.00    -0.363 C  
HETATM   17  O   UNL     1     -12.158  15.936  63.816  1.00  0.00    -1.239 OA 
HETATM   18  H   UNL     1     -11.773  16.667  63.348  1.00  0.00     0.000 HD 
ENDBRANCH  13  16
ENDBRANCH  10  13
ENDBRANCH   7  10
ENDBRANCH   4   7
ENDBRANCH   2   4
TORSDOF 5
ENDMDL
MODEL       49
REMARK 921   NORMALIZED FREE ENERGY PREDICTED BY IDOCK:   -4.21 KCAL/MOL
REMARK 922        TOTAL FREE ENERGY PREDICTED BY IDOCK:   -5.76 KCAL/MOL
REMARK 923 INTER-LIGAND FREE ENERGY PREDICTED BY IDOCK:   -5.40 KCAL/MOL
REMARK 924 INTRA-LIGAND FREE ENERGY PREDICTED BY IDOCK:   -0.36 KCAL/MOL
REMARK 927      BINDING AFFINITY PREDICTED BY RF-SCORE:    0.00 PKD
ROOT
HETATM    1  O   UNL     1     -11.685  11.750  70.585  1.00  0.00    -0.475 OA 
HETATM    2  C   UNL     1     -12.108  11.096  69.385  1.00  0.00    -0.326 C  
HETATM    3  H   UNL     1     -12.189  11.399  71.310  1.00  0.00     0.000 HD 
ENDROOT
BRANCH   2   4
HETATM    4  C   UNL     1     -11.296  11.662  68.217  1.00  0.00    -0.285 C  
HETATM    5  H   UNL     1     -10.912  11.121  66.370  1.00  0.00     0.000 HD 
HETATM    6  O   UNL     1     -11.416  10.769  67.095  1.00  0.00    -0.400 OA 
BRANCH   4   7
HETATM    7  C   UNL     1     -11.713  13.095  67.809  1.00  0.00    -0.358 C  
HETATM    8  O   UNL     1     -11.328  14.012  68.850  1.00  0.00    -0.248 OA 
HETATM    9  H   UNL     1     -11.585  14.892  68.600  1.00  0.00     0.000 HD 
BRANCH   7  10
HETATM   10  C   UNL     1     -11.077  13.571  66.478  1.00  0.00    -0.300 C  
HETATM   11  H   UNL     1      -9.465  14.575  65.893  1.00  0.00     0.000 HD 
HETATM   12  O   UNL     1      -9.855  14.283  66.709  1.00  0.00    -0.254 OA 
BRANCH  10  13
HETATM   13  C   UNL     1     -12.029  14.447  65.647  1.00  0.00    -0.354 C  
HETATM   14  H   UNL     1     -13.554  14.148  64.442  1.00  0.00     0.000 HD 
HETATM   15  O   UNL     1     -12.966  13.607  64.956  1.00  0.00    -0.724 OA 
BRANCH  13  16
HETATM   16  C   UNL     1     -11.266  15.327  64.635  1.00  0.00    -0.356 C  
HETATM   17  O   UNL     1     -12.158  16.053  63.788  1.00  0.00    -1.318 OA 
HETATM   18  H   UNL     1     -11.688  16.595  63.165  1.00  0.00     0.000 HD 
ENDBRANCH  13  16
ENDBRANCH  10  13
ENDBRANCH   7  10
ENDBRANCH   4   7
ENDBRANCH   2   4
TORSDOF 5
ENDMDL
MODEL       50
REMARK 921   NORMALIZED FREE ENERGY PREDICTED BY IDOCK:   -4.20 KCAL/MOL
REMARK 922        TOTAL FREE ENERGY PREDICTED BY IDOCK:   -5.73 KCAL/MOL
REMARK 923 INTER-LIGAND FREE ENERGY PREDICTED BY IDOCK:   -4.92 KCAL/MOL
REMARK 924 INTRA-LIGAND FREE ENERGY PREDICTED BY IDOCK:   -0.82 KCAL/MOL
REMARK 927      BINDING AFFINITY PREDICTED BY RF-SCORE:    0.00 PKD
ROOT
HETATM    1  O   UNL     1     -12.465  13.656  63.067  1.00  0.00    -1.020 OA 
HETATM    2  C   UNL     1     -12.389  12.275  63.432  1.00  0.00    -0.517 C  
HETATM    3  H   UNL     1     -13.213  13.772  62.492  1.00  0.00     0.000 HD 
ENDROOT
BRANCH   2   4
HETATM    4  C   UNL     1     -11.183  12.089  64.358  1.00  0.00    -0.344 C  
HETATM    5  H   UNL     1      -9.234  12.034  64.143  1.00  0.00     0.000 HD 
HETATM    6  O   UNL     1      -9.982  12.150  63.569  1.00  0.00    -0.405 OA 
BRANCH   4   7
HETATM    7  C   UNL     1     -11.121  13.120  65.509  1.00  0.00    -0.278 C  
HETATM    8  O   UNL     1     -12.460  13.527  65.850  1.00  0.00    -0.444 OA 
HETATM    9  H   UNL     1     -12.422  14.160  66.557  1.00  0.00     0.000 HD 
BRANCH   7  10
HETATM   10  C   UNL     1     -10.434  12.579  66.789  1.00  0.00    -0.225 C  
HETATM   11  H   UNL     1      -8.586  12.269  67.450  1.00  0.00     0.000 HD 
HETATM   12  O   UNL     1      -9.007  12.601  66.666  1.00  0.00    -0.217 OA 
BRANCH  10  13
HETATM   13  C   UNL     1     -10.894  11.156  67.151  1.00  0.00    -0.273 C  
HETATM   14  H   UNL     1     -12.431  10.345  68.072  1.00  0.00     0.000 HD 
HETATM   15  O   UNL     1     -12.147  11.224  67.848  1.00  0.00    -0.634 OA 
BRANCH  13  16
HETATM   16  C   UNL     1      -9.851  10.418  68.016  1.00  0.00    -0.150 C  
HETATM   17  O   UNL     1      -9.594  11.111  69.239  1.00  0.00    -0.407 OA 
HETATM   18  H   UNL     1      -8.953  10.657  69.772  1.00  0.00     0.000 HD 
ENDBRANCH  13  16
ENDBRANCH  10  13
ENDBRANCH   7  10
ENDBRANCH   4   7
ENDBRANCH   2   4
TORSDOF 5
ENDMDL
MODEL       51
REMARK 921   NORMALIZED FREE ENERGY PREDICTED BY IDOCK:   -4.17 KCAL/MOL
REMARK 922        TOTAL FREE ENERGY PREDICTED BY IDOCK:   -5.70 KCAL/MOL
REMARK 923 INTER-LIGAND FREE ENERGY PREDICTED BY IDOCK:   -4.70 KCAL/MOL
REMARK 924 INTRA-LIGAND FREE ENERGY PREDICTED BY IDOCK:   -1.00 KCAL/MOL
REMARK 927      BINDING AFFINITY PREDICTED BY RF-SCORE:    0.00 PKD
ROOT
HETATM    1  O   UNL     1     -11.472  13.074  69.540  1.00  0.00    -0.345 OA 
HETATM    2  C   UNL     1     -11.045  14.421  69.314  1.00  0.00    -0.271 C  
HETATM    3  H   UNL     1     -11.189  12.813  70.408  1.00  0.00     0.000 HD 
ENDROOT
BRANCH   2   4
HETATM    4  C   UNL     1     -11.501  14.842  67.914  1.00  0.00    -0.342 C  
HETATM    5  H   UNL     1     -11.560  16.516  66.893  1.00  0.00     0.000 HD 
HETATM    6  O   UNL     1     -11.278  16.255  67.762  1.00  0.00    -0.278 OA 
BRANCH   4   7
HETATM    7  C   UNL     1     -10.802  14.063  66.775  1.00  0.00    -0.294 C  
HETATM    8  O   UNL     1      -9.708  13.304  67.325  1.00  0.00    -0.221 OA 
HETATM    9  H   UNL     1      -9.278  12.826  66.626  1.00  0.00     0.000 HD 
BRANCH   7  10
HETATM   10  C   UNL     1     -11.743  13.088  66.022  1.00  0.00    -0.393 C  
HETATM   11  H   UNL     1     -12.695  11.383  66.389  1.00  0.00     0.000 HD 
HETATM   12  O   UNL     1     -12.119  11.981  66.850  1.00  0.00    -0.608 OA 
BRANCH  10  13
HETATM   13  C   UNL     1     -11.126  12.561  64.715  1.00  0.00    -0.301 C  
HETATM   14  H   UNL     1      -9.782  13.183  63.421  1.00  0.00     0.000 HD 
HETATM   15  O   UNL     1     -10.163  13.508  64.229  1.00  0.00    -0.368 OA 
BRANCH  13  16
HETATM   16  C   UNL     1     -12.199  12.301  63.637  1.00  0.00    -0.567 C  
HETATM   17  O   UNL     1     -13.491  12.107  64.215  1.00  0.00    -0.708 OA 
HETATM   18  H   UNL     1     -14.151  11.948  63.551  1.00  0.00     0.000 HD 
ENDBRANCH  13  16
ENDBRANCH  10  13
ENDBRANCH   7  10
ENDBRANCH   4   7
ENDBRANCH   2   4
TORSDOF 5
ENDMDL
MODEL       52
REMARK 921   NORMALIZED FREE ENERGY PREDICTED BY IDOCK:   -4.14 KCAL/MOL
REMARK 922        TOTAL FREE ENERGY PREDICTED BY IDOCK:   -5.67 KCAL/MOL
REMARK 923 INTER-LIGAND FREE ENERGY PREDICTED BY IDOCK:   -4.51 KCAL/MOL
REMARK 924 INTRA-LIGAND FREE ENERGY PREDICTED BY IDOCK:   -1.16 KCAL/MOL
REMARK 927      BINDING AFFINITY PREDICTED BY RF-SCORE:    0.00 PKD
ROOT
HETATM    1  O   UNL     1      -9.725  13.667  68.968  1.00  0.00    -0.415 OA 
HETATM    2  C   UNL     1     -10.831  12.761  68.942  1.00  0.00    -0.196 C  
HETATM    3  H   UNL     1      -9.555  13.906  69.872  1.00  0.00     0.000 HD 
ENDROOT
BRANCH   2   4
HETATM    4  C   UNL     1     -11.103  12.377  67.485  1.00  0.00    -0.266 C  
HETATM    5  H   UNL     1     -12.183  11.025  66.559  1.00  0.00     0.000 HD 
HETATM    6  O   UNL     1     -12.013  11.263  67.463  1.00  0.00    -0.612 OA 
BRANCH   4   7
HETATM    7  C   UNL     1     -11.660  13.541  66.632  1.00  0.00    -0.363 C  
HETATM    8  O   UNL     1     -12.170  14.565  67.507  1.00  0.00    -0.598 OA 
HETATM    9  H   UNL     1     -12.513  15.279  66.983  1.00  0.00     0.000 HD 
BRANCH   7  10
HETATM   10  C   UNL     1     -10.606  14.182  65.693  1.00  0.00    -0.310 C  
HETATM   11  H   UNL     1      -8.640  14.101  65.414  1.00  0.00     0.000 HD 
HETATM   12  O   UNL     1      -9.287  13.708  65.989  1.00  0.00    -0.152 OA 
BRANCH  10  13
HETATM   13  C   UNL     1     -10.621  15.719  65.748  1.00  0.00    -0.355 C  
HETATM   14  H   UNL     1     -10.950  17.187  64.482  1.00  0.00     0.000 HD 
HETATM   15  O   UNL     1     -10.940  16.238  64.448  1.00  0.00    -0.708 OA 
BRANCH  13  16
HETATM   16  C   UNL     1      -9.270  16.291  66.225  1.00  0.00    -0.328 C  
HETATM   17  O   UNL     1      -9.166  16.278  67.650  1.00  0.00    -0.204 OA 
HETATM   18  H   UNL     1      -8.334  16.629  67.944  1.00  0.00     0.000 HD 
ENDBRANCH  13  16
ENDBRANCH  10  13
ENDBRANCH   7  10
ENDBRANCH   4   7
ENDBRANCH   2   4
TORSDOF 5
ENDMDL
MODEL       53
REMARK 921   NORMALIZED FREE ENERGY PREDICTED BY IDOCK:   -4.14 KCAL/MOL
REMARK 922        TOTAL FREE ENERGY PREDICTED BY IDOCK:   -5.66 KCAL/MOL
REMARK 923 INTER-LIGAND FREE ENERGY PREDICTED BY IDOCK:   -5.07 KCAL/MOL
REMARK 924 INTRA-LIGAND FREE ENERGY PREDICTED BY IDOCK:   -0.60 KCAL/MOL
REMARK 927      BINDING AFFINITY PREDICTED BY RF-SCORE:    0.00 PKD
ROOT
HETATM    1  O   UNL     1     -11.718  11.463  62.995  1.00  0.00    -0.887 OA 
HETATM    2  C   UNL     1     -12.660  12.305  63.665  1.00  0.00    -0.490 C  
HETATM    3  H   UNL     1     -12.168  10.676  62.713  1.00  0.00     0.000 HD 
ENDROOT
BRANCH   2   4
HETATM    4  C   UNL     1     -11.933  13.574  64.120  1.00  0.00    -0.448 C  
HETATM    5  H   UNL     1     -12.333  15.495  64.154  1.00  0.00     0.000 HD 
HETATM    6  O   UNL     1     -12.784  14.707  63.872  1.00  0.00    -0.788 OA 
BRANCH   4   7
HETATM    7  C   UNL     1     -11.500  13.543  65.604  1.00  0.00    -0.315 C  
HETATM    8  O   UNL     1     -12.270  12.542  66.298  1.00  0.00    -0.600 OA 
HETATM    9  H   UNL     1     -12.005  12.522  67.210  1.00  0.00     0.000 HD 
BRANCH   7  10
HETATM   10  C   UNL     1      -9.996  13.229  65.805  1.00  0.00    -0.251 C  
HETATM   11  H   UNL     1      -8.754  11.708  65.495  1.00  0.00     0.000 HD 
HETATM   12  O   UNL     1      -9.677  11.901  65.372  1.00  0.00    -0.239 OA 
BRANCH  10  13
HETATM   13  C   UNL     1      -9.543  13.412  67.264  1.00  0.00    -0.234 C  
HETATM   14  H   UNL     1     -10.302  14.184  68.906  1.00  0.00     0.000 HD 
HETATM   15  O   UNL     1     -10.582  14.071  68.005  1.00  0.00    -0.239 OA 
BRANCH  13  16
HETATM   16  C   UNL     1      -8.233  14.222  67.362  1.00  0.00    -0.202 C  
HETATM   17  O   UNL     1      -7.092  13.416  67.064  1.00  0.00    -0.373 OA 
HETATM   18  H   UNL     1      -6.286  13.914  67.124  1.00  0.00     0.000 HD 
ENDBRANCH  13  16
ENDBRANCH  10  13
ENDBRANCH   7  10
ENDBRANCH   4   7
ENDBRANCH   2   4
TORSDOF 5
ENDMDL
MODEL       54
REMARK 921   NORMALIZED FREE ENERGY PREDICTED BY IDOCK:   -4.13 KCAL/MOL
REMARK 922        TOTAL FREE ENERGY PREDICTED BY IDOCK:   -5.65 KCAL/MOL
REMARK 923 INTER-LIGAND FREE ENERGY PREDICTED BY IDOCK:   -5.19 KCAL/MOL
REMARK 924 INTRA-LIGAND FREE ENERGY PREDICTED BY IDOCK:   -0.46 KCAL/MOL
REMARK 927      BINDING AFFINITY PREDICTED BY RF-SCORE:    0.00 PKD
ROOT
HETATM    1  O   UNL     1     -11.406  16.492  63.711  1.00  0.00    -1.553 OA 
HETATM    2  C   UNL     1     -11.738  15.193  64.211  1.00  0.00    -0.224 C  
HETATM    3  H   UNL     1     -11.782  16.582  62.843  1.00  0.00     0.000 HD 
ENDROOT
BRANCH   2   4
HETATM    4  C   UNL     1     -11.132  15.048  65.610  1.00  0.00    -0.349 C  
HETATM    5  H   UNL     1     -10.298  16.249  66.918  1.00  0.00     0.000 HD 
HETATM    6  O   UNL     1     -10.673  16.339  66.050  1.00  0.00    -0.295 OA 
BRANCH   4   7
HETATM    7  C   UNL     1     -12.107  14.444  66.648  1.00  0.00    -0.367 C  
HETATM    8  O   UNL     1     -13.152  13.734  65.955  1.00  0.00    -0.363 OA 
HETATM    9  H   UNL     1     -13.751  13.363  66.592  1.00  0.00     0.000 HD 
BRANCH   7  10
HETATM   10  C   UNL     1     -11.428  13.466  67.641  1.00  0.00    -0.319 C  
HETATM   11  H   UNL     1      -9.822  13.436  68.811  1.00  0.00     0.000 HD 
HETATM   12  O   UNL     1     -10.239  14.034  68.202  1.00  0.00    -0.231 OA 
BRANCH  10  13
HETATM   13  C   UNL     1     -11.092  12.109  66.999  1.00  0.00    -0.294 C  
HETATM   14  H   UNL     1     -11.684  10.246  67.212  1.00  0.00     0.000 HD 
HETATM   15  O   UNL     1     -11.892  11.084  67.608  1.00  0.00    -0.599 OA 
BRANCH  13  16
HETATM   16  C   UNL     1      -9.596  11.761  67.140  1.00  0.00    -0.181 C  
HETATM   17  O   UNL     1      -8.792  12.511  66.228  1.00  0.00    -0.413 OA 
HETATM   18  H   UNL     1      -7.870  12.297  66.315  1.00  0.00     0.000 HD 
ENDBRANCH  13  16
ENDBRANCH  10  13
ENDBRANCH   7  10
ENDBRANCH   4   7
ENDBRANCH   2   4
TORSDOF 5
ENDMDL
MODEL       55
REMARK 921   NORMALIZED FREE ENERGY PREDICTED BY IDOCK:   -4.13 KCAL/MOL
REMARK 922        TOTAL FREE ENERGY PREDICTED BY IDOCK:   -5.65 KCAL/MOL
REMARK 923 INTER-LIGAND FREE ENERGY PREDICTED BY IDOCK:   -5.16 KCAL/MOL
REMARK 924 INTRA-LIGAND FREE ENERGY PREDICTED BY IDOCK:   -0.49 KCAL/MOL
REMARK 927      BINDING AFFINITY PREDICTED BY RF-SCORE:    0.00 PKD
ROOT
HETATM    1  O   UNL     1     -12.431  14.442  63.290  1.00  0.00    -1.099 OA 
HETATM    2  C   UNL     1     -12.106  13.139  63.784  1.00  0.00    -0.495 C  
HETATM    3  H   UNL     1     -12.580  14.377  62.354  1.00  0.00     0.000 HD 
ENDROOT
BRANCH   2   4
HETATM    4  C   UNL     1     -11.866  13.244  65.293  1.00  0.00    -0.357 C  
HETATM    5  H   UNL     1     -11.640  11.981  66.777  1.00  0.00     0.000 HD 
HETATM    6  O   UNL     1     -11.789  11.916  65.841  1.00  0.00    -0.466 OA 
BRANCH   4   7
HETATM    7  C   UNL     1     -10.600  14.051  65.664  1.00  0.00    -0.307 C  
HETATM    8  O   UNL     1      -9.844  14.318  64.467  1.00  0.00    -0.612 OA 
HETATM    9  H   UNL     1      -9.066  14.814  64.695  1.00  0.00     0.000 HD 
BRANCH   7  10
HETATM   10  C   UNL     1     -10.908  15.402  66.359  1.00  0.00    -0.303 C  
HETATM   11  H   UNL     1     -10.718  17.340  65.962  1.00  0.00     0.000 HD 
HETATM   12  O   UNL     1     -10.529  16.511  65.536  1.00  0.00    -0.477 OA 
BRANCH  10  13
HETATM   13  C   UNL     1     -10.226  15.529  67.733  1.00  0.00    -0.243 C  
HETATM   14  H   UNL     1      -8.393  15.787  68.396  1.00  0.00     0.000 HD 
HETATM   15  O   UNL     1      -8.814  15.708  67.548  1.00  0.00    -0.175 OA 
BRANCH  13  16
HETATM   16  C   UNL     1     -10.488  14.296  68.622  1.00  0.00    -0.249 C  
HETATM   17  O   UNL     1      -9.274  13.755  69.145  1.00  0.00    -0.377 OA 
HETATM   18  H   UNL     1      -9.435  12.996  69.693  1.00  0.00     0.000 HD 
ENDBRANCH  13  16
ENDBRANCH  10  13
ENDBRANCH   7  10
ENDBRANCH   4   7
ENDBRANCH   2   4
TORSDOF 5
ENDMDL
MODEL       56
REMARK 921   NORMALIZED FREE ENERGY PREDICTED BY IDOCK:   -4.11 KCAL/MOL
REMARK 922        TOTAL FREE ENERGY PREDICTED BY IDOCK:   -5.62 KCAL/MOL
REMARK 923 INTER-LIGAND FREE ENERGY PREDICTED BY IDOCK:   -4.94 KCAL/MOL
REMARK 924 INTRA-LIGAND FREE ENERGY PREDICTED BY IDOCK:   -0.68 KCAL/MOL
REMARK 927      BINDING AFFINITY PREDICTED BY RF-SCORE:    0.00 PKD
ROOT
HETATM    1  O   UNL     1     -14.207   8.971  73.355  1.00  0.00    -1.202 OA 
HETATM    2  C   UNL     1     -14.065   8.642  71.970  1.00  0.00    -0.453 C  
HETATM    3  H   UNL     1     -14.992   8.549  73.683  1.00  0.00     0.000 HD 
ENDROOT
BRANCH   2   4
HETATM    4  C   UNL     1     -12.799   9.322  71.441  1.00  0.00    -0.328 C  
HETATM    5  H   UNL     1     -12.151  11.166  71.279  1.00  0.00     0.000 HD 
HETATM    6  O   UNL     1     -12.936  10.744  71.607  1.00  0.00    -0.430 OA 
BRANCH   4   7
HETATM    7  C   UNL     1     -11.501   8.825  72.117  1.00  0.00    -0.351 C  
HETATM    8  O   UNL     1     -11.779   7.609  72.836  1.00  0.00    -0.578 OA 
HETATM    9  H   UNL     1     -10.981   7.304  73.252  1.00  0.00     0.000 HD 
BRANCH   7  10
HETATM   10  C   UNL     1     -10.347   8.550  71.119  1.00  0.00    -0.215 C  
HETATM   11  H   UNL     1      -8.411   8.964  70.956  1.00  0.00     0.000 HD 
HETATM   12  O   UNL     1      -9.118   9.133  71.567  1.00  0.00    -0.309 OA 
BRANCH  10  13
HETATM   13  C   UNL     1     -10.662   9.050  69.699  1.00  0.00    -0.219 C  
HETATM   14  H   UNL     1     -10.463   8.359  67.868  1.00  0.00     0.000 HD 
HETATM   15  O   UNL     1     -10.269   8.051  68.745  1.00  0.00    -0.198 OA 
BRANCH  13  16
HETATM   16  C   UNL     1      -9.949  10.382  69.387  1.00  0.00    -0.218 C  
HETATM   17  O   UNL     1     -10.813  11.502  69.589  1.00  0.00    -0.438 OA 
HETATM   18  H   UNL     1     -10.374  12.323  69.397  1.00  0.00     0.000 HD 
ENDBRANCH  13  16
ENDBRANCH  10  13
ENDBRANCH   7  10
ENDBRANCH   4   7
ENDBRANCH   2   4
TORSDOF 5
ENDMDL
MODEL       57
REMARK 921   NORMALIZED FREE ENERGY PREDICTED BY IDOCK:   -4.10 KCAL/MOL
REMARK 922        TOTAL FREE ENERGY PREDICTED BY IDOCK:   -5.61 KCAL/MOL
REMARK 923 INTER-LIGAND FREE ENERGY PREDICTED BY IDOCK:   -4.58 KCAL/MOL
REMARK 924 INTRA-LIGAND FREE ENERGY PREDICTED BY IDOCK:   -1.03 KCAL/MOL
REMARK 927      BINDING AFFINITY PREDICTED BY RF-SCORE:    0.00 PKD
ROOT
HETATM    1  O   UNL     1     -10.317  10.141  64.862  1.00  0.00    -0.236 OA 
HETATM    2  C   UNL     1      -9.409  10.523  65.899  1.00  0.00    -0.181 C  
HETATM    3  H   UNL     1      -9.943   9.403  64.395  1.00  0.00     0.000 HD 
ENDROOT
BRANCH   2   4
HETATM    4  C   UNL     1     -10.012  11.713  66.652  1.00  0.00    -0.203 C  
HETATM    5  H   UNL     1      -9.532  12.775  68.230  1.00  0.00     0.000 HD 
HETATM    6  O   UNL     1      -9.158  12.037  67.763  1.00  0.00    -0.173 OA 
BRANCH   4   7
HETATM    7  C   UNL     1     -10.232  12.960  65.764  1.00  0.00    -0.288 C  
HETATM    8  O   UNL     1      -9.596  12.749  64.489  1.00  0.00    -0.521 OA 
HETATM    9  H   UNL     1      -9.731  13.516  63.944  1.00  0.00     0.000 HD 
BRANCH   7  10
HETATM   10  C   UNL     1     -11.726  13.289  65.516  1.00  0.00    -0.346 C  
HETATM   11  H   UNL     1     -13.494  12.434  65.826  1.00  0.00     0.000 HD 
HETATM   12  O   UNL     1     -12.577  12.233  65.978  1.00  0.00    -0.337 OA 
BRANCH  10  13
HETATM   13  C   UNL     1     -12.031  13.581  64.037  1.00  0.00    -0.449 C  
HETATM   14  H   UNL     1     -13.072  14.912  63.032  1.00  0.00     0.000 HD 
HETATM   15  O   UNL     1     -12.884  14.732  63.945  1.00  0.00    -0.694 OA 
BRANCH  13  16
HETATM   16  C   UNL     1     -12.697  12.377  63.338  1.00  0.00    -0.266 C  
HETATM   17  O   UNL     1     -11.752  11.344  63.053  1.00  0.00    -0.887 OA 
HETATM   18  H   UNL     1     -12.161  10.603  62.623  1.00  0.00     0.000 HD 
ENDBRANCH  13  16
ENDBRANCH  10  13
ENDBRANCH   7  10
ENDBRANCH   4   7
ENDBRANCH   2   4
TORSDOF 5
ENDMDL
MODEL       58
REMARK 921   NORMALIZED FREE ENERGY PREDICTED BY IDOCK:   -4.08 KCAL/MOL
REMARK 922        TOTAL FREE ENERGY PREDICTED BY IDOCK:   -5.58 KCAL/MOL
REMARK 923 INTER-LIGAND FREE ENERGY PREDICTED BY IDOCK:   -4.99 KCAL/MOL
REMARK 924 INTRA-LIGAND FREE ENERGY PREDICTED BY IDOCK:   -0.59 KCAL/MOL
REMARK 927      BINDING AFFINITY PREDICTED BY RF-SCORE:    0.00 PKD
ROOT
HETATM    1  O   UNL     1     -12.268  10.816  68.637  1.00  0.00    -0.813 OA 
HETATM    2  C   UNL     1     -11.845  11.486  69.827  1.00  0.00    -0.357 C  
HETATM    3  H   UNL     1     -12.077   9.890  68.731  1.00  0.00     0.000 HD 
ENDROOT
BRANCH   2   4
HETATM    4  C   UNL     1     -12.153  12.979  69.674  1.00  0.00    -0.241 C  
HETATM    5  H   UNL     1     -12.503  14.479  70.888  1.00  0.00     0.000 HD 
HETATM    6  O   UNL     1     -12.312  13.553  70.983  1.00  0.00    -0.362 OA 
BRANCH   4   7
HETATM    7  C   UNL     1     -11.080  13.754  68.875  1.00  0.00    -0.266 C  
HETATM    8  O   UNL     1      -9.913  12.923  68.725  1.00  0.00    -0.391 OA 
HETATM    9  H   UNL     1      -9.253  13.400  68.234  1.00  0.00     0.000 HD 
BRANCH   7  10
HETATM   10  C   UNL     1     -11.553  14.192  67.465  1.00  0.00    -0.367 C  
HETATM   11  H   UNL     1     -12.265  13.336  65.819  1.00  0.00     0.000 HD 
HETATM   12  O   UNL     1     -11.975  13.068  66.683  1.00  0.00    -0.399 OA 
BRANCH  10  13
HETATM   13  C   UNL     1     -10.474  14.973  66.695  1.00  0.00    -0.284 C  
HETATM   14  H   UNL     1      -9.870  16.841  66.589  1.00  0.00     0.000 HD 
HETATM   15  O   UNL     1     -10.536  16.359  67.065  1.00  0.00    -0.305 OA 
BRANCH  13  16
HETATM   16  C   UNL     1     -10.639  14.828  65.168  1.00  0.00    -0.417 C  
HETATM   17  O   UNL     1     -11.154  16.023  64.577  1.00  0.00    -0.790 OA 
HETATM   18  H   UNL     1     -11.256  15.934  63.637  1.00  0.00     0.000 HD 
ENDBRANCH  13  16
ENDBRANCH  10  13
ENDBRANCH   7  10
ENDBRANCH   4   7
ENDBRANCH   2   4
TORSDOF 5
ENDMDL
MODEL       59
REMARK 921   NORMALIZED FREE ENERGY PREDICTED BY IDOCK:   -4.07 KCAL/MOL
REMARK 922        TOTAL FREE ENERGY PREDICTED BY IDOCK:   -5.57 KCAL/MOL
REMARK 923 INTER-LIGAND FREE ENERGY PREDICTED BY IDOCK:   -5.20 KCAL/MOL
REMARK 924 INTRA-LIGAND FREE ENERGY PREDICTED BY IDOCK:   -0.37 KCAL/MOL
REMARK 927      BINDING AFFINITY PREDICTED BY RF-SCORE:    0.00 PKD
ROOT
HETATM    1  O   UNL     1     -12.406  15.695  63.913  1.00  0.00    -0.954 OA 
HETATM    2  C   UNL     1     -11.811  14.489  64.398  1.00  0.00    -0.403 C  
HETATM    3  H   UNL     1     -11.880  16.018  63.191  1.00  0.00     0.000 HD 
ENDROOT
BRANCH   2   4
HETATM    4  C   UNL     1     -12.659  13.968  65.563  1.00  0.00    -0.516 C  
HETATM    5  H   UNL     1     -13.854  12.443  65.866  1.00  0.00     0.000 HD 
HETATM    6  O   UNL     1     -13.329  12.766  65.144  1.00  0.00    -0.577 OA 
BRANCH   4   7
HETATM    7  C   UNL     1     -11.847  13.708  66.853  1.00  0.00    -0.411 C  
HETATM    8  O   UNL     1     -10.501  13.337  66.496  1.00  0.00    -0.275 OA 
HETATM    9  H   UNL     1     -10.002  13.177  67.288  1.00  0.00     0.000 HD 
BRANCH   7  10
HETATM   10  C   UNL     1     -11.780  14.932  67.801  1.00  0.00    -0.317 C  
HETATM   11  H   UNL     1     -10.815  16.666  67.903  1.00  0.00     0.000 HD 
HETATM   12  O   UNL     1     -10.856  15.915  67.321  1.00  0.00    -0.319 OA 
BRANCH  10  13
HETATM   13  C   UNL     1     -11.410  14.544  69.243  1.00  0.00    -0.285 C  
HETATM   14  H   UNL     1     -11.060  12.877  70.225  1.00  0.00     0.000 HD 
HETATM   15  O   UNL     1     -11.289  13.116  69.335  1.00  0.00    -0.258 OA 
BRANCH  13  16
HETATM   16  C   UNL     1     -12.454  15.049  70.261  1.00  0.00    -0.337 C  
HETATM   17  O   UNL     1     -12.036  16.263  70.887  1.00  0.00    -0.545 OA 
HETATM   18  H   UNL     1     -12.679  16.574  71.513  1.00  0.00     0.000 HD 
ENDBRANCH  13  16
ENDBRANCH  10  13
ENDBRANCH   7  10
ENDBRANCH   4   7
ENDBRANCH   2   4
TORSDOF 5
ENDMDL
MODEL       60
REMARK 921   NORMALIZED FREE ENERGY PREDICTED BY IDOCK:   -4.04 KCAL/MOL
REMARK 922        TOTAL FREE ENERGY PREDICTED BY IDOCK:   -5.54 KCAL/MOL
REMARK 923 INTER-LIGAND FREE ENERGY PREDICTED BY IDOCK:   -5.09 KCAL/MOL
REMARK 924 INTRA-LIGAND FREE ENERGY PREDICTED BY IDOCK:   -0.45 KCAL/MOL
REMARK 927      BINDING AFFINITY PREDICTED BY RF-SCORE:    0.00 PKD
ROOT
HETATM    1  O   UNL     1     -12.038  16.116  63.730  1.00  0.00    -1.355 OA 
HETATM    2  C   UNL     1     -11.156  16.324  64.838  1.00  0.00    -0.290 C  
HETATM    3  H   UNL     1     -12.631  16.856  63.678  1.00  0.00     0.000 HD 
ENDROOT
BRANCH   2   4
HETATM    4  C   UNL     1     -10.200  15.131  64.922  1.00  0.00    -0.196 C  
HETATM    5  H   UNL     1      -8.730  14.581  66.100  1.00  0.00     0.000 HD 
HETATM    6  O   UNL     1      -9.323  15.322  66.047  1.00  0.00    -0.307 OA 
BRANCH   4   7
HETATM    7  C   UNL     1     -10.920  13.767  65.029  1.00  0.00    -0.357 C  
HETATM    8  O   UNL     1     -11.233  13.294  63.705  1.00  0.00    -0.578 OA 
HETATM    9  H   UNL     1     -11.676  12.456  63.770  1.00  0.00     0.000 HD 
BRANCH   7  10
HETATM   10  C   UNL     1     -10.084  12.679  65.750  1.00  0.00    -0.271 C  
HETATM   11  H   UNL     1      -9.164  10.980  65.286  1.00  0.00     0.000 HD 
HETATM   12  O   UNL     1      -9.676  11.647  64.844  1.00  0.00    -0.243 OA 
BRANCH  10  13
HETATM   13  C   UNL     1     -10.832  12.049  66.938  1.00  0.00    -0.259 C  
HETATM   14  H   UNL     1     -12.705  11.859  67.504  1.00  0.00     0.000 HD 
HETATM   15  O   UNL     1     -12.244  12.248  66.771  1.00  0.00    -0.558 OA 
BRANCH  13  16
HETATM   16  C   UNL     1     -10.373  12.643  68.286  1.00  0.00    -0.241 C  
HETATM   17  O   UNL     1     -10.651  11.759  69.374  1.00  0.00    -0.430 OA 
HETATM   18  H   UNL     1     -10.368  12.124  70.204  1.00  0.00     0.000 HD 
ENDBRANCH  13  16
ENDBRANCH  10  13
ENDBRANCH   7  10
ENDBRANCH   4   7
ENDBRANCH   2   4
TORSDOF 5
ENDMDL
MODEL       61
REMARK 921   NORMALIZED FREE ENERGY PREDICTED BY IDOCK:   -4.03 KCAL/MOL
REMARK 922        TOTAL FREE ENERGY PREDICTED BY IDOCK:   -5.52 KCAL/MOL
REMARK 923 INTER-LIGAND FREE ENERGY PREDICTED BY IDOCK:   -5.48 KCAL/MOL
REMARK 924 INTRA-LIGAND FREE ENERGY PREDICTED BY IDOCK:   -0.05 KCAL/MOL
REMARK 927      BINDING AFFINITY PREDICTED BY RF-SCORE:    0.00 PKD
ROOT
HETATM    1  O   UNL     1     -10.514  17.544  67.014  1.00  0.00    -0.328 OA 
HETATM    2  C   UNL     1      -9.907  16.813  65.945  1.00  0.00    -0.249 C  
HETATM    3  H   UNL     1      -9.835  18.030  67.467  1.00  0.00     0.000 HD 
ENDROOT
BRANCH   2   4
HETATM    4  C   UNL     1     -11.003  16.029  65.216  1.00  0.00    -0.299 C  
HETATM    5  H   UNL     1     -11.957  16.192  63.510  1.00  0.00     0.000 HD 
HETATM    6  O   UNL     1     -11.277  16.678  63.962  1.00  0.00    -1.052 OA 
BRANCH   4   7
HETATM    7  C   UNL     1     -10.650  14.541  64.985  1.00  0.00    -0.437 C  
HETATM    8  O   UNL     1      -9.399  14.247  65.635  1.00  0.00    -0.523 OA 
HETATM    9  H   UNL     1      -9.182  13.333  65.492  1.00  0.00     0.000 HD 
BRANCH   7  10
HETATM   10  C   UNL     1     -11.722  13.559  65.521  1.00  0.00    -0.340 C  
HETATM   11  H   UNL     1     -13.651  13.601  66.000  1.00  0.00     0.000 HD 
HETATM   12  O   UNL     1     -12.993  14.203  65.671  1.00  0.00    -0.586 OA 
BRANCH  10  13
HETATM   13  C   UNL     1     -11.317  12.912  66.857  1.00  0.00    -0.312 C  
HETATM   14  H   UNL     1     -11.396  11.116  67.653  1.00  0.00     0.000 HD 
HETATM   15  O   UNL     1     -11.646  11.515  66.828  1.00  0.00    -0.492 OA 
BRANCH  13  16
HETATM   16  C   UNL     1     -12.009  13.591  68.058  1.00  0.00    -0.337 C  
HETATM   17  O   UNL     1     -12.149  14.999  67.860  1.00  0.00    -0.520 OA 
HETATM   18  H   UNL     1     -12.576  15.416  68.598  1.00  0.00     0.000 HD 
ENDBRANCH  13  16
ENDBRANCH  10  13
ENDBRANCH   7  10
ENDBRANCH   4   7
ENDBRANCH   2   4
TORSDOF 5
ENDMDL
MODEL       62
REMARK 921   NORMALIZED FREE ENERGY PREDICTED BY IDOCK:   -4.02 KCAL/MOL
REMARK 922        TOTAL FREE ENERGY PREDICTED BY IDOCK:   -5.51 KCAL/MOL
REMARK 923 INTER-LIGAND FREE ENERGY PREDICTED BY IDOCK:   -5.32 KCAL/MOL
REMARK 924 INTRA-LIGAND FREE ENERGY PREDICTED BY IDOCK:   -0.19 KCAL/MOL
REMARK 927      BINDING AFFINITY PREDICTED BY RF-SCORE:    0.00 PKD
ROOT
HETATM    1  O   UNL     1     -12.285  15.306  63.727  1.00  0.00    -0.968 OA 
HETATM    2  C   UNL     1     -11.885  14.020  64.209  1.00  0.00    -0.410 C  
HETATM    3  H   UNL     1     -12.201  15.309  62.781  1.00  0.00     0.000 HD 
ENDROOT
BRANCH   2   4
HETATM    4  C   UNL     1     -12.021  14.014  65.735  1.00  0.00    -0.404 C  
HETATM    5  H   UNL     1     -12.488  12.691  67.105  1.00  0.00     0.000 HD 
HETATM    6  O   UNL     1     -12.404  12.694  66.159  1.00  0.00    -0.570 OA 
BRANCH   4   7
HETATM    7  C   UNL     1     -10.738  14.463  66.472  1.00  0.00    -0.306 C  
HETATM    8  O   UNL     1      -9.588  13.951  65.771  1.00  0.00    -0.478 OA 
HETATM    9  H   UNL     1      -8.799  14.226  66.224  1.00  0.00     0.000 HD 
BRANCH   7  10
HETATM   10  C   UNL     1     -10.595  16.001  66.588  1.00  0.00    -0.297 C  
HETATM   11  H   UNL     1      -9.442  17.434  65.834  1.00  0.00     0.000 HD 
HETATM   12  O   UNL     1      -9.530  16.491  65.763  1.00  0.00    -0.484 OA 
BRANCH  10  13
HETATM   13  C   UNL     1     -10.374  16.468  68.037  1.00  0.00    -0.294 C  
HETATM   14  H   UNL     1     -11.478  16.681  69.650  1.00  0.00     0.000 HD 
HETATM   15  O   UNL     1     -11.615  16.393  68.755  1.00  0.00    -0.308 OA 
BRANCH  13  16
HETATM   16  C   UNL     1      -9.816  17.905  68.100  1.00  0.00    -0.334 C  
HETATM   17  O   UNL     1     -10.324  18.619  69.228  1.00  0.00    -0.470 OA 
HETATM   18  H   UNL     1      -9.981  19.504  69.267  1.00  0.00     0.000 HD 
ENDBRANCH  13  16
ENDBRANCH  10  13
ENDBRANCH   7  10
ENDBRANCH   4   7
ENDBRANCH   2   4
TORSDOF 5
ENDMDL
MODEL       63
REMARK 921   NORMALIZED FREE ENERGY PREDICTED BY IDOCK:   -4.00 KCAL/MOL
REMARK 922        TOTAL FREE ENERGY PREDICTED BY IDOCK:   -5.48 KCAL/MOL
REMARK 923 INTER-LIGAND FREE ENERGY PREDICTED BY IDOCK:   -5.17 KCAL/MOL
REMARK 924 INTRA-LIGAND FREE ENERGY PREDICTED BY IDOCK:   -0.30 KCAL/MOL
REMARK 927      BINDING AFFINITY PREDICTED BY RF-SCORE:    0.00 PKD
ROOT
HETATM    1  O   UNL     1     -14.160   8.858  73.338  1.00  0.00    -1.256 OA 
HETATM    2  C   UNL     1     -14.036   8.528  71.952  1.00  0.00    -0.447 C  
HETATM    3  H   UNL     1     -14.675   8.181  73.761  1.00  0.00     0.000 HD 
ENDROOT
BRANCH   2   4
HETATM    4  C   UNL     1     -13.207   9.620  71.269  1.00  0.00    -0.355 C  
HETATM    5  H   UNL     1     -12.587  11.421  71.738  1.00  0.00     0.000 HD 
HETATM    6  O   UNL     1     -13.101  10.743  72.161  1.00  0.00    -0.460 OA 
BRANCH   4   7
HETATM    7  C   UNL     1     -11.802   9.148  70.831  1.00  0.00    -0.270 C  
HETATM    8  O   UNL     1     -10.935  10.293  70.713  1.00  0.00    -0.361 OA 
HETATM    9  H   UNL     1     -10.072  10.003  70.444  1.00  0.00     0.000 HD 
BRANCH   7  10
HETATM   10  C   UNL     1     -11.151   8.142  71.814  1.00  0.00    -0.270 C  
HETATM   11  H   UNL     1      -9.544   8.052  72.981  1.00  0.00     0.000 HD 
HETATM   12  O   UNL     1      -9.944   8.669  72.378  1.00  0.00    -0.302 OA 
BRANCH  10  13
HETATM   13  C   UNL     1     -10.857   6.780  71.161  1.00  0.00    -0.238 C  
HETATM   14  H   UNL     1     -11.560   5.747  69.643  1.00  0.00     0.000 HD 
HETATM   15  O   UNL     1     -11.742   6.588  70.046  1.00  0.00    -0.416 OA 
BRANCH  13  16
HETATM   16  C   UNL     1     -11.012   5.617  72.162  1.00  0.00    -0.250 C  
HETATM   17  O   UNL     1     -12.265   5.671  72.844  1.00  0.00    -0.548 OA 
HETATM   18  H   UNL     1     -12.361   4.954  73.460  1.00  0.00     0.000 HD 
ENDBRANCH  13  16
ENDBRANCH  10  13
ENDBRANCH   7  10
ENDBRANCH   4   7
ENDBRANCH   2   4
TORSDOF 5
ENDMDL
MODEL       64
REMARK 921   NORMALIZED FREE ENERGY PREDICTED BY IDOCK:   -3.98 KCAL/MOL
REMARK 922        TOTAL FREE ENERGY PREDICTED BY IDOCK:   -5.46 KCAL/MOL
REMARK 923 INTER-LIGAND FREE ENERGY PREDICTED BY IDOCK:   -4.46 KCAL/MOL
REMARK 924 INTRA-LIGAND FREE ENERGY PREDICTED BY IDOCK:   -1.00 KCAL/MOL
REMARK 927      BINDING AFFINITY PREDICTED BY RF-SCORE:    0.00 PKD
ROOT
HETATM    1  O   UNL     1      -7.811  10.555  64.500  1.00  0.00    -0.299 OA 
HETATM    2  C   UNL     1      -8.285  10.117  65.776  1.00  0.00    -0.144 C  
HETATM    3  H   UNL     1      -6.907  10.277  64.406  1.00  0.00     0.000 HD 
ENDROOT
BRANCH   2   4
HETATM    4  C   UNL     1      -9.742  10.565  65.927  1.00  0.00    -0.217 C  
HETATM    5  H   UNL     1     -11.224  10.158  67.146  1.00  0.00     0.000 HD 
HETATM    6  O   UNL     1     -10.321   9.880  67.052  1.00  0.00    -0.222 OA 
BRANCH   4   7
HETATM    7  C   UNL     1      -9.906  12.094  66.088  1.00  0.00    -0.237 C  
HETATM    8  O   UNL     1      -8.603  12.701  66.175  1.00  0.00    -0.391 OA 
HETATM    9  H   UNL     1      -8.704  13.641  66.274  1.00  0.00     0.000 HD 
BRANCH   7  10
HETATM   10  C   UNL     1     -10.679  12.761  64.921  1.00  0.00    -0.305 C  
HETATM   11  H   UNL     1     -10.571  12.839  62.938  1.00  0.00     0.000 HD 
HETATM   12  O   UNL     1     -10.098  12.431  63.654  1.00  0.00    -0.401 OA 
BRANCH  10  13
HETATM   13  C   UNL     1     -10.760  14.291  65.062  1.00  0.00    -0.420 C  
HETATM   14  H   UNL     1     -10.648  15.594  66.531  1.00  0.00     0.000 HD 
HETATM   15  O   UNL     1     -10.598  14.649  66.443  1.00  0.00    -0.290 OA 
BRANCH  13  16
HETATM   16  C   UNL     1     -12.096  14.847  64.528  1.00  0.00    -0.407 C  
HETATM   17  O   UNL     1     -12.512  14.170  63.341  1.00  0.00    -1.122 OA 
HETATM   18  H   UNL     1     -13.335  14.512  63.012  1.00  0.00     0.000 HD 
ENDBRANCH  13  16
ENDBRANCH  10  13
ENDBRANCH   7  10
ENDBRANCH   4   7
ENDBRANCH   2   4
TORSDOF 5
ENDMDL
MODEL       65
REMARK 921   NORMALIZED FREE ENERGY PREDICTED BY IDOCK:   -3.97 KCAL/MOL
REMARK 922        TOTAL FREE ENERGY PREDICTED BY IDOCK:   -5.44 KCAL/MOL
REMARK 923 INTER-LIGAND FREE ENERGY PREDICTED BY IDOCK:   -5.10 KCAL/MOL
REMARK 924 INTRA-LIGAND FREE ENERGY PREDICTED BY IDOCK:   -0.34 KCAL/MOL
REMARK 927      BINDING AFFINITY PREDICTED BY RF-SCORE:    0.00 PKD
ROOT
HETATM    1  O   UNL     1     -12.519  13.899  62.837  1.00  0.00    -1.034 OA 
HETATM    2  C   UNL     1     -11.951  13.075  63.859  1.00  0.00    -0.485 C  
HETATM    3  H   UNL     1     -12.670  13.360  62.069  1.00  0.00     0.000 HD 
ENDROOT
BRANCH   2   4
HETATM    4  C   UNL     1     -11.708  13.944  65.097  1.00  0.00    -0.350 C  
HETATM    5  H   UNL     1     -12.722  14.423  66.706  1.00  0.00     0.000 HD 
HETATM    6  O   UNL     1     -12.873  13.884  65.938  1.00  0.00    -0.472 OA 
BRANCH   4   7
HETATM    7  C   UNL     1     -10.447  13.542  65.898  1.00  0.00    -0.292 C  
HETATM    8  O   UNL     1      -9.427  14.540  65.703  1.00  0.00    -0.522 OA 
HETATM    9  H   UNL     1      -8.653  14.293  66.195  1.00  0.00     0.000 HD 
BRANCH   7  10
HETATM   10  C   UNL     1     -10.701  13.392  67.419  1.00  0.00    -0.262 C  
HETATM   11  H   UNL     1     -10.269  14.381  69.088  1.00  0.00     0.000 HD 
HETATM   12  O   UNL     1     -10.114  14.472  68.155  1.00  0.00    -0.218 OA 
BRANCH  10  13
HETATM   13  C   UNL     1     -10.185  12.055  67.977  1.00  0.00    -0.198 C  
HETATM   14  H   UNL     1      -8.547  10.979  67.812  1.00  0.00     0.000 HD 
HETATM   15  O   UNL     1      -8.866  11.805  67.468  1.00  0.00    -0.153 OA 
BRANCH  13  16
HETATM   16  C   UNL     1     -11.119  10.882  67.615  1.00  0.00    -0.313 C  
HETATM   17  O   UNL     1     -12.353  10.950  68.331  1.00  0.00    -0.803 OA 
HETATM   18  H   UNL     1     -12.929  10.228  68.107  1.00  0.00     0.000 HD 
ENDBRANCH  13  16
ENDBRANCH  10  13
ENDBRANCH   7  10
ENDBRANCH   4   7
ENDBRANCH   2   4
TORSDOF 5
ENDMDL
MODEL       66
REMARK 921   NORMALIZED FREE ENERGY PREDICTED BY IDOCK:   -3.96 KCAL/MOL
REMARK 922        TOTAL FREE ENERGY PREDICTED BY IDOCK:   -5.43 KCAL/MOL
REMARK 923 INTER-LIGAND FREE ENERGY PREDICTED BY IDOCK:   -4.74 KCAL/MOL
REMARK 924 INTRA-LIGAND FREE ENERGY PREDICTED BY IDOCK:   -0.70 KCAL/MOL
REMARK 927      BINDING AFFINITY PREDICTED BY RF-SCORE:    0.00 PKD
ROOT
HETATM    1  O   UNL     1     -14.267   8.924  73.379  1.00  0.00    -1.241 OA 
HETATM    2  C   UNL     1     -14.117   8.470  72.031  1.00  0.00    -0.444 C  
HETATM    3  H   UNL     1     -15.068   8.554  73.731  1.00  0.00     0.000 HD 
ENDROOT
BRANCH   2   4
HETATM    4  C   UNL     1     -12.826   9.067  71.463  1.00  0.00    -0.336 C  
HETATM    5  H   UNL     1     -12.009  10.849  71.386  1.00  0.00     0.000 HD 
HETATM    6  O   UNL     1     -12.811  10.479  71.738  1.00  0.00    -0.429 OA 
BRANCH   4   7
HETATM    7  C   UNL     1     -11.543   8.400  72.011  1.00  0.00    -0.351 C  
HETATM    8  O   UNL     1     -11.863   7.683  73.219  1.00  0.00    -0.631 OA 
HETATM    9  H   UNL     1     -11.074   7.273  73.555  1.00  0.00     0.000 HD 
BRANCH   7  10
HETATM   10  C   UNL     1     -10.885   7.411  71.015  1.00  0.00    -0.239 C  
HETATM   11  H   UNL     1     -11.467   6.096  69.644  1.00  0.00     0.000 HD 
HETATM   12  O   UNL     1     -11.870   6.702  70.254  1.00  0.00    -0.395 OA 
BRANCH  10  13
HETATM   13  C   UNL     1      -9.955   6.402  71.711  1.00  0.00    -0.177 C  
HETATM   14  H   UNL     1      -8.433   6.488  72.953  1.00  0.00     0.000 HD 
HETATM   15  O   UNL     1      -9.007   7.111  72.523  1.00  0.00    -0.127 OA 
BRANCH  13  16
HETATM   16  C   UNL     1      -9.212   5.509  70.695  1.00  0.00    -0.150 C  
HETATM   17  O   UNL     1     -10.013   4.399  70.284  1.00  0.00    -0.217 OA 
HETATM   18  H   UNL     1      -9.556   3.850  69.658  1.00  0.00     0.000 HD 
ENDBRANCH  13  16
ENDBRANCH  10  13
ENDBRANCH   7  10
ENDBRANCH   4   7
ENDBRANCH   2   4
TORSDOF 5
ENDMDL
MODEL       67
REMARK 921   NORMALIZED FREE ENERGY PREDICTED BY IDOCK:   -3.94 KCAL/MOL
REMARK 922        TOTAL FREE ENERGY PREDICTED BY IDOCK:   -5.40 KCAL/MOL
REMARK 923 INTER-LIGAND FREE ENERGY PREDICTED BY IDOCK:   -4.79 KCAL/MOL
REMARK 924 INTRA-LIGAND FREE ENERGY PREDICTED BY IDOCK:   -0.61 KCAL/MOL
REMARK 927      BINDING AFFINITY PREDICTED BY RF-SCORE:    0.00 PKD
ROOT
HETATM    1  O   UNL     1      -7.558  12.992  69.132  1.00  0.00    -0.321 OA 
HETATM    2  C   UNL     1      -7.796  13.413  67.786  1.00  0.00    -0.158 C  
HETATM    3  H   UNL     1      -6.625  13.048  69.302  1.00  0.00     0.000 HD 
ENDROOT
BRANCH   2   4
HETATM    4  C   UNL     1      -9.300  13.323  67.512  1.00  0.00    -0.218 C  
HETATM    5  H   UNL     1     -10.744  12.073  67.962  1.00  0.00     0.000 HD 
HETATM    6  O   UNL     1      -9.810  12.129  68.132  1.00  0.00    -0.196 OA 
BRANCH   4   7
HETATM    7  C   UNL     1     -10.093  14.559  67.996  1.00  0.00    -0.226 C  
HETATM    8  O   UNL     1      -9.167  15.605  68.346  1.00  0.00    -0.184 OA 
HETATM    9  H   UNL     1      -9.654  16.365  68.644  1.00  0.00     0.000 HD 
BRANCH   7  10
HETATM   10  C   UNL     1     -11.081  15.115  66.938  1.00  0.00    -0.314 C  
HETATM   11  H   UNL     1     -12.862  14.642  66.195  1.00  0.00     0.000 HD 
HETATM   12  O   UNL     1     -12.256  14.302  66.843  1.00  0.00    -0.438 OA 
BRANCH  10  13
HETATM   13  C   UNL     1     -10.441  15.253  65.546  1.00  0.00    -0.374 C  
HETATM   14  H   UNL     1      -9.209  16.504  64.661  1.00  0.00     0.000 HD 
HETATM   15  O   UNL     1      -9.604  16.419  65.521  1.00  0.00    -0.491 OA 
BRANCH  13  16
HETATM   16  C   UNL     1     -11.504  15.345  64.432  1.00  0.00    -0.255 C  
HETATM   17  O   UNL     1     -11.416  16.581  63.720  1.00  0.00    -1.615 OA 
HETATM   18  H   UNL     1     -12.071  16.638  63.033  1.00  0.00     0.000 HD 
ENDBRANCH  13  16
ENDBRANCH  10  13
ENDBRANCH   7  10
ENDBRANCH   4   7
ENDBRANCH   2   4
TORSDOF 5
ENDMDL
MODEL       68
REMARK 921   NORMALIZED FREE ENERGY PREDICTED BY IDOCK:   -3.94 KCAL/MOL
REMARK 922        TOTAL FREE ENERGY PREDICTED BY IDOCK:   -5.40 KCAL/MOL
REMARK 923 INTER-LIGAND FREE ENERGY PREDICTED BY IDOCK:   -4.46 KCAL/MOL
REMARK 924 INTRA-LIGAND FREE ENERGY PREDICTED BY IDOCK:   -0.95 KCAL/MOL
REMARK 927      BINDING AFFINITY PREDICTED BY RF-SCORE:    0.00 PKD
ROOT
HETATM    1  O   UNL     1     -10.583   9.505  69.166  1.00  0.00    -0.214 OA 
HETATM    2  C   UNL     1     -10.968  10.309  70.285  1.00  0.00    -0.309 C  
HETATM    3  H   UNL     1      -9.906   8.902  69.450  1.00  0.00     0.000 HD 
ENDROOT
BRANCH   2   4
HETATM    4  C   UNL     1     -12.059  11.280  69.826  1.00  0.00    -0.325 C  
HETATM    5  H   UNL     1     -13.435  12.372  70.699  1.00  0.00     0.000 HD 
HETATM    6  O   UNL     1     -12.758  11.769  70.984  1.00  0.00    -0.348 OA 
BRANCH   4   7
HETATM    7  C   UNL     1     -11.522  12.462  68.986  1.00  0.00    -0.300 C  
HETATM    8  O   UNL     1     -10.086  12.506  69.096  1.00  0.00    -0.414 OA 
HETATM    9  H   UNL     1      -9.756  13.232  68.580  1.00  0.00     0.000 HD 
BRANCH   7  10
HETATM   10  C   UNL     1     -11.894  12.375  67.484  1.00  0.00    -0.284 C  
HETATM   11  H   UNL     1     -11.733  11.062  66.000  1.00  0.00     0.000 HD 
HETATM   12  O   UNL     1     -11.505  11.116  66.921  1.00  0.00    -0.414 OA 
BRANCH  10  13
HETATM   13  C   UNL     1     -11.280  13.516  66.654  1.00  0.00    -0.312 C  
HETATM   14  H   UNL     1     -11.160  15.474  66.793  1.00  0.00     0.000 HD 
HETATM   15  O   UNL     1     -11.540  14.770  67.305  1.00  0.00    -0.370 OA 
BRANCH  13  16
HETATM   16  C   UNL     1     -11.836  13.546  65.216  1.00  0.00    -0.352 C  
HETATM   17  O   UNL     1     -12.978  12.699  65.074  1.00  0.00    -0.812 OA 
HETATM   18  H   UNL     1     -13.321  12.717  64.189  1.00  0.00     0.000 HD 
ENDBRANCH  13  16
ENDBRANCH  10  13
ENDBRANCH   7  10
ENDBRANCH   4   7
ENDBRANCH   2   4
TORSDOF 5
ENDMDL
MODEL       69
REMARK 921   NORMALIZED FREE ENERGY PREDICTED BY IDOCK:   -3.94 KCAL/MOL
REMARK 922        TOTAL FREE ENERGY PREDICTED BY IDOCK:   -5.40 KCAL/MOL
REMARK 923 INTER-LIGAND FREE ENERGY PREDICTED BY IDOCK:   -5.04 KCAL/MOL
REMARK 924 INTRA-LIGAND FREE ENERGY PREDICTED BY IDOCK:   -0.36 KCAL/MOL
REMARK 927      BINDING AFFINITY PREDICTED BY RF-SCORE:    0.00 PKD
ROOT
HETATM    1  O   UNL     1      -9.765   8.794  66.167  1.00  0.00    -0.262 OA 
HETATM    2  C   UNL     1      -9.380  10.120  66.543  1.00  0.00    -0.164 C  
HETATM    3  H   UNL     1      -9.004   8.230  66.245  1.00  0.00     0.000 HD 
ENDROOT
BRANCH   2   4
HETATM    4  C   UNL     1     -10.606  11.030  66.417  1.00  0.00    -0.251 C  
HETATM    5  H   UNL     1     -11.348  12.544  67.419  1.00  0.00     0.000 HD 
HETATM    6  O   UNL     1     -10.588  11.980  67.497  1.00  0.00    -0.213 OA 
BRANCH   4   7
HETATM    7  C   UNL     1     -10.697  11.763  65.059  1.00  0.00    -0.292 C  
HETATM    8  O   UNL     1     -10.497  10.812  63.996  1.00  0.00    -0.434 OA 
HETATM    9  H   UNL     1     -10.552  11.263  63.161  1.00  0.00     0.000 HD 
BRANCH   7  10
HETATM   10  C   UNL     1     -12.054  12.475  64.828  1.00  0.00    -0.434 C  
HETATM   11  H   UNL     1     -13.155  13.085  63.290  1.00  0.00     0.000 HD 
HETATM   12  O   UNL     1     -12.323  12.648  63.432  1.00  0.00    -0.602 OA 
BRANCH  10  13
HETATM   13  C   UNL     1     -12.135  13.839  65.536  1.00  0.00    -0.410 C  
HETATM   14  H   UNL     1     -13.548  15.134  65.978  1.00  0.00     0.000 HD 
HETATM   15  O   UNL     1     -13.498  14.292  65.540  1.00  0.00    -0.580 OA 
BRANCH  13  16
HETATM   16  C   UNL     1     -11.233  14.892  64.861  1.00  0.00    -0.410 C  
HETATM   17  O   UNL     1     -11.955  15.671  63.906  1.00  0.00    -0.990 OA 
HETATM   18  H   UNL     1     -11.400  16.320  63.490  1.00  0.00     0.000 HD 
ENDBRANCH  13  16
ENDBRANCH  10  13
ENDBRANCH   7  10
ENDBRANCH   4   7
ENDBRANCH   2   4
TORSDOF 5
ENDMDL
MODEL       70
REMARK 921   NORMALIZED FREE ENERGY PREDICTED BY IDOCK:   -3.94 KCAL/MOL
REMARK 922        TOTAL FREE ENERGY PREDICTED BY IDOCK:   -5.40 KCAL/MOL
REMARK 923 INTER-LIGAND FREE ENERGY PREDICTED BY IDOCK:   -5.06 KCAL/MOL
REMARK 924 INTRA-LIGAND FREE ENERGY PREDICTED BY IDOCK:   -0.34 KCAL/MOL
REMARK 927      BINDING AFFINITY PREDICTED BY RF-SCORE:    0.00 PKD
ROOT
HETATM    1  O   UNL     1     -10.074  17.258  69.286  1.00  0.00    -0.267 OA 
HETATM    2  C   UNL     1     -11.051  16.588  68.483  1.00  0.00    -0.335 C  
HETATM    3  H   UNL     1     -10.528  17.820  69.903  1.00  0.00     0.000 HD 
ENDROOT
BRANCH   2   4
HETATM    4  C   UNL     1     -10.317  15.683  67.489  1.00  0.00    -0.277 C  
HETATM    5  H   UNL     1      -8.651  14.648  67.487  1.00  0.00     0.000 HD 
HETATM    6  O   UNL     1      -9.106  15.210  68.103  1.00  0.00    -0.171 OA 
BRANCH   4   7
HETATM    7  C   UNL     1     -11.168  14.491  66.993  1.00  0.00    -0.337 C  
HETATM    8  O   UNL     1     -12.535  14.684  67.406  1.00  0.00    -0.537 OA 
HETATM    9  H   UNL     1     -13.058  13.951  67.102  1.00  0.00     0.000 HD 
BRANCH   7  10
HETATM   10  C   UNL     1     -11.144  14.309  65.455  1.00  0.00    -0.327 C  
HETATM   11  H   UNL     1     -11.257  15.454  63.834  1.00  0.00     0.000 HD 
HETATM   12  O   UNL     1     -11.272  15.565  64.778  1.00  0.00    -0.422 OA 
BRANCH  10  13
HETATM   13  C   UNL     1     -12.235  13.346  64.955  1.00  0.00    -0.408 C  
HETATM   14  H   UNL     1     -12.893  11.559  65.446  1.00  0.00     0.000 HD 
HETATM   15  O   UNL     1     -12.219  12.154  65.755  1.00  0.00    -0.586 OA 
BRANCH  13  16
HETATM   16  C   UNL     1     -12.044  12.983  63.467  1.00  0.00    -0.542 C  
HETATM   17  O   UNL     1     -11.985  11.569  63.272  1.00  0.00    -0.847 OA 
HETATM   18  H   UNL     1     -11.868  11.346  62.357  1.00  0.00     0.000 HD 
ENDBRANCH  13  16
ENDBRANCH  10  13
ENDBRANCH   7  10
ENDBRANCH   4   7
ENDBRANCH   2   4
TORSDOF 5
ENDMDL
MODEL       71
REMARK 921   NORMALIZED FREE ENERGY PREDICTED BY IDOCK:   -3.93 KCAL/MOL
REMARK 922        TOTAL FREE ENERGY PREDICTED BY IDOCK:   -5.39 KCAL/MOL
REMARK 923 INTER-LIGAND FREE ENERGY PREDICTED BY IDOCK:   -4.89 KCAL/MOL
REMARK 924 INTRA-LIGAND FREE ENERGY PREDICTED BY IDOCK:   -0.50 KCAL/MOL
REMARK 927      BINDING AFFINITY PREDICTED BY RF-SCORE:    0.00 PKD
ROOT
HETATM    1  O   UNL     1     -14.408   8.926  73.380  1.00  0.00    -1.192 OA 
HETATM    2  C   UNL     1     -14.202   8.743  71.976  1.00  0.00    -0.414 C  
HETATM    3  H   UNL     1     -15.202   8.468  73.627  1.00  0.00     0.000 HD 
ENDROOT
BRANCH   2   4
HETATM    4  C   UNL     1     -12.921   9.482  71.578  1.00  0.00    -0.386 C  
HETATM    5  H   UNL     1     -12.130  11.238  71.953  1.00  0.00     0.000 HD 
HETATM    6  O   UNL     1     -12.925  10.779  72.200  1.00  0.00    -0.424 OA 
BRANCH   4   7
HETATM    7  C   UNL     1     -11.627   8.717  71.940  1.00  0.00    -0.361 C  
HETATM    8  O   UNL     1     -11.854   7.945  73.135  1.00  0.00    -0.651 OA 
HETATM    9  H   UNL     1     -11.058   7.476  73.358  1.00  0.00     0.000 HD 
BRANCH   7  10
HETATM   10  C   UNL     1     -11.140   7.758  70.824  1.00  0.00    -0.257 C  
HETATM   11  H   UNL     1     -10.999   5.799  70.524  1.00  0.00     0.000 HD 
HETATM   12  O   UNL     1     -11.298   6.387  71.208  1.00  0.00    -0.282 OA 
BRANCH  10  13
HETATM   13  C   UNL     1      -9.676   8.011  70.423  1.00  0.00    -0.178 C  
HETATM   14  H   UNL     1      -8.374   9.470  70.627  1.00  0.00     0.000 HD 
HETATM   15  O   UNL     1      -9.278   9.314  70.875  1.00  0.00    -0.246 OA 
BRANCH  13  16
HETATM   16  C   UNL     1      -9.470   7.897  68.898  1.00  0.00    -0.150 C  
HETATM   17  O   UNL     1     -10.690   7.590  68.222  1.00  0.00    -0.347 OA 
HETATM   18  H   UNL     1     -10.564   7.521  67.284  1.00  0.00     0.000 HD 
ENDBRANCH  13  16
ENDBRANCH  10  13
ENDBRANCH   7  10
ENDBRANCH   4   7
ENDBRANCH   2   4
TORSDOF 5
ENDMDL
MODEL       72
REMARK 921   NORMALIZED FREE ENERGY PREDICTED BY IDOCK:   -3.89 KCAL/MOL
REMARK 922        TOTAL FREE ENERGY PREDICTED BY IDOCK:   -5.34 KCAL/MOL
REMARK 923 INTER-LIGAND FREE ENERGY PREDICTED BY IDOCK:   -5.00 KCAL/MOL
REMARK 924 INTRA-LIGAND FREE ENERGY PREDICTED BY IDOCK:   -0.34 KCAL/MOL
REMARK 927      BINDING AFFINITY PREDICTED BY RF-SCORE:    0.00 PKD
ROOT
HETATM    1  O   UNL     1     -12.528  14.209  63.403  1.00  0.00    -1.122 OA 
HETATM    2  C   UNL     1     -11.899  14.373  64.677  1.00  0.00    -0.451 C  
HETATM    3  H   UNL     1     -13.115  13.464  63.454  1.00  0.00     0.000 HD 
ENDROOT
BRANCH   2   4
HETATM    4  C   UNL     1     -10.952  15.574  64.596  1.00  0.00    -0.322 C  
HETATM    5  H   UNL     1     -11.041  17.394  63.867  1.00  0.00     0.000 HD 
HETATM    6  O   UNL     1     -11.628  16.648  63.918  1.00  0.00    -1.204 OA 
BRANCH   4   7
HETATM    7  C   UNL     1     -10.435  16.051  65.973  1.00  0.00    -0.345 C  
HETATM    8  O   UNL     1     -11.311  15.553  67.003  1.00  0.00    -0.244 OA 
HETATM    9  H   UNL     1     -10.994  15.846  67.849  1.00  0.00     0.000 HD 
BRANCH   7  10
HETATM   10  C   UNL     1      -8.993  15.581  66.290  1.00  0.00    -0.327 C  
HETATM   11  H   UNL     1      -8.074  13.901  66.822  1.00  0.00     0.000 HD 
HETATM   12  O   UNL     1      -8.958  14.189  66.627  1.00  0.00    -0.238 OA 
BRANCH  10  13
HETATM   13  C   UNL     1      -8.340  16.397  67.420  1.00  0.00    -0.164 C  
HETATM   14  H   UNL     1      -8.920  17.759  68.713  1.00  0.00     0.000 HD 
HETATM   15  O   UNL     1      -9.324  17.256  68.015  1.00  0.00    -0.252 OA 
BRANCH  13  16
HETATM   16  C   UNL     1      -7.149  17.234  66.910  1.00  0.00    -0.199 C  
HETATM   17  O   UNL     1      -5.900  16.697  67.348  1.00  0.00    -0.131 OA 
HETATM   18  H   UNL     1      -5.167  17.213  67.034  1.00  0.00     0.000 HD 
ENDBRANCH  13  16
ENDBRANCH  10  13
ENDBRANCH   7  10
ENDBRANCH   4   7
ENDBRANCH   2   4
TORSDOF 5
ENDMDL
MODEL       73
REMARK 921   NORMALIZED FREE ENERGY PREDICTED BY IDOCK:   -3.88 KCAL/MOL
REMARK 922        TOTAL FREE ENERGY PREDICTED BY IDOCK:   -5.32 KCAL/MOL
REMARK 923 INTER-LIGAND FREE ENERGY PREDICTED BY IDOCK:   -4.73 KCAL/MOL
REMARK 924 INTRA-LIGAND FREE ENERGY PREDICTED BY IDOCK:   -0.59 KCAL/MOL
REMARK 927      BINDING AFFINITY PREDICTED BY RF-SCORE:    0.00 PKD
ROOT
HETATM    1  O   UNL     1      -9.974   9.942  68.930  1.00  0.00    -0.167 OA 
HETATM    2  C   UNL     1      -9.494  11.182  68.403  1.00  0.00    -0.189 C  
HETATM    3  H   UNL     1      -9.735   9.896  69.849  1.00  0.00     0.000 HD 
ENDROOT
BRANCH   2   4
HETATM    4  C   UNL     1      -9.880  11.256  66.922  1.00  0.00    -0.193 C  
HETATM    5  H   UNL     1      -9.697  10.089  65.356  1.00  0.00     0.000 HD 
HETATM    6  O   UNL     1      -9.457  10.043  66.274  1.00  0.00    -0.172 OA 
BRANCH   4   7
HETATM    7  C   UNL     1     -11.390  11.491  66.687  1.00  0.00    -0.214 C  
HETATM    8  O   UNL     1     -12.057  11.581  67.961  1.00  0.00    -0.617 OA 
HETATM    9  H   UNL     1     -12.985  11.725  67.816  1.00  0.00     0.000 HD 
BRANCH   7  10
HETATM   10  C   UNL     1     -11.699  12.779  65.882  1.00  0.00    -0.414 C  
HETATM   11  H   UNL     1     -13.251  13.593  64.945  1.00  0.00     0.000 HD 
HETATM   12  O   UNL     1     -13.062  12.804  65.439  1.00  0.00    -0.529 OA 
BRANCH  10  13
HETATM   13  C   UNL     1     -10.765  12.960  64.673  1.00  0.00    -0.353 C  
HETATM   14  H   UNL     1      -9.631  14.394  63.951  1.00  0.00     0.000 HD 
HETATM   15  O   UNL     1     -10.208  14.283  64.697  1.00  0.00    -0.387 OA 
BRANCH  13  16
HETATM   16  C   UNL     1     -11.501  12.724  63.338  1.00  0.00    -0.394 C  
HETATM   17  O   UNL     1     -12.296  13.851  62.967  1.00  0.00    -1.101 OA 
HETATM   18  H   UNL     1     -12.749  13.707  62.145  1.00  0.00     0.000 HD 
ENDBRANCH  13  16
ENDBRANCH  10  13
ENDBRANCH   7  10
ENDBRANCH   4   7
ENDBRANCH   2   4
TORSDOF 5
ENDMDL
MODEL       74
REMARK 921   NORMALIZED FREE ENERGY PREDICTED BY IDOCK:   -3.87 KCAL/MOL
REMARK 922        TOTAL FREE ENERGY PREDICTED BY IDOCK:   -5.31 KCAL/MOL
REMARK 923 INTER-LIGAND FREE ENERGY PREDICTED BY IDOCK:   -4.27 KCAL/MOL
REMARK 924 INTRA-LIGAND FREE ENERGY PREDICTED BY IDOCK:   -1.04 KCAL/MOL
REMARK 927      BINDING AFFINITY PREDICTED BY RF-SCORE:    0.00 PKD
ROOT
HETATM    1  O   UNL     1     -13.563   9.305  70.721  1.00  0.00    -0.571 OA 
HETATM    2  C   UNL     1     -13.181   8.341  71.707  1.00  0.00    -0.347 C  
HETATM    3  H   UNL     1     -14.510   9.299  70.649  1.00  0.00     0.000 HD 
ENDROOT
BRANCH   2   4
HETATM    4  C   UNL     1     -11.654   8.351  71.823  1.00  0.00    -0.308 C  
HETATM    5  H   UNL     1     -10.336   7.760  73.150  1.00  0.00     0.000 HD 
HETATM    6  O   UNL     1     -11.283   7.754  73.078  1.00  0.00    -0.405 OA 
BRANCH   4   7
HETATM    7  C   UNL     1     -10.940   7.631  70.655  1.00  0.00    -0.249 C  
HETATM    8  O   UNL     1     -11.927   7.011  69.809  1.00  0.00    -0.588 OA 
HETATM    9  H   UNL     1     -11.489   6.569  69.092  1.00  0.00     0.000 HD 
BRANCH   7  10
HETATM   10  C   UNL     1     -10.072   8.574  69.783  1.00  0.00    -0.197 C  
HETATM   11  H   UNL     1      -9.503  10.478  69.791  1.00  0.00     0.000 HD 
HETATM   12  O   UNL     1     -10.035   9.900  70.325  1.00  0.00    -0.254 OA 
BRANCH  10  13
HETATM   13  C   UNL     1     -10.548   8.633  68.321  1.00  0.00    -0.128 C  
HETATM   14  H   UNL     1      -9.822   8.129  66.565  1.00  0.00     0.000 HD 
HETATM   15  O   UNL     1      -9.528   8.093  67.467  1.00  0.00    -0.147 OA 
BRANCH  13  16
HETATM   16  C   UNL     1     -10.889  10.074  67.886  1.00  0.00    -0.271 C  
HETATM   17  O   UNL     1     -12.142  10.503  68.421  1.00  0.00    -0.804 OA 
HETATM   18  H   UNL     1     -12.353  11.390  68.153  1.00  0.00     0.000 HD 
ENDBRANCH  13  16
ENDBRANCH  10  13
ENDBRANCH   7  10
ENDBRANCH   4   7
ENDBRANCH   2   4
TORSDOF 5
ENDMDL
MODEL       75
REMARK 921   NORMALIZED FREE ENERGY PREDICTED BY IDOCK:   -3.87 KCAL/MOL
REMARK 922        TOTAL FREE ENERGY PREDICTED BY IDOCK:   -5.31 KCAL/MOL
REMARK 923 INTER-LIGAND FREE ENERGY PREDICTED BY IDOCK:   -4.53 KCAL/MOL
REMARK 924 INTRA-LIGAND FREE ENERGY PREDICTED BY IDOCK:   -0.78 KCAL/MOL
REMARK 927      BINDING AFFINITY PREDICTED BY RF-SCORE:    0.00 PKD
ROOT
HETATM    1  O   UNL     1      -9.973  12.123  65.566  1.00  0.00    -0.246 OA 
HETATM    2  C   UNL     1     -11.360  12.349  65.302  1.00  0.00    -0.332 C  
HETATM    3  H   UNL     1      -9.695  11.362  65.070  1.00  0.00     0.000 HD 
ENDROOT
BRANCH   2   4
HETATM    4  C   UNL     1     -11.808  13.576  66.102  1.00  0.00    -0.389 C  
HETATM    5  H   UNL     1     -13.327  14.817  66.050  1.00  0.00     0.000 HD 
HETATM    6  O   UNL     1     -13.049  14.056  65.553  1.00  0.00    -0.713 OA 
BRANCH   4   7
HETATM    7  C   UNL     1     -11.961  13.306  67.617  1.00  0.00    -0.322 C  
HETATM    8  O   UNL     1     -11.959  11.883  67.845  1.00  0.00    -0.556 OA 
HETATM    9  H   UNL     1     -12.053  11.717  68.775  1.00  0.00     0.000 HD 
BRANCH   7  10
HETATM   10  C   UNL     1     -10.837  13.939  68.476  1.00  0.00    -0.259 C  
HETATM   11  H   UNL     1      -8.986  13.490  69.043  1.00  0.00     0.000 HD 
HETATM   12  O   UNL     1      -9.676  13.102  68.517  1.00  0.00    -0.211 OA 
BRANCH  10  13
HETATM   13  C   UNL     1     -11.294  14.249  69.912  1.00  0.00    -0.198 C  
HETATM   14  H   UNL     1     -12.362  13.347  71.294  1.00  0.00     0.000 HD 
HETATM   15  O   UNL     1     -12.081  13.155  70.407  1.00  0.00    -0.351 OA 
BRANCH  13  16
HETATM   16  C   UNL     1     -12.107  15.558  69.987  1.00  0.00    -0.368 C  
HETATM   17  O   UNL     1     -11.884  16.248  71.218  1.00  0.00    -0.588 OA 
HETATM   18  H   UNL     1     -12.384  17.054  71.265  1.00  0.00     0.000 HD 
ENDBRANCH  13  16
ENDBRANCH  10  13
ENDBRANCH   7  10
ENDBRANCH   4   7
ENDBRANCH   2   4
TORSDOF 5
ENDMDL
MODEL       76
REMARK 921   NORMALIZED FREE ENERGY PREDICTED BY IDOCK:   -3.86 KCAL/MOL
REMARK 922        TOTAL FREE ENERGY PREDICTED BY IDOCK:   -5.29 KCAL/MOL
REMARK 923 INTER-LIGAND FREE ENERGY PREDICTED BY IDOCK:   -4.94 KCAL/MOL
REMARK 924 INTRA-LIGAND FREE ENERGY PREDICTED BY IDOCK:   -0.35 KCAL/MOL
REMARK 927      BINDING AFFINITY PREDICTED BY RF-SCORE:    0.00 PKD
ROOT
HETATM    1  O   UNL     1     -11.875  10.233  68.080  1.00  0.00    -0.708 OA 
HETATM    2  C   UNL     1     -10.690  11.030  68.141  1.00  0.00    -0.205 C  
HETATM    3  H   UNL     1     -11.679   9.378  68.445  1.00  0.00     0.000 HD 
ENDROOT
BRANCH   2   4
HETATM    4  C   UNL     1     -11.006  12.408  67.551  1.00  0.00    -0.252 C  
HETATM    5  H   UNL     1     -12.467  13.193  66.505  1.00  0.00     0.000 HD 
HETATM    6  O   UNL     1     -12.271  12.339  66.871  1.00  0.00    -0.530 OA 
BRANCH   4   7
HETATM    7  C   UNL     1     -11.023  13.542  68.602  1.00  0.00    -0.263 C  
HETATM    8  O   UNL     1      -9.675  13.802  69.039  1.00  0.00    -0.413 OA 
HETATM    9  H   UNL     1      -9.686  14.498  69.685  1.00  0.00     0.000 HD 
BRANCH   7  10
HETATM   10  C   UNL     1     -11.629  14.868  68.074  1.00  0.00    -0.341 C  
HETATM   11  H   UNL     1     -11.246  16.197  66.647  1.00  0.00     0.000 HD 
HETATM   12  O   UNL     1     -10.875  15.384  66.971  1.00  0.00    -0.315 OA 
BRANCH  10  13
HETATM   13  C   UNL     1     -11.739  15.945  69.167  1.00  0.00    -0.363 C  
HETATM   14  H   UNL     1     -10.511  17.183  70.077  1.00  0.00     0.000 HD 
HETATM   15  O   UNL     1     -10.443  16.517  69.402  1.00  0.00    -0.292 OA 
BRANCH  13  16
HETATM   16  C   UNL     1     -12.309  15.375  70.482  1.00  0.00    -0.408 C  
HETATM   17  O   UNL     1     -13.719  15.584  70.581  1.00  0.00    -0.851 OA 
HETATM   18  H   UNL     1     -14.070  15.233  71.390  1.00  0.00     0.000 HD 
ENDBRANCH  13  16
ENDBRANCH  10  13
ENDBRANCH   7  10
ENDBRANCH   4   7
ENDBRANCH   2   4
TORSDOF 5
ENDMDL
MODEL       77
REMARK 921   NORMALIZED FREE ENERGY PREDICTED BY IDOCK:   -3.85 KCAL/MOL
REMARK 922        TOTAL FREE ENERGY PREDICTED BY IDOCK:   -5.28 KCAL/MOL
REMARK 923 INTER-LIGAND FREE ENERGY PREDICTED BY IDOCK:   -4.85 KCAL/MOL
REMARK 924 INTRA-LIGAND FREE ENERGY PREDICTED BY IDOCK:   -0.43 KCAL/MOL
REMARK 927      BINDING AFFINITY PREDICTED BY RF-SCORE:    0.00 PKD
ROOT
HETATM    1  O   UNL     1      -9.233   9.125  64.050  1.00  0.00    -0.421 OA 
HETATM    2  C   UNL     1      -8.724  10.408  64.423  1.00  0.00    -0.198 C  
HETATM    3  H   UNL     1      -8.524   8.494  64.107  1.00  0.00     0.000 HD 
ENDROOT
BRANCH   2   4
HETATM    4  C   UNL     1      -9.867  11.424  64.330  1.00  0.00    -0.261 C  
HETATM    5  H   UNL     1     -11.173  11.958  62.968  1.00  0.00     0.000 HD 
HETATM    6  O   UNL     1     -10.464  11.328  63.025  1.00  0.00    -0.273 OA 
BRANCH   4   7
HETATM    7  C   UNL     1     -10.943  11.247  65.427  1.00  0.00    -0.132 C  
HETATM    8  O   UNL     1     -10.522  10.214  66.338  1.00  0.00    -0.208 OA 
HETATM    9  H   UNL     1     -11.183  10.105  67.012  1.00  0.00     0.000 HD 
BRANCH   7  10
HETATM   10  C   UNL     1     -11.215  12.537  66.242  1.00  0.00    -0.315 C  
HETATM   11  H   UNL     1     -11.720  13.024  68.102  1.00  0.00     0.000 HD 
HETATM   12  O   UNL     1     -11.553  12.234  67.601  1.00  0.00    -0.319 OA 
BRANCH  10  13
HETATM   13  C   UNL     1     -12.323  13.406  65.623  1.00  0.00    -0.470 C  
HETATM   14  H   UNL     1     -13.779  13.149  64.326  1.00  0.00     0.000 HD 
HETATM   15  O   UNL     1     -13.095  12.612  64.709  1.00  0.00    -0.852 OA 
BRANCH  13  16
HETATM   16  C   UNL     1     -11.747  14.637  64.893  1.00  0.00    -0.403 C  
HETATM   17  O   UNL     1     -12.540  14.999  63.761  1.00  0.00    -0.997 OA 
HETATM   18  H   UNL     1     -12.186  15.757  63.312  1.00  0.00     0.000 HD 
ENDBRANCH  13  16
ENDBRANCH  10  13
ENDBRANCH   7  10
ENDBRANCH   4   7
ENDBRANCH   2   4
TORSDOF 5
ENDMDL
MODEL       78
REMARK 921   NORMALIZED FREE ENERGY PREDICTED BY IDOCK:   -3.84 KCAL/MOL
REMARK 922        TOTAL FREE ENERGY PREDICTED BY IDOCK:   -5.27 KCAL/MOL
REMARK 923 INTER-LIGAND FREE ENERGY PREDICTED BY IDOCK:   -4.77 KCAL/MOL
REMARK 924 INTRA-LIGAND FREE ENERGY PREDICTED BY IDOCK:   -0.50 KCAL/MOL
REMARK 927      BINDING AFFINITY PREDICTED BY RF-SCORE:    0.00 PKD
ROOT
HETATM    1  O   UNL     1     -12.230  12.414  66.785  1.00  0.00    -0.551 OA 
HETATM    2  C   UNL     1     -12.281  13.601  65.989  1.00  0.00    -0.449 C  
HETATM    3  H   UNL     1     -12.587  12.614  67.643  1.00  0.00     0.000 HD 
ENDROOT
BRANCH   2   4
HETATM    4  C   UNL     1     -11.705  13.279  64.607  1.00  0.00    -0.364 C  
HETATM    5  H   UNL     1     -10.029  13.648  63.656  1.00  0.00     0.000 HD 
HETATM    6  O   UNL     1     -10.387  13.848  64.513  1.00  0.00    -0.436 OA 
BRANCH   4   7
HETATM    7  C   UNL     1     -11.659  11.766  64.293  1.00  0.00    -0.277 C  
HETATM    8  O   UNL     1     -12.235  11.537  62.992  1.00  0.00    -0.968 OA 
HETATM    9  H   UNL     1     -12.208  10.607  62.799  1.00  0.00     0.000 HD 
BRANCH   7  10
HETATM   10  C   UNL     1     -10.228  11.172  64.304  1.00  0.00    -0.340 C  
HETATM   11  H   UNL     1      -9.024  10.205  63.053  1.00  0.00     0.000 HD 
HETATM   12  O   UNL     1      -9.902  10.569  63.047  1.00  0.00    -0.315 OA 
BRANCH  10  13
HETATM   13  C   UNL     1     -10.021  10.146  65.432  1.00  0.00    -0.307 C  
HETATM   14  H   UNL     1      -9.710  10.203  67.372  1.00  0.00     0.000 HD 
HETATM   15  O   UNL     1      -9.837  10.837  66.676  1.00  0.00    -0.188 OA 
BRANCH  13  16
HETATM   16  C   UNL     1      -8.813   9.226  65.158  1.00  0.00    -0.198 C  
HETATM   17  O   UNL     1      -9.177   7.846  65.216  1.00  0.00    -0.379 OA 
HETATM   18  H   UNL     1      -8.434   7.279  65.047  1.00  0.00     0.000 HD 
ENDBRANCH  13  16
ENDBRANCH  10  13
ENDBRANCH   7  10
ENDBRANCH   4   7
ENDBRANCH   2   4
TORSDOF 5
ENDMDL
MODEL       79
REMARK 921   NORMALIZED FREE ENERGY PREDICTED BY IDOCK:   -3.84 KCAL/MOL
REMARK 922        TOTAL FREE ENERGY PREDICTED BY IDOCK:   -5.27 KCAL/MOL
REMARK 923 INTER-LIGAND FREE ENERGY PREDICTED BY IDOCK:   -4.62 KCAL/MOL
REMARK 924 INTRA-LIGAND FREE ENERGY PREDICTED BY IDOCK:   -0.66 KCAL/MOL
REMARK 927      BINDING AFFINITY PREDICTED BY RF-SCORE:    0.00 PKD
ROOT
HETATM    1  O   UNL     1     -10.412  14.903  66.776  1.00  0.00    -0.274 OA 
HETATM    2  C   UNL     1     -11.077  14.044  67.706  1.00  0.00    -0.267 C  
HETATM    3  H   UNL     1     -10.580  15.804  67.027  1.00  0.00     0.000 HD 
ENDROOT
BRANCH   2   4
HETATM    4  C   UNL     1     -10.805  12.593  67.300  1.00  0.00    -0.248 C  
HETATM    5  H   UNL     1     -11.852  10.937  67.192  1.00  0.00     0.000 HD 
HETATM    6  O   UNL     1     -12.021  11.838  67.444  1.00  0.00    -0.617 OA 
BRANCH   4   7
HETATM    7  C   UNL     1     -10.250  12.445  65.864  1.00  0.00    -0.251 C  
HETATM    8  O   UNL     1      -8.823  12.256  65.928  1.00  0.00    -0.413 OA 
HETATM    9  H   UNL     1      -8.482  12.165  65.046  1.00  0.00     0.000 HD 
BRANCH   7  10
HETATM   10  C   UNL     1     -10.866  11.258  65.080  1.00  0.00    -0.216 C  
HETATM   11  H   UNL     1     -10.416   9.363  64.684  1.00  0.00     0.000 HD 
HETATM   12  O   UNL     1     -10.039  10.091  65.165  1.00  0.00    -0.325 OA 
BRANCH  10  13
HETATM   13  C   UNL     1     -11.122  11.596  63.601  1.00  0.00    -0.425 C  
HETATM   14  H   UNL     1     -10.435  12.895  62.295  1.00  0.00     0.000 HD 
HETATM   15  O   UNL     1     -10.276  12.687  63.209  1.00  0.00    -0.314 OA 
BRANCH  13  16
HETATM   16  C   UNL     1     -12.600  11.956  63.341  1.00  0.00    -0.431 C  
HETATM   17  O   UNL     1     -13.247  12.415  64.529  1.00  0.00    -0.834 OA 
HETATM   18  H   UNL     1     -14.157  12.637  64.370  1.00  0.00     0.000 HD 
ENDBRANCH  13  16
ENDBRANCH  10  13
ENDBRANCH   7  10
ENDBRANCH   4   7
ENDBRANCH   2   4
TORSDOF 5
ENDMDL
MODEL       80
REMARK 921   NORMALIZED FREE ENERGY PREDICTED BY IDOCK:   -3.82 KCAL/MOL
REMARK 922        TOTAL FREE ENERGY PREDICTED BY IDOCK:   -5.25 KCAL/MOL
REMARK 923 INTER-LIGAND FREE ENERGY PREDICTED BY IDOCK:   -4.84 KCAL/MOL
REMARK 924 INTRA-LIGAND FREE ENERGY PREDICTED BY IDOCK:   -0.41 KCAL/MOL
REMARK 927      BINDING AFFINITY PREDICTED BY RF-SCORE:    0.00 PKD
ROOT
HETATM    1  O   UNL     1     -12.046  10.870  67.904  1.00  0.00    -0.736 OA 
HETATM    2  C   UNL     1     -11.746  12.226  67.563  1.00  0.00    -0.332 C  
HETATM    3  H   UNL     1     -12.277  10.838  68.825  1.00  0.00     0.000 HD 
ENDROOT
BRANCH   2   4
HETATM    4  C   UNL     1     -11.373  12.277  66.078  1.00  0.00    -0.350 C  
HETATM    5  H   UNL     1     -12.349  12.388  64.381  1.00  0.00     0.000 HD 
HETATM    6  O   UNL     1     -12.581  12.357  65.302  1.00  0.00    -0.636 OA 
BRANCH   4   7
HETATM    7  C   UNL     1     -10.426  13.446  65.718  1.00  0.00    -0.290 C  
HETATM    8  O   UNL     1     -10.092  13.367  64.319  1.00  0.00    -0.637 OA 
HETATM    9  H   UNL     1      -9.509  14.084  64.097  1.00  0.00     0.000 HD 
BRANCH   7  10
HETATM   10  C   UNL     1     -11.032  14.844  65.997  1.00  0.00    -0.334 C  
HETATM   11  H   UNL     1     -11.885  16.313  64.964  1.00  0.00     0.000 HD 
HETATM   12  O   UNL     1     -11.513  15.455  64.793  1.00  0.00    -0.393 OA 
BRANCH  10  13
HETATM   13  C   UNL     1     -10.038  15.793  66.689  1.00  0.00    -0.279 C  
HETATM   14  H   UNL     1      -8.098  16.109  66.637  1.00  0.00     0.000 HD 
HETATM   15  O   UNL     1      -8.712  15.523  66.210  1.00  0.00    -0.304 OA 
BRANCH  13  16
HETATM   16  C   UNL     1     -10.082  15.653  68.224  1.00  0.00    -0.218 C  
HETATM   17  O   UNL     1     -11.390  15.908  68.740  1.00  0.00    -0.334 OA 
HETATM   18  H   UNL     1     -11.417  15.821  69.685  1.00  0.00     0.000 HD 
ENDBRANCH  13  16
ENDBRANCH  10  13
ENDBRANCH   7  10
ENDBRANCH   4   7
ENDBRANCH   2   4
TORSDOF 5
ENDMDL
MODEL       81
REMARK 921   NORMALIZED FREE ENERGY PREDICTED BY IDOCK:   -3.82 KCAL/MOL
REMARK 922        TOTAL FREE ENERGY PREDICTED BY IDOCK:   -5.25 KCAL/MOL
REMARK 923 INTER-LIGAND FREE ENERGY PREDICTED BY IDOCK:   -4.40 KCAL/MOL
REMARK 924 INTRA-LIGAND FREE ENERGY PREDICTED BY IDOCK:   -0.85 KCAL/MOL
REMARK 927      BINDING AFFINITY PREDICTED BY RF-SCORE:    0.00 PKD
ROOT
HETATM    1  O   UNL     1     -10.249  12.148  65.780  1.00  0.00    -0.240 OA 
HETATM    2  C   UNL     1     -11.657  12.345  65.624  1.00  0.00    -0.392 C  
HETATM    3  H   UNL     1     -10.073  11.214  65.748  1.00  0.00     0.000 HD 
ENDROOT
BRANCH   2   4
HETATM    4  C   UNL     1     -11.941  13.849  65.676  1.00  0.00    -0.392 C  
HETATM    5  H   UNL     1     -13.432  15.022  65.176  1.00  0.00     0.000 HD 
HETATM    6  O   UNL     1     -13.256  14.088  65.144  1.00  0.00    -0.768 OA 
BRANCH   4   7
HETATM    7  C   UNL     1     -11.817  14.454  67.094  1.00  0.00    -0.410 C  
HETATM    8  O   UNL     1     -11.799  13.387  68.062  1.00  0.00    -0.337 OA 
HETATM    9  H   UNL     1     -11.723  13.759  68.933  1.00  0.00     0.000 HD 
BRANCH   7  10
HETATM   10  C   UNL     1     -10.544  15.315  67.291  1.00  0.00    -0.290 C  
HETATM   11  H   UNL     1      -8.583  15.031  67.444  1.00  0.00     0.000 HD 
HETATM   12  O   UNL     1      -9.364  14.503  67.323  1.00  0.00    -0.197 OA 
BRANCH  10  13
HETATM   13  C   UNL     1     -10.604  16.178  68.564  1.00  0.00    -0.284 C  
HETATM   14  H   UNL     1     -11.911  16.521  69.992  1.00  0.00     0.000 HD 
HETATM   15  O   UNL     1     -11.874  15.989  69.206  1.00  0.00    -0.345 OA 
BRANCH  13  16
HETATM   16  C   UNL     1     -10.389  17.674  68.255  1.00  0.00    -0.384 C  
HETATM   17  O   UNL     1     -10.535  17.951  66.861  1.00  0.00    -0.356 OA 
HETATM   18  H   UNL     1     -10.404  18.872  66.670  1.00  0.00     0.000 HD 
ENDBRANCH  13  16
ENDBRANCH  10  13
ENDBRANCH   7  10
ENDBRANCH   4   7
ENDBRANCH   2   4
TORSDOF 5
ENDMDL
MODEL       82
REMARK 921   NORMALIZED FREE ENERGY PREDICTED BY IDOCK:   -3.81 KCAL/MOL
REMARK 922        TOTAL FREE ENERGY PREDICTED BY IDOCK:   -5.24 KCAL/MOL
REMARK 923 INTER-LIGAND FREE ENERGY PREDICTED BY IDOCK:   -4.65 KCAL/MOL
REMARK 924 INTRA-LIGAND FREE ENERGY PREDICTED BY IDOCK:   -0.59 KCAL/MOL
REMARK 927      BINDING AFFINITY PREDICTED BY RF-SCORE:    0.00 PKD
ROOT
HETATM    1  O   UNL     1     -12.350  14.480  67.386  1.00  0.00    -0.614 OA 
HETATM    2  C   UNL     1     -12.216  14.309  65.972  1.00  0.00    -0.404 C  
HETATM    3  H   UNL     1     -13.200  14.868  67.560  1.00  0.00     0.000 HD 
ENDROOT
BRANCH   2   4
HETATM    4  C   UNL     1     -10.846  13.683  65.692  1.00  0.00    -0.279 C  
HETATM    5  H   UNL     1      -8.980  14.130  66.099  1.00  0.00     0.000 HD 
HETATM    6  O   UNL     1      -9.830  14.519  66.273  1.00  0.00    -0.276 OA 
BRANCH   4   7
HETATM    7  C   UNL     1     -10.710  12.233  66.211  1.00  0.00    -0.259 C  
HETATM    8  O   UNL     1     -11.938  11.846  66.857  1.00  0.00    -0.614 OA 
HETATM    9  H   UNL     1     -11.855  10.955  67.177  1.00  0.00     0.000 HD 
BRANCH   7  10
HETATM   10  C   UNL     1     -10.398  11.202  65.097  1.00  0.00    -0.293 C  
HETATM   11  H   UNL     1      -8.856  10.099  64.501  1.00  0.00     0.000 HD 
HETATM   12  O   UNL     1      -9.048  10.731  65.184  1.00  0.00    -0.193 OA 
BRANCH  10  13
HETATM   13  C   UNL     1     -10.655  11.759  63.686  1.00  0.00    -0.439 C  
HETATM   14  H   UNL     1     -12.202  11.938  62.485  1.00  0.00     0.000 HD 
HETATM   15  O   UNL     1     -12.043  11.594  63.356  1.00  0.00    -0.441 OA 
BRANCH  13  16
HETATM   16  C   UNL     1      -9.776  11.065  62.625  1.00  0.00    -0.202 C  
HETATM   17  O   UNL     1      -8.453  11.602  62.604  1.00  0.00    -0.636 OA 
HETATM   18  H   UNL     1      -7.911  11.175  61.951  1.00  0.00     0.000 HD 
ENDBRANCH  13  16
ENDBRANCH  10  13
ENDBRANCH   7  10
ENDBRANCH   4   7
ENDBRANCH   2   4
TORSDOF 5
ENDMDL
MODEL       83
REMARK 921   NORMALIZED FREE ENERGY PREDICTED BY IDOCK:   -3.81 KCAL/MOL
REMARK 922        TOTAL FREE ENERGY PREDICTED BY IDOCK:   -5.24 KCAL/MOL
REMARK 923 INTER-LIGAND FREE ENERGY PREDICTED BY IDOCK:   -4.80 KCAL/MOL
REMARK 924 INTRA-LIGAND FREE ENERGY PREDICTED BY IDOCK:   -0.44 KCAL/MOL
REMARK 927      BINDING AFFINITY PREDICTED BY RF-SCORE:    0.00 PKD
ROOT
HETATM    1  O   UNL     1     -14.272   8.869  73.180  1.00  0.00    -1.144 OA 
HETATM    2  C   UNL     1     -13.493   8.480  72.045  1.00  0.00    -0.381 C  
HETATM    3  H   UNL     1     -15.164   8.568  73.047  1.00  0.00     0.000 HD 
ENDROOT
BRANCH   2   4
HETATM    4  C   UNL     1     -12.056   8.965  72.258  1.00  0.00    -0.322 C  
HETATM    5  H   UNL     1     -10.445   8.263  73.130  1.00  0.00     0.000 HD 
HETATM    6  O   UNL     1     -11.337   7.962  72.998  1.00  0.00    -0.408 OA 
BRANCH   4   7
HETATM    7  C   UNL     1     -11.313   9.298  70.944  1.00  0.00    -0.308 C  
HETATM    8  O   UNL     1     -11.822   8.460  69.889  1.00  0.00    -0.307 OA 
HETATM    9  H   UNL     1     -11.366   8.665  69.081  1.00  0.00     0.000 HD 
BRANCH   7  10
HETATM   10  C   UNL     1     -11.461  10.778  70.506  1.00  0.00    -0.275 C  
HETATM   11  H   UNL     1     -12.663  12.314  70.889  1.00  0.00     0.000 HD 
HETATM   12  O   UNL     1     -12.572  11.407  71.157  1.00  0.00    -0.394 OA 
BRANCH  10  13
HETATM   13  C   UNL     1     -11.607  10.933  68.983  1.00  0.00    -0.316 C  
HETATM   14  H   UNL     1     -10.582  10.402  67.391  1.00  0.00     0.000 HD 
HETATM   15  O   UNL     1     -10.492  10.306  68.332  1.00  0.00    -0.180 OA 
BRANCH  13  16
HETATM   16  C   UNL     1     -11.697  12.414  68.561  1.00  0.00    -0.326 C  
HETATM   17  O   UNL     1     -11.058  13.272  69.508  1.00  0.00    -0.440 OA 
HETATM   18  H   UNL     1     -11.113  14.184  69.249  1.00  0.00     0.000 HD 
ENDBRANCH  13  16
ENDBRANCH  10  13
ENDBRANCH   7  10
ENDBRANCH   4   7
ENDBRANCH   2   4
TORSDOF 5
ENDMDL
MODEL       84
REMARK 921   NORMALIZED FREE ENERGY PREDICTED BY IDOCK:   -3.81 KCAL/MOL
REMARK 922        TOTAL FREE ENERGY PREDICTED BY IDOCK:   -5.23 KCAL/MOL
REMARK 923 INTER-LIGAND FREE ENERGY PREDICTED BY IDOCK:   -5.01 KCAL/MOL
REMARK 924 INTRA-LIGAND FREE ENERGY PREDICTED BY IDOCK:   -0.22 KCAL/MOL
REMARK 927      BINDING AFFINITY PREDICTED BY RF-SCORE:    0.00 PKD
ROOT
HETATM    1  O   UNL     1     -12.408  12.831  66.304  1.00  0.00    -0.521 OA 
HETATM    2  C   UNL     1     -11.786  13.946  65.658  1.00  0.00    -0.354 C  
HETATM    3  H   UNL     1     -12.752  12.252  65.634  1.00  0.00     0.000 HD 
ENDROOT
BRANCH   2   4
HETATM    4  C   UNL     1     -11.233  14.880  66.739  1.00  0.00    -0.338 C  
HETATM    5  H   UNL     1     -10.303  14.661  68.453  1.00  0.00     0.000 HD 
HETATM    6  O   UNL     1     -10.647  14.081  67.782  1.00  0.00    -0.239 OA 
BRANCH   4   7
HETATM    7  C   UNL     1     -10.204  15.903  66.205  1.00  0.00    -0.324 C  
HETATM    8  O   UNL     1     -10.631  16.369  64.910  1.00  0.00    -0.677 OA 
HETATM    9  H   UNL     1      -9.998  16.998  64.582  1.00  0.00     0.000 HD 
BRANCH   7  10
HETATM   10  C   UNL     1     -10.015  17.133  67.129  1.00  0.00    -0.283 C  
HETATM   11  H   UNL     1     -10.937  17.963  68.682  1.00  0.00     0.000 HD 
HETATM   12  O   UNL     1     -11.052  17.209  68.115  1.00  0.00    -0.315 OA 
BRANCH  10  13
HETATM   13  C   UNL     1      -9.956  18.457  66.348  1.00  0.00    -0.386 C  
HETATM   14  H   UNL     1      -8.562  19.535  65.475  1.00  0.00     0.000 HD 
HETATM   15  O   UNL     1      -8.599  18.717  65.957  1.00  0.00    -0.481 OA 
BRANCH  13  16
HETATM   16  C   UNL     1     -10.500  19.639  67.176  1.00  0.00    -0.471 C  
HETATM   17  O   UNL     1      -9.841  20.862  66.847  1.00  0.00    -0.620 OA 
HETATM   18  H   UNL     1     -10.176  21.590  67.356  1.00  0.00     0.000 HD 
ENDBRANCH  13  16
ENDBRANCH  10  13
ENDBRANCH   7  10
ENDBRANCH   4   7
ENDBRANCH   2   4
TORSDOF 5
ENDMDL
MODEL       85
REMARK 921   NORMALIZED FREE ENERGY PREDICTED BY IDOCK:   -3.80 KCAL/MOL
REMARK 922        TOTAL FREE ENERGY PREDICTED BY IDOCK:   -5.22 KCAL/MOL
REMARK 923 INTER-LIGAND FREE ENERGY PREDICTED BY IDOCK:   -4.78 KCAL/MOL
REMARK 924 INTRA-LIGAND FREE ENERGY PREDICTED BY IDOCK:   -0.44 KCAL/MOL
REMARK 927      BINDING AFFINITY PREDICTED BY RF-SCORE:    0.00 PKD
ROOT
HETATM    1  O   UNL     1      -8.299  13.765  68.865  1.00  0.00    -0.335 OA 
HETATM    2  C   UNL     1      -9.162  13.301  67.823  1.00  0.00    -0.209 C  
HETATM    3  H   UNL     1      -7.679  14.378  68.488  1.00  0.00     0.000 HD 
ENDROOT
BRANCH   2   4
HETATM    4  C   UNL     1     -10.161  12.312  68.431  1.00  0.00    -0.217 C  
HETATM    5  H   UNL     1     -11.852  12.442  69.417  1.00  0.00     0.000 HD 
HETATM    6  O   UNL     1     -11.232  13.055  69.040  1.00  0.00    -0.254 OA 
BRANCH   4   7
HETATM    7  C   UNL     1     -10.726  11.296  67.411  1.00  0.00    -0.242 C  
HETATM    8  O   UNL     1     -11.977  10.779  67.904  1.00  0.00    -0.753 OA 
HETATM    9  H   UNL     1     -12.324  10.155  67.278  1.00  0.00     0.000 HD 
BRANCH   7  10
HETATM   10  C   UNL     1     -10.967  11.899  66.004  1.00  0.00    -0.309 C  
HETATM   11  H   UNL     1     -12.497  12.589  64.940  1.00  0.00     0.000 HD 
HETATM   12  O   UNL     1     -12.349  12.220  65.802  1.00  0.00    -0.622 OA 
BRANCH  10  13
HETATM   13  C   UNL     1     -10.488  10.972  64.873  1.00  0.00    -0.303 C  
HETATM   14  H   UNL     1      -8.813  10.062  64.390  1.00  0.00     0.000 HD 
HETATM   15  O   UNL     1      -9.109  10.634  65.088  1.00  0.00    -0.185 OA 
BRANCH  13  16
HETATM   16  C   UNL     1     -10.659  11.623  63.485  1.00  0.00    -0.435 C  
HETATM   17  O   UNL     1     -11.998  11.494  63.003  1.00  0.00    -0.917 OA 
HETATM   18  H   UNL     1     -12.104  11.895  62.149  1.00  0.00     0.000 HD 
ENDBRANCH  13  16
ENDBRANCH  10  13
ENDBRANCH   7  10
ENDBRANCH   4   7
ENDBRANCH   2   4
TORSDOF 5
ENDMDL
MODEL       86
REMARK 921   NORMALIZED FREE ENERGY PREDICTED BY IDOCK:   -3.80 KCAL/MOL
REMARK 922        TOTAL FREE ENERGY PREDICTED BY IDOCK:   -5.22 KCAL/MOL
REMARK 923 INTER-LIGAND FREE ENERGY PREDICTED BY IDOCK:   -4.69 KCAL/MOL
REMARK 924 INTRA-LIGAND FREE ENERGY PREDICTED BY IDOCK:   -0.53 KCAL/MOL
REMARK 927      BINDING AFFINITY PREDICTED BY RF-SCORE:    0.00 PKD
ROOT
HETATM    1  O   UNL     1     -12.468  14.211  63.147  1.00  0.00    -1.126 OA 
HETATM    2  C   UNL     1     -12.143  14.384  64.529  1.00  0.00    -0.481 C  
HETATM    3  H   UNL     1     -12.343  15.043  62.705  1.00  0.00     0.000 HD 
ENDROOT
BRANCH   2   4
HETATM    4  C   UNL     1     -12.344  13.044  65.242  1.00  0.00    -0.486 C  
HETATM    5  H   UNL     1     -13.494  11.474  64.997  1.00  0.00     0.000 HD 
HETATM    6  O   UNL     1     -13.370  12.305  64.555  1.00  0.00    -0.769 OA 
BRANCH   4   7
HETATM    7  C   UNL     1     -11.053  12.198  65.347  1.00  0.00    -0.317 C  
HETATM    8  O   UNL     1     -10.209  12.484  64.215  1.00  0.00    -0.383 OA 
HETATM    9  H   UNL     1      -9.417  11.964  64.279  1.00  0.00     0.000 HD 
BRANCH   7  10
HETATM   10  C   UNL     1     -10.242  12.462  66.641  1.00  0.00    -0.224 C  
HETATM   11  H   UNL     1      -8.821  13.706  67.259  1.00  0.00     0.000 HD 
HETATM   12  O   UNL     1      -9.319  13.544  66.466  1.00  0.00    -0.257 OA 
BRANCH  10  13
HETATM   13  C   UNL     1      -9.483  11.216  67.129  1.00  0.00    -0.172 C  
HETATM   14  H   UNL     1      -8.850  10.518  68.854  1.00  0.00     0.000 HD 
HETATM   15  O   UNL     1      -9.319  11.288  68.553  1.00  0.00    -0.176 OA 
BRANCH  13  16
HETATM   16  C   UNL     1      -8.106  11.078  66.447  1.00  0.00    -0.166 C  
HETATM   17  O   UNL     1      -7.079  11.732  67.195  1.00  0.00    -0.129 OA 
HETATM   18  H   UNL     1      -6.231  11.647  66.776  1.00  0.00     0.000 HD 
ENDBRANCH  13  16
ENDBRANCH  10  13
ENDBRANCH   7  10
ENDBRANCH   4   7
ENDBRANCH   2   4
TORSDOF 5
ENDMDL
MODEL       87
REMARK 921   NORMALIZED FREE ENERGY PREDICTED BY IDOCK:   -3.79 KCAL/MOL
REMARK 922        TOTAL FREE ENERGY PREDICTED BY IDOCK:   -5.21 KCAL/MOL
REMARK 923 INTER-LIGAND FREE ENERGY PREDICTED BY IDOCK:   -4.66 KCAL/MOL
REMARK 924 INTRA-LIGAND FREE ENERGY PREDICTED BY IDOCK:   -0.55 KCAL/MOL
REMARK 927      BINDING AFFINITY PREDICTED BY RF-SCORE:    0.00 PKD
ROOT
HETATM    1  O   UNL     1      -9.542   7.453  72.973  1.00  0.00    -0.160 OA 
HETATM    2  C   UNL     1     -10.931   7.400  73.311  1.00  0.00    -0.318 C  
HETATM    3  H   UNL     1      -9.038   7.431  73.778  1.00  0.00     0.000 HD 
ENDROOT
BRANCH   2   4
HETATM    4  C   UNL     1     -11.743   7.435  72.013  1.00  0.00    -0.289 C  
HETATM    5  H   UNL     1     -13.028   6.252  71.119  1.00  0.00     0.000 HD 
HETATM    6  O   UNL     1     -12.524   6.230  71.924  1.00  0.00    -0.290 OA 
BRANCH   4   7
HETATM    7  C   UNL     1     -12.657   8.677  71.887  1.00  0.00    -0.359 C  
HETATM    8  O   UNL     1     -13.241   8.963  73.173  1.00  0.00    -0.867 OA 
HETATM    9  H   UNL     1     -13.803   9.726  73.096  1.00  0.00     0.000 HD 
BRANCH   7  10
HETATM   10  C   UNL     1     -11.916   9.945  71.394  1.00  0.00    -0.404 C  
HETATM   11  H   UNL     1     -12.383  11.740  70.681  1.00  0.00     0.000 HD 
HETATM   12  O   UNL     1     -12.837  10.963  70.984  1.00  0.00    -0.368 OA 
BRANCH  10  13
HETATM   13  C   UNL     1     -10.937   9.649  70.243  1.00  0.00    -0.285 C  
HETATM   14  H   UNL     1      -9.005   9.336  70.061  1.00  0.00     0.000 HD 
HETATM   15  O   UNL     1      -9.609   9.519  70.772  1.00  0.00    -0.259 OA 
BRANCH  13  16
HETATM   16  C   UNL     1     -10.969  10.751  69.164  1.00  0.00    -0.244 C  
HETATM   17  O   UNL     1     -12.124  10.640  68.331  1.00  0.00    -0.813 OA 
HETATM   18  H   UNL     1     -12.144  11.318  67.666  1.00  0.00     0.000 HD 
ENDBRANCH  13  16
ENDBRANCH  10  13
ENDBRANCH   7  10
ENDBRANCH   4   7
ENDBRANCH   2   4
TORSDOF 5
ENDMDL
MODEL       88
REMARK 921   NORMALIZED FREE ENERGY PREDICTED BY IDOCK:   -3.79 KCAL/MOL
REMARK 922        TOTAL FREE ENERGY PREDICTED BY IDOCK:   -5.21 KCAL/MOL
REMARK 923 INTER-LIGAND FREE ENERGY PREDICTED BY IDOCK:   -4.47 KCAL/MOL
REMARK 924 INTRA-LIGAND FREE ENERGY PREDICTED BY IDOCK:   -0.73 KCAL/MOL
REMARK 927      BINDING AFFINITY PREDICTED BY RF-SCORE:    0.00 PKD
ROOT
HETATM    1  O   UNL     1     -12.715   8.252  72.859  1.00  0.00    -0.638 OA 
HETATM    2  C   UNL     1     -13.800   9.057  72.387  1.00  0.00    -0.475 C  
HETATM    3  H   UNL     1     -13.060   7.619  73.478  1.00  0.00     0.000 HD 
ENDROOT
BRANCH   2   4
HETATM    4  C   UNL     1     -13.243  10.077  71.390  1.00  0.00    -0.395 C  
HETATM    5  H   UNL     1     -12.907  12.010  71.387  1.00  0.00     0.000 HD 
HETATM    6  O   UNL     1     -13.252  11.377  72.006  1.00  0.00    -0.503 OA 
BRANCH   4   7
HETATM    7  C   UNL     1     -11.824   9.735  70.881  1.00  0.00    -0.336 C  
HETATM    8  O   UNL     1     -11.837   8.417  70.299  1.00  0.00    -0.477 OA 
HETATM    9  H   UNL     1     -10.965   8.206  69.986  1.00  0.00     0.000 HD 
BRANCH   7  10
HETATM   10  C   UNL     1     -11.288  10.731  69.821  1.00  0.00    -0.300 C  
HETATM   11  H   UNL     1     -11.943  11.616  68.167  1.00  0.00     0.000 HD 
HETATM   12  O   UNL     1     -12.272  11.005  68.817  1.00  0.00    -0.546 OA 
BRANCH  10  13
HETATM   13  C   UNL     1      -9.994  10.240  69.148  1.00  0.00    -0.222 C  
HETATM   14  H   UNL     1      -8.374   9.277  69.707  1.00  0.00     0.000 HD 
HETATM   15  O   UNL     1      -9.172   9.580  70.123  1.00  0.00    -0.211 OA 
BRANCH  13  16
HETATM   16  C   UNL     1      -9.210  11.398  68.497  1.00  0.00    -0.174 C  
HETATM   17  O   UNL     1     -10.054  12.217  67.686  1.00  0.00    -0.194 OA 
HETATM   18  H   UNL     1      -9.571  12.930  67.286  1.00  0.00     0.000 HD 
ENDBRANCH  13  16
ENDBRANCH  10  13
ENDBRANCH   7  10
ENDBRANCH   4   7
ENDBRANCH   2   4
TORSDOF 5
ENDMDL
MODEL       89
REMARK 921   NORMALIZED FREE ENERGY PREDICTED BY IDOCK:   -3.78 KCAL/MOL
REMARK 922        TOTAL FREE ENERGY PREDICTED BY IDOCK:   -5.20 KCAL/MOL
REMARK 923 INTER-LIGAND FREE ENERGY PREDICTED BY IDOCK:   -4.37 KCAL/MOL
REMARK 924 INTRA-LIGAND FREE ENERGY PREDICTED BY IDOCK:   -0.83 KCAL/MOL
REMARK 927      BINDING AFFINITY PREDICTED BY RF-SCORE:    0.00 PKD
ROOT
HETATM    1  O   UNL     1     -10.255  14.778  69.955  1.00  0.00    -0.452 OA 
HETATM    2  C   UNL     1      -9.288  15.330  69.058  1.00  0.00    -0.231 C  
HETATM    3  H   UNL     1      -9.805  14.495  70.743  1.00  0.00     0.000 HD 
ENDROOT
BRANCH   2   4
HETATM    4  C   UNL     1     -10.014  15.785  67.789  1.00  0.00    -0.227 C  
HETATM    5  H   UNL     1     -11.258  14.974  66.507  1.00  0.00     0.000 HD 
HETATM    6  O   UNL     1     -10.807  14.691  67.294  1.00  0.00    -0.291 OA 
BRANCH   4   7
HETATM    7  C   UNL     1     -10.896  17.038  67.995  1.00  0.00    -0.330 C  
HETATM    8  O   UNL     1     -10.682  17.551  69.324  1.00  0.00    -0.379 OA 
HETATM    9  H   UNL     1     -11.225  18.320  69.452  1.00  0.00     0.000 HD 
BRANCH   7  10
HETATM   10  C   UNL     1     -10.608  18.173  66.981  1.00  0.00    -0.328 C  
HETATM   11  H   UNL     1     -10.162  18.348  65.052  1.00  0.00     0.000 HD 
HETATM   12  O   UNL     1     -10.338  17.651  65.674  1.00  0.00    -0.606 OA 
BRANCH  10  13
HETATM   13  C   UNL     1      -9.443  19.078  67.420  1.00  0.00    -0.301 C  
HETATM   14  H   UNL     1      -9.236  20.723  68.475  1.00  0.00     0.000 HD 
HETATM   15  O   UNL     1      -9.955  20.165  68.205  1.00  0.00    -0.392 OA 
BRANCH  13  16
HETATM   16  C   UNL     1      -8.654  19.626  66.213  1.00  0.00    -0.366 C  
HETATM   17  O   UNL     1      -7.633  18.719  65.794  1.00  0.00    -0.468 OA 
HETATM   18  H   UNL     1      -7.147  19.056  65.050  1.00  0.00     0.000 HD 
ENDBRANCH  13  16
ENDBRANCH  10  13
ENDBRANCH   7  10
ENDBRANCH   4   7
ENDBRANCH   2   4
TORSDOF 5
ENDMDL
MODEL       90
REMARK 921   NORMALIZED FREE ENERGY PREDICTED BY IDOCK:   -3.77 KCAL/MOL
REMARK 922        TOTAL FREE ENERGY PREDICTED BY IDOCK:   -5.18 KCAL/MOL
REMARK 923 INTER-LIGAND FREE ENERGY PREDICTED BY IDOCK:   -4.86 KCAL/MOL
REMARK 924 INTRA-LIGAND FREE ENERGY PREDICTED BY IDOCK:   -0.32 KCAL/MOL
REMARK 927      BINDING AFFINITY PREDICTED BY RF-SCORE:    0.00 PKD
ROOT
HETATM    1  O   UNL     1      -8.351  14.307  69.095  1.00  0.00    -0.339 OA 
HETATM    2  C   UNL     1      -9.698  14.247  68.617  1.00  0.00    -0.213 C  
HETATM    3  H   UNL     1      -7.876  13.563  68.743  1.00  0.00     0.000 HD 
ENDROOT
BRANCH   2   4
HETATM    4  C   UNL     1     -10.463  15.446  69.184  1.00  0.00    -0.239 C  
HETATM    5  H   UNL     1     -10.903  17.258  68.573  1.00  0.00     0.000 HD 
HETATM    6  O   UNL     1     -10.428  16.514  68.221  1.00  0.00    -0.282 OA 
BRANCH   4   7
HETATM    7  C   UNL     1     -11.925  15.121  69.571  1.00  0.00    -0.321 C  
HETATM    8  O   UNL     1     -12.524  14.329  68.527  1.00  0.00    -0.565 OA 
HETATM    9  H   UNL     1     -13.422  14.130  68.765  1.00  0.00     0.000 HD 
BRANCH   7  10
HETATM   10  C   UNL     1     -12.055  14.347  70.907  1.00  0.00    -0.344 C  
HETATM   11  H   UNL     1     -12.358  12.475  71.502  1.00  0.00     0.000 HD 
HETATM   12  O   UNL     1     -12.278  12.950  70.683  1.00  0.00    -0.372 OA 
BRANCH  10  13
HETATM   13  C   UNL     1     -13.172  14.904  71.807  1.00  0.00    -0.349 C  
HETATM   14  H   UNL     1     -14.895  15.814  71.543  1.00  0.00     0.000 HD 
HETATM   15  O   UNL     1     -14.205  15.471  70.987  1.00  0.00    -0.490 OA 
BRANCH  13  16
HETATM   16  C   UNL     1     -12.642  15.966  72.793  1.00  0.00    -0.470 C  
HETATM   17  O   UNL     1     -13.563  16.205  73.858  1.00  0.00    -0.879 OA 
HETATM   18  H   UNL     1     -13.236  16.858  74.465  1.00  0.00     0.000 HD 
ENDBRANCH  13  16
ENDBRANCH  10  13
ENDBRANCH   7  10
ENDBRANCH   4   7
ENDBRANCH   2   4
TORSDOF 5
ENDMDL
MODEL       91
REMARK 921   NORMALIZED FREE ENERGY PREDICTED BY IDOCK:   -3.76 KCAL/MOL
REMARK 922        TOTAL FREE ENERGY PREDICTED BY IDOCK:   -5.17 KCAL/MOL
REMARK 923 INTER-LIGAND FREE ENERGY PREDICTED BY IDOCK:   -4.52 KCAL/MOL
REMARK 924 INTRA-LIGAND FREE ENERGY PREDICTED BY IDOCK:   -0.64 KCAL/MOL
REMARK 927      BINDING AFFINITY PREDICTED BY RF-SCORE:    0.00 PKD
ROOT
HETATM    1  O   UNL     1     -12.212  11.001  68.347  1.00  0.00    -0.770 OA 
HETATM    2  C   UNL     1     -11.100  11.872  68.576  1.00  0.00    -0.243 C  
HETATM    3  H   UNL     1     -12.372  10.506  69.142  1.00  0.00     0.000 HD 
ENDROOT
BRANCH   2   4
HETATM    4  C   UNL     1     -10.843  12.669  67.294  1.00  0.00    -0.248 C  
HETATM    5  H   UNL     1      -9.267  13.390  66.373  1.00  0.00     0.000 HD 
HETATM    6  O   UNL     1      -9.427  12.895  67.168  1.00  0.00    -0.214 OA 
BRANCH   4   7
HETATM    7  C   UNL     1     -11.392  11.988  66.019  1.00  0.00    -0.343 C  
HETATM    8  O   UNL     1     -12.628  12.624  65.641  1.00  0.00    -0.611 OA 
HETATM    9  H   UNL     1     -12.966  12.205  64.858  1.00  0.00     0.000 HD 
BRANCH   7  10
HETATM   10  C   UNL     1     -10.421  12.051  64.814  1.00  0.00    -0.294 C  
HETATM   11  H   UNL     1     -10.410  12.788  62.968  1.00  0.00     0.000 HD 
HETATM   12  O   UNL     1     -11.005  12.749  63.708  1.00  0.00    -0.409 OA 
BRANCH  10  13
HETATM   13  C   UNL     1      -9.958  10.658  64.352  1.00  0.00    -0.350 C  
HETATM   14  H   UNL     1      -9.617   8.917  65.198  1.00  0.00     0.000 HD 
HETATM   15  O   UNL     1      -9.902   9.777  65.484  1.00  0.00    -0.294 OA 
BRANCH  13  16
HETATM   16  C   UNL     1      -8.582  10.710  63.657  1.00  0.00    -0.110 C  
HETATM   17  O   UNL     1      -8.555  11.683  62.611  1.00  0.00    -0.640 OA 
HETATM   18  H   UNL     1      -7.708  11.716  62.184  1.00  0.00     0.000 HD 
ENDBRANCH  13  16
ENDBRANCH  10  13
ENDBRANCH   7  10
ENDBRANCH   4   7
ENDBRANCH   2   4
TORSDOF 5
ENDMDL
MODEL       92
REMARK 921   NORMALIZED FREE ENERGY PREDICTED BY IDOCK:   -3.76 KCAL/MOL
REMARK 922        TOTAL FREE ENERGY PREDICTED BY IDOCK:   -5.17 KCAL/MOL
REMARK 923 INTER-LIGAND FREE ENERGY PREDICTED BY IDOCK:   -4.47 KCAL/MOL
REMARK 924 INTRA-LIGAND FREE ENERGY PREDICTED BY IDOCK:   -0.70 KCAL/MOL
REMARK 927      BINDING AFFINITY PREDICTED BY RF-SCORE:    0.00 PKD
ROOT
HETATM    1  O   UNL     1      -9.130   8.670  67.667  1.00  0.00    -0.134 OA 
HETATM    2  C   UNL     1     -10.335   9.140  67.057  1.00  0.00    -0.263 C  
HETATM    3  H   UNL     1      -9.047   7.740  67.488  1.00  0.00     0.000 HD 
ENDROOT
BRANCH   2   4
HETATM    4  C   UNL     1     -10.468  10.638  67.347  1.00  0.00    -0.235 C  
HETATM    5  H   UNL     1      -9.909  11.853  68.782  1.00  0.00     0.000 HD 
HETATM    6  O   UNL     1      -9.827  10.923  68.603  1.00  0.00    -0.176 OA 
BRANCH   4   7
HETATM    7  C   UNL     1      -9.889  11.538  66.232  1.00  0.00    -0.217 C  
HETATM    8  O   UNL     1      -9.210  10.713  65.265  1.00  0.00    -0.178 OA 
HETATM    9  H   UNL     1      -8.853  11.267  64.580  1.00  0.00     0.000 HD 
BRANCH   7  10
HETATM   10  C   UNL     1     -10.961  12.377  65.491  1.00  0.00    -0.293 C  
HETATM   11  H   UNL     1     -12.858  12.906  65.756  1.00  0.00     0.000 HD 
HETATM   12  O   UNL     1     -12.200  12.392  66.210  1.00  0.00    -0.620 OA 
BRANCH  10  13
HETATM   13  C   UNL     1     -11.210  11.884  64.055  1.00  0.00    -0.396 C  
HETATM   14  H   UNL     1     -10.255  11.955  62.338  1.00  0.00     0.000 HD 
HETATM   15  O   UNL     1     -10.101  12.260  63.225  1.00  0.00    -0.388 OA 
BRANCH  13  16
HETATM   16  C   UNL     1     -12.520  12.452  63.471  1.00  0.00    -0.500 C  
HETATM   17  O   UNL     1     -12.497  13.879  63.413  1.00  0.00    -1.068 OA 
HETATM   18  H   UNL     1     -13.303  14.230  63.053  1.00  0.00     0.000 HD 
ENDBRANCH  13  16
ENDBRANCH  10  13
ENDBRANCH   7  10
ENDBRANCH   4   7
ENDBRANCH   2   4
TORSDOF 5
ENDMDL
MODEL       93
REMARK 921   NORMALIZED FREE ENERGY PREDICTED BY IDOCK:   -3.73 KCAL/MOL
REMARK 922        TOTAL FREE ENERGY PREDICTED BY IDOCK:   -5.13 KCAL/MOL
REMARK 923 INTER-LIGAND FREE ENERGY PREDICTED BY IDOCK:   -4.96 KCAL/MOL
REMARK 924 INTRA-LIGAND FREE ENERGY PREDICTED BY IDOCK:   -0.17 KCAL/MOL
REMARK 927      BINDING AFFINITY PREDICTED BY RF-SCORE:    0.00 PKD
ROOT
HETATM    1  O   UNL     1     -12.634  11.596  63.088  1.00  0.00    -0.926 OA 
HETATM    2  C   UNL     1     -11.476  12.394  63.346  1.00  0.00    -0.448 C  
HETATM    3  H   UNL     1     -12.465  11.062  62.321  1.00  0.00     0.000 HD 
ENDROOT
BRANCH   2   4
HETATM    4  C   UNL     1     -11.750  13.254  64.583  1.00  0.00    -0.364 C  
HETATM    5  H   UNL     1     -13.309  13.663  65.701  1.00  0.00     0.000 HD 
HETATM    6  O   UNL     1     -13.140  13.130  64.933  1.00  0.00    -0.744 OA 
BRANCH   4   7
HETATM    7  C   UNL     1     -10.858  12.897  65.796  1.00  0.00    -0.269 C  
HETATM    8  O   UNL     1     -10.928  13.962  66.762  1.00  0.00    -0.294 OA 
HETATM    9  H   UNL     1     -10.380  13.743  67.507  1.00  0.00     0.000 HD 
BRANCH   7  10
HETATM   10  C   UNL     1     -11.264  11.575  66.496  1.00  0.00    -0.259 C  
HETATM   11  H   UNL     1     -12.368  11.009  68.048  1.00  0.00     0.000 HD 
HETATM   12  O   UNL     1     -12.119  11.819  67.619  1.00  0.00    -0.598 OA 
BRANCH  10  13
HETATM   13  C   UNL     1     -10.048  10.748  66.950  1.00  0.00    -0.212 C  
HETATM   14  H   UNL     1      -8.505   9.889  66.085  1.00  0.00     0.000 HD 
HETATM   15  O   UNL     1      -9.256  10.400  65.804  1.00  0.00    -0.160 OA 
BRANCH  13  16
HETATM   16  C   UNL     1     -10.471   9.471  67.705  1.00  0.00    -0.263 C  
HETATM   17  O   UNL     1     -11.207   9.778  68.890  1.00  0.00    -0.425 OA 
HETATM   18  H   UNL     1     -11.468   8.992  69.355  1.00  0.00     0.000 HD 
ENDBRANCH  13  16
ENDBRANCH  10  13
ENDBRANCH   7  10
ENDBRANCH   4   7
ENDBRANCH   2   4
TORSDOF 5
ENDMDL
MODEL       94
REMARK 921   NORMALIZED FREE ENERGY PREDICTED BY IDOCK:   -3.70 KCAL/MOL
REMARK 922        TOTAL FREE ENERGY PREDICTED BY IDOCK:   -5.09 KCAL/MOL
REMARK 923 INTER-LIGAND FREE ENERGY PREDICTED BY IDOCK:   -4.63 KCAL/MOL
REMARK 924 INTRA-LIGAND FREE ENERGY PREDICTED BY IDOCK:   -0.46 KCAL/MOL
REMARK 927      BINDING AFFINITY PREDICTED BY RF-SCORE:    0.00 PKD
ROOT
HETATM    1  O   UNL     1     -11.778   5.599  73.002  1.00  0.00    -0.516 OA 
HETATM    2  C   UNL     1     -10.598   6.382  72.802  1.00  0.00    -0.229 C  
HETATM    3  H   UNL     1     -11.854   5.405  73.929  1.00  0.00     0.000 HD 
ENDROOT
BRANCH   2   4
HETATM    4  C   UNL     1     -10.475   6.694  71.307  1.00  0.00    -0.215 C  
HETATM    5  H   UNL     1     -10.540   5.661  69.641  1.00  0.00     0.000 HD 
HETATM    6  O   UNL     1     -10.615   5.467  70.568  1.00  0.00    -0.269 OA 
BRANCH   4   7
HETATM    7  C   UNL     1     -11.497   7.741  70.807  1.00  0.00    -0.272 C  
HETATM    8  O   UNL     1     -12.780   7.106  70.642  1.00  0.00    -0.609 OA 
HETATM    9  H   UNL     1     -13.408   7.750  70.334  1.00  0.00     0.000 HD 
BRANCH   7  10
HETATM   10  C   UNL     1     -11.669   8.947  71.766  1.00  0.00    -0.362 C  
HETATM   11  H   UNL     1     -12.973   9.571  73.129  1.00  0.00     0.000 HD 
HETATM   12  O   UNL     1     -12.868   8.832  72.541  1.00  0.00    -0.399 OA 
BRANCH  10  13
HETATM   13  C   UNL     1     -11.667  10.296  71.026  1.00  0.00    -0.370 C  
HETATM   14  H   UNL     1     -12.994  11.674  70.573  1.00  0.00     0.000 HD 
HETATM   15  O   UNL     1     -12.995  10.841  71.029  1.00  0.00    -0.360 OA 
BRANCH  13  16
HETATM   16  C   UNL     1     -11.160  10.156  69.575  1.00  0.00    -0.250 C  
HETATM   17  O   UNL     1     -12.085  10.709  68.638  1.00  0.00    -0.777 OA 
HETATM   18  H   UNL     1     -11.773  10.624  67.745  1.00  0.00     0.000 HD 
ENDBRANCH  13  16
ENDBRANCH  10  13
ENDBRANCH   7  10
ENDBRANCH   4   7
ENDBRANCH   2   4
TORSDOF 5
ENDMDL
MODEL       95
REMARK 921   NORMALIZED FREE ENERGY PREDICTED BY IDOCK:   -3.70 KCAL/MOL
REMARK 922        TOTAL FREE ENERGY PREDICTED BY IDOCK:   -5.09 KCAL/MOL
REMARK 923 INTER-LIGAND FREE ENERGY PREDICTED BY IDOCK:   -4.33 KCAL/MOL
REMARK 924 INTRA-LIGAND FREE ENERGY PREDICTED BY IDOCK:   -0.76 KCAL/MOL
REMARK 927      BINDING AFFINITY PREDICTED BY RF-SCORE:    0.00 PKD
ROOT
HETATM    1  O   UNL     1     -11.338   9.389  68.476  1.00  0.00    -0.471 OA 
HETATM    2  C   UNL     1     -11.259  10.004  69.765  1.00  0.00    -0.258 C  
HETATM    3  H   UNL     1     -10.793   8.611  68.482  1.00  0.00     0.000 HD 
ENDROOT
BRANCH   2   4
HETATM    4  C   UNL     1     -12.138  11.258  69.755  1.00  0.00    -0.325 C  
HETATM    5  H   UNL     1     -13.125  12.301  71.092  1.00  0.00     0.000 HD 
HETATM    6  O   UNL     1     -12.580  11.523  71.098  1.00  0.00    -0.389 OA 
BRANCH   4   7
HETATM    7  C   UNL     1     -11.434  12.503  69.167  1.00  0.00    -0.305 C  
HETATM    8  O   UNL     1     -10.033  12.215  68.994  1.00  0.00    -0.415 OA 
HETATM    9  H   UNL     1      -9.600  12.980  68.633  1.00  0.00     0.000 HD 
BRANCH   7  10
HETATM   10  C   UNL     1     -12.011  12.956  67.802  1.00  0.00    -0.283 C  
HETATM   11  H   UNL     1     -12.199  12.220  65.966  1.00  0.00     0.000 HD 
HETATM   12  O   UNL     1     -11.845  11.943  66.803  1.00  0.00    -0.598 OA 
BRANCH  10  13
HETATM   13  C   UNL     1     -11.390  14.272  67.303  1.00  0.00    -0.334 C  
HETATM   14  H   UNL     1      -9.652  14.845  66.585  1.00  0.00     0.000 HD 
HETATM   15  O   UNL     1     -10.035  14.032  66.893  1.00  0.00    -0.251 OA 
BRANCH  13  16
HETATM   16  C   UNL     1     -11.426  15.371  68.385  1.00  0.00    -0.355 C  
HETATM   17  O   UNL     1     -11.026  16.639  67.863  1.00  0.00    -0.342 OA 
HETATM   18  H   UNL     1     -11.048  17.316  68.528  1.00  0.00     0.000 HD 
ENDBRANCH  13  16
ENDBRANCH  10  13
ENDBRANCH   7  10
ENDBRANCH   4   7
ENDBRANCH   2   4
TORSDOF 5
ENDMDL
MODEL       96
REMARK 921   NORMALIZED FREE ENERGY PREDICTED BY IDOCK:   -3.69 KCAL/MOL
REMARK 922        TOTAL FREE ENERGY PREDICTED BY IDOCK:   -5.09 KCAL/MOL
REMARK 923 INTER-LIGAND FREE ENERGY PREDICTED BY IDOCK:   -4.72 KCAL/MOL
REMARK 924 INTRA-LIGAND FREE ENERGY PREDICTED BY IDOCK:   -0.37 KCAL/MOL
REMARK 927      BINDING AFFINITY PREDICTED BY RF-SCORE:    0.00 PKD
ROOT
HETATM    1  O   UNL     1      -9.181  11.156  69.248  1.00  0.00    -0.397 OA 
HETATM    2  C   UNL     1      -8.410  11.691  68.169  1.00  0.00    -0.154 C  
HETATM    3  H   UNL     1      -8.689  10.445  69.643  1.00  0.00     0.000 HD 
ENDROOT
BRANCH   2   4
HETATM    4  C   UNL     1      -9.203  12.837  67.533  1.00  0.00    -0.191 C  
HETATM    5  H   UNL     1      -8.773  14.567  66.715  1.00  0.00     0.000 HD 
HETATM    6  O   UNL     1      -8.281  13.856  67.110  1.00  0.00    -0.171 OA 
BRANCH   4   7
HETATM    7  C   UNL     1     -10.092  12.392  66.349  1.00  0.00    -0.236 C  
HETATM    8  O   UNL     1     -10.468  11.013  66.533  1.00  0.00    -0.241 OA 
HETATM    9  H   UNL     1     -11.014  10.740  65.805  1.00  0.00     0.000 HD 
BRANCH   7  10
HETATM   10  C   UNL     1     -11.384  13.234  66.192  1.00  0.00    -0.309 C  
HETATM   11  H   UNL     1     -13.216  12.997  65.460  1.00  0.00     0.000 HD 
HETATM   12  O   UNL     1     -12.424  12.481  65.556  1.00  0.00    -0.646 OA 
BRANCH  10  13
HETATM   13  C   UNL     1     -11.149  14.540  65.413  1.00  0.00    -0.345 C  
HETATM   14  H   UNL     1     -10.945  16.445  65.855  1.00  0.00     0.000 HD 
HETATM   15  O   UNL     1     -11.090  15.639  66.336  1.00  0.00    -0.254 OA 
BRANCH  13  16
HETATM   16  C   UNL     1     -12.253  14.791  64.365  1.00  0.00    -0.428 C  
HETATM   17  O   UNL     1     -12.027  16.001  63.641  1.00  0.00    -1.344 OA 
HETATM   18  H   UNL     1     -12.706  16.156  62.996  1.00  0.00     0.000 HD 
ENDBRANCH  13  16
ENDBRANCH  10  13
ENDBRANCH   7  10
ENDBRANCH   4   7
ENDBRANCH   2   4
TORSDOF 5
ENDMDL
MODEL       97
REMARK 921   NORMALIZED FREE ENERGY PREDICTED BY IDOCK:   -3.68 KCAL/MOL
REMARK 922        TOTAL FREE ENERGY PREDICTED BY IDOCK:   -5.07 KCAL/MOL
REMARK 923 INTER-LIGAND FREE ENERGY PREDICTED BY IDOCK:   -4.67 KCAL/MOL
REMARK 924 INTRA-LIGAND FREE ENERGY PREDICTED BY IDOCK:   -0.40 KCAL/MOL
REMARK 927      BINDING AFFINITY PREDICTED BY RF-SCORE:    0.00 PKD
ROOT
HETATM    1  O   UNL     1      -9.245   9.879  66.737  1.00  0.00    -0.144 OA 
HETATM    2  C   UNL     1      -9.942   9.751  65.495  1.00  0.00    -0.259 C  
HETATM    3  H   UNL     1      -9.676   9.327  67.379  1.00  0.00     0.000 HD 
ENDROOT
BRANCH   2   4
HETATM    4  C   UNL     1      -9.247  10.641  64.460  1.00  0.00    -0.231 C  
HETATM    5  H   UNL     1      -8.130  10.352  62.873  1.00  0.00     0.000 HD 
HETATM    6  O   UNL     1      -8.561   9.800  63.515  1.00  0.00    -0.167 OA 
BRANCH   4   7
HETATM    7  C   UNL     1     -10.209  11.602  63.723  1.00  0.00    -0.389 C  
HETATM    8  O   UNL     1     -10.939  10.863  62.725  1.00  0.00    -0.715 OA 
HETATM    9  H   UNL     1     -11.530  11.453  62.271  1.00  0.00     0.000 HD 
BRANCH   7  10
HETATM   10  C   UNL     1     -11.229  12.297  64.659  1.00  0.00    -0.315 C  
HETATM   11  H   UNL     1     -13.189  12.620  64.722  1.00  0.00     0.000 HD 
HETATM   12  O   UNL     1     -12.563  12.193  64.148  1.00  0.00    -0.468 OA 
BRANCH  10  13
HETATM   13  C   UNL     1     -10.891  13.778  64.907  1.00  0.00    -0.391 C  
HETATM   14  H   UNL     1     -10.024  14.824  66.328  1.00  0.00     0.000 HD 
HETATM   15  O   UNL     1     -10.233  13.909  66.176  1.00  0.00    -0.285 OA 
BRANCH  13  16
HETATM   16  C   UNL     1     -12.151  14.668  64.874  1.00  0.00    -0.382 C  
HETATM   17  O   UNL     1     -12.596  14.903  63.537  1.00  0.00    -0.920 OA 
HETATM   18  H   UNL     1     -13.371  15.451  63.516  1.00  0.00     0.000 HD 
ENDBRANCH  13  16
ENDBRANCH  10  13
ENDBRANCH   7  10
ENDBRANCH   4   7
ENDBRANCH   2   4
TORSDOF 5
ENDMDL
MODEL       98
REMARK 921   NORMALIZED FREE ENERGY PREDICTED BY IDOCK:   -3.66 KCAL/MOL
REMARK 922        TOTAL FREE ENERGY PREDICTED BY IDOCK:   -5.04 KCAL/MOL
REMARK 923 INTER-LIGAND FREE ENERGY PREDICTED BY IDOCK:   -3.96 KCAL/MOL
REMARK 924 INTRA-LIGAND FREE ENERGY PREDICTED BY IDOCK:   -1.07 KCAL/MOL
REMARK 927      BINDING AFFINITY PREDICTED BY RF-SCORE:    0.00 PKD
ROOT
HETATM    1  O   UNL     1     -11.200   7.559  69.060  1.00  0.00    -0.427 OA 
HETATM    2  C   UNL     1     -10.976   6.962  70.340  1.00  0.00    -0.274 C  
HETATM    3  H   UNL     1     -10.460   7.353  68.501  1.00  0.00     0.000 HD 
ENDROOT
BRANCH   2   4
HETATM    4  C   UNL     1     -12.170   7.294  71.240  1.00  0.00    -0.354 C  
HETATM    5  H   UNL     1     -13.190   6.362  72.633  1.00  0.00     0.000 HD 
HETATM    6  O   UNL     1     -12.449   6.155  72.074  1.00  0.00    -0.250 OA 
BRANCH   4   7
HETATM    7  C   UNL     1     -11.958   8.556  72.109  1.00  0.00    -0.383 C  
HETATM    8  O   UNL     1     -10.730   9.198  71.715  1.00  0.00    -0.355 OA 
HETATM    9  H   UNL     1     -10.599   9.973  72.249  1.00  0.00     0.000 HD 
BRANCH   7  10
HETATM   10  C   UNL     1     -13.108   9.588  71.995  1.00  0.00    -0.438 C  
HETATM   11  H   UNL     1     -14.853   9.751  71.059  1.00  0.00     0.000 HD 
HETATM   12  O   UNL     1     -14.148   9.118  71.129  1.00  0.00    -0.219 OA 
BRANCH  10  13
HETATM   13  C   UNL     1     -12.622  10.965  71.509  1.00  0.00    -0.375 C  
HETATM   14  H   UNL     1     -12.937  12.842  72.000  1.00  0.00     0.000 HD 
HETATM   15  O   UNL     1     -13.237  11.992  72.301  1.00  0.00    -0.455 OA 
BRANCH  13  16
HETATM   16  C   UNL     1     -12.937  11.191  70.016  1.00  0.00     0.189 C  
HETATM   17  O   UNL     1     -12.257  10.250  69.184  1.00  0.00    -0.621 OA 
HETATM   18  H   UNL     1     -12.451  10.389  68.265  1.00  0.00     0.000 HD 
ENDBRANCH  13  16
ENDBRANCH  10  13
ENDBRANCH   7  10
ENDBRANCH   4   7
ENDBRANCH   2   4
TORSDOF 5
ENDMDL
MODEL       99
REMARK 921   NORMALIZED FREE ENERGY PREDICTED BY IDOCK:   -3.66 KCAL/MOL
REMARK 922        TOTAL FREE ENERGY PREDICTED BY IDOCK:   -5.03 KCAL/MOL
REMARK 923 INTER-LIGAND FREE ENERGY PREDICTED BY IDOCK:   -4.18 KCAL/MOL
REMARK 924 INTRA-LIGAND FREE ENERGY PREDICTED BY IDOCK:   -0.86 KCAL/MOL
REMARK 927      BINDING AFFINITY PREDICTED BY RF-SCORE:    0.00 PKD
ROOT
HETATM    1  O   UNL     1     -13.961   9.042  70.851  1.00  0.00    -0.587 OA 
HETATM    2  C   UNL     1     -14.110   7.845  71.620  1.00  0.00    -0.434 C  
HETATM    3  H   UNL     1     -14.803   9.481  70.815  1.00  0.00     0.000 HD 
ENDROOT
BRANCH   2   4
HETATM    4  C   UNL     1     -12.753   7.138  71.678  1.00  0.00    -0.379 C  
HETATM    5  H   UNL     1     -11.563   6.260  70.389  1.00  0.00     0.000 HD 
HETATM    6  O   UNL     1     -12.405   6.698  70.353  1.00  0.00    -0.274 OA 
BRANCH   4   7
HETATM    7  C   UNL     1     -11.623   8.014  72.267  1.00  0.00    -0.366 C  
HETATM    8  O   UNL     1     -11.140   7.407  73.481  1.00  0.00    -0.558 OA 
HETATM    9  H   UNL     1     -10.446   7.945  73.843  1.00  0.00     0.000 HD 
BRANCH   7  10
HETATM   10  C   UNL     1     -10.422   8.205  71.306  1.00  0.00    -0.209 C  
HETATM   11  H   UNL     1      -8.445   8.006  71.361  1.00  0.00     0.000 HD 
HETATM   12  O   UNL     1      -9.182   7.889  71.950  1.00  0.00    -0.138 OA 
BRANCH  10  13
HETATM   13  C   UNL     1     -10.349   9.628  70.726  1.00  0.00    -0.286 C  
HETATM   14  H   UNL     1     -11.470  11.242  70.764  1.00  0.00     0.000 HD 
HETATM   15  O   UNL     1     -11.516  10.364  71.122  1.00  0.00    -0.311 OA 
BRANCH  13  16
HETATM   16  C   UNL     1     -10.232   9.617  69.187  1.00  0.00    -0.202 C  
HETATM   17  O   UNL     1     -11.128   8.675  68.597  1.00  0.00    -0.433 OA 
HETATM   18  H   UNL     1     -11.057   8.668  67.650  1.00  0.00     0.000 HD 
ENDBRANCH  13  16
ENDBRANCH  10  13
ENDBRANCH   7  10
ENDBRANCH   4   7
ENDBRANCH   2   4
TORSDOF 5
ENDMDL
MODEL      100
REMARK 921   NORMALIZED FREE ENERGY PREDICTED BY IDOCK:   -3.63 KCAL/MOL
REMARK 922        TOTAL FREE ENERGY PREDICTED BY IDOCK:   -5.00 KCAL/MOL
REMARK 923 INTER-LIGAND FREE ENERGY PREDICTED BY IDOCK:   -4.38 KCAL/MOL
REMARK 924 INTRA-LIGAND FREE ENERGY PREDICTED BY IDOCK:   -0.62 KCAL/MOL
REMARK 927      BINDING AFFINITY PREDICTED BY RF-SCORE:    0.00 PKD
ROOT
HETATM    1  O   UNL     1     -12.179  10.524  68.711  1.00  0.00    -0.779 OA 
HETATM    2  C   UNL     1     -10.958  10.432  67.972  1.00  0.00    -0.291 C  
HETATM    3  H   UNL     1     -12.526   9.647  68.824  1.00  0.00     0.000 HD 
ENDROOT
BRANCH   2   4
HETATM    4  C   UNL     1     -10.399  11.846  67.788  1.00  0.00    -0.198 C  
HETATM    5  H   UNL     1      -8.617  12.646  67.605  1.00  0.00     0.000 HD 
HETATM    6  O   UNL     1      -8.964  11.769  67.719  1.00  0.00    -0.161 OA 
BRANCH   4   7
HETATM    7  C   UNL     1     -10.957  12.576  66.545  1.00  0.00    -0.266 C  
HETATM    8  O   UNL     1     -12.064  11.822  66.013  1.00  0.00    -0.399 OA 
HETATM    9  H   UNL     1     -12.407  12.271  65.249  1.00  0.00     0.000 HD 
BRANCH   7  10
HETATM   10  C   UNL     1     -11.445  14.018  66.839  1.00  0.00    -0.356 C  
HETATM   11  H   UNL     1     -12.864  15.252  66.198  1.00  0.00     0.000 HD 
HETATM   12  O   UNL     1     -12.565  14.368  66.018  1.00  0.00    -0.382 OA 
BRANCH  10  13
HETATM   13  C   UNL     1     -10.333  15.066  66.661  1.00  0.00    -0.278 C  
HETATM   14  H   UNL     1      -9.319  16.280  67.829  1.00  0.00     0.000 HD 
HETATM   15  O   UNL     1     -10.005  15.633  67.939  1.00  0.00    -0.221 OA 
BRANCH  13  16
HETATM   16  C   UNL     1     -10.749  16.184  65.682  1.00  0.00    -0.310 C  
HETATM   17  O   UNL     1     -10.713  15.737  64.325  1.00  0.00    -0.737 OA 
HETATM   18  H   UNL     1     -10.969  16.424  63.722  1.00  0.00     0.000 HD 
ENDBRANCH  13  16
ENDBRANCH  10  13
ENDBRANCH   7  10
ENDBRANCH   4   7
ENDBRANCH   2   4
TORSDOF 5
ENDMDL
MODEL      101
REMARK 921   NORMALIZED FREE ENERGY PREDICTED BY IDOCK:   -3.62 KCAL/MOL
REMARK 922        TOTAL FREE ENERGY PREDICTED BY IDOCK:   -4.99 KCAL/MOL
REMARK 923 INTER-LIGAND FREE ENERGY PREDICTED BY IDOCK:   -4.51 KCAL/MOL
REMARK 924 INTRA-LIGAND FREE ENERGY PREDICTED BY IDOCK:   -0.48 KCAL/MOL
REMARK 927      BINDING AFFINITY PREDICTED BY RF-SCORE:    0.00 PKD
ROOT
HETATM    1  O   UNL     1      -6.470  18.316  67.924  1.00  0.00    -0.190 OA 
HETATM    2  C   UNL     1      -6.798  19.648  67.519  1.00  0.00    -0.220 C  
HETATM    3  H   UNL     1      -5.886  18.366  68.672  1.00  0.00     0.000 HD 
ENDROOT
BRANCH   2   4
HETATM    4  C   UNL     1      -7.739  19.567  66.314  1.00  0.00    -0.308 C  
HETATM    5  H   UNL     1      -7.931  18.399  64.749  1.00  0.00     0.000 HD 
HETATM    6  O   UNL     1      -7.347  18.450  65.497  1.00  0.00    -0.534 OA 
BRANCH   4   7
HETATM    7  C   UNL     1      -9.232  19.450  66.702  1.00  0.00    -0.342 C  
HETATM    8  O   UNL     1      -9.989  20.424  65.959  1.00  0.00    -0.603 OA 
HETATM    9  H   UNL     1     -10.906  20.353  66.197  1.00  0.00     0.000 HD 
BRANCH   7  10
HETATM   10  C   UNL     1      -9.836  18.049  66.427  1.00  0.00    -0.340 C  
HETATM   11  H   UNL     1     -11.091  17.215  65.131  1.00  0.00     0.000 HD 
HETATM   12  O   UNL     1     -10.720  18.073  65.300  1.00  0.00    -0.625 OA 
BRANCH  10  13
HETATM   13  C   UNL     1     -10.579  17.475  67.646  1.00  0.00    -0.355 C  
HETATM   14  H   UNL     1     -10.378  17.548  69.601  1.00  0.00     0.000 HD 
HETATM   15  O   UNL     1      -9.920  17.902  68.848  1.00  0.00    -0.359 OA 
BRANCH  13  16
HETATM   16  C   UNL     1     -10.648  15.934  67.604  1.00  0.00    -0.307 C  
HETATM   17  O   UNL     1     -11.006  15.458  66.305  1.00  0.00    -0.324 OA 
HETATM   18  H   UNL     1     -11.049  14.509  66.279  1.00  0.00     0.000 HD 
ENDBRANCH  13  16
ENDBRANCH  10  13
ENDBRANCH   7  10
ENDBRANCH   4   7
ENDBRANCH   2   4
TORSDOF 5
ENDMDL
MODEL      102
REMARK 921   NORMALIZED FREE ENERGY PREDICTED BY IDOCK:   -3.61 KCAL/MOL
REMARK 922        TOTAL FREE ENERGY PREDICTED BY IDOCK:   -4.98 KCAL/MOL
REMARK 923 INTER-LIGAND FREE ENERGY PREDICTED BY IDOCK:   -4.33 KCAL/MOL
REMARK 924 INTRA-LIGAND FREE ENERGY PREDICTED BY IDOCK:   -0.65 KCAL/MOL
REMARK 927      BINDING AFFINITY PREDICTED BY RF-SCORE:    0.00 PKD
ROOT
HETATM    1  O   UNL     1      -8.833  14.085  68.802  1.00  0.00    -0.319 OA 
HETATM    2  C   UNL     1      -9.498  13.693  67.598  1.00  0.00    -0.221 C  
HETATM    3  H   UNL     1      -7.916  13.847  68.727  1.00  0.00     0.000 HD 
ENDROOT
BRANCH   2   4
HETATM    4  C   UNL     1     -10.976  14.077  67.719  1.00  0.00    -0.258 C  
HETATM    5  H   UNL     1     -12.567  13.940  66.579  1.00  0.00     0.000 HD 
HETATM    6  O   UNL     1     -11.650  13.702  66.504  1.00  0.00    -0.335 OA 
BRANCH   4   7
HETATM    7  C   UNL     1     -11.682  13.445  68.941  1.00  0.00    -0.328 C  
HETATM    8  O   UNL     1     -10.760  12.567  69.616  1.00  0.00    -0.415 OA 
HETATM    9  H   UNL     1     -11.193  12.179  70.367  1.00  0.00     0.000 HD 
BRANCH   7  10
HETATM   10  C   UNL     1     -12.202  14.486  69.963  1.00  0.00    -0.342 C  
HETATM   11  H   UNL     1     -11.516  16.096  70.906  1.00  0.00     0.000 HD 
HETATM   12  O   UNL     1     -11.197  15.457  70.279  1.00  0.00    -0.259 OA 
BRANCH  10  13
HETATM   13  C   UNL     1     -12.711  13.838  71.262  1.00  0.00    -0.371 C  
HETATM   14  H   UNL     1     -13.328  12.056  71.819  1.00  0.00     0.000 HD 
HETATM   15  O   UNL     1     -13.014  12.456  71.017  1.00  0.00    -0.207 OA 
BRANCH  13  16
HETATM   16  C   UNL     1     -13.958  14.559  71.815  1.00  0.00    -0.473 C  
HETATM   17  O   UNL     1     -14.392  15.604  70.944  1.00  0.00    -0.801 OA 
HETATM   18  H   UNL     1     -15.160  16.048  71.283  1.00  0.00     0.000 HD 
ENDBRANCH  13  16
ENDBRANCH  10  13
ENDBRANCH   7  10
ENDBRANCH   4   7
ENDBRANCH   2   4
TORSDOF 5
ENDMDL
MODEL      103
REMARK 921   NORMALIZED FREE ENERGY PREDICTED BY IDOCK:   -3.59 KCAL/MOL
REMARK 922        TOTAL FREE ENERGY PREDICTED BY IDOCK:   -4.95 KCAL/MOL
REMARK 923 INTER-LIGAND FREE ENERGY PREDICTED BY IDOCK:   -4.50 KCAL/MOL
REMARK 924 INTRA-LIGAND FREE ENERGY PREDICTED BY IDOCK:   -0.45 KCAL/MOL
REMARK 927      BINDING AFFINITY PREDICTED BY RF-SCORE:    0.00 PKD
ROOT
HETATM    1  O   UNL     1     -11.715  13.464  70.216  1.00  0.00    -0.490 OA 
HETATM    2  C   UNL     1     -11.854  13.968  68.884  1.00  0.00    -0.355 C  
HETATM    3  H   UNL     1     -11.792  12.517  70.186  1.00  0.00     0.000 HD 
ENDROOT
BRANCH   2   4
HETATM    4  C   UNL     1     -11.730  15.493  68.932  1.00  0.00    -0.370 C  
HETATM    5  H   UNL     1     -10.745  16.796  70.019  1.00  0.00     0.000 HD 
HETATM    6  O   UNL     1     -10.823  15.849  69.990  1.00  0.00    -0.298 OA 
BRANCH   4   7
HETATM    7  C   UNL     1     -11.268  16.119  67.596  1.00  0.00    -0.147 C  
HETATM    8  O   UNL     1     -10.712  17.423  67.853  1.00  0.00    -0.383 OA 
HETATM    9  H   UNL     1     -10.428  17.808  67.032  1.00  0.00     0.000 HD 
BRANCH   7  10
HETATM   10  C   UNL     1     -10.205  15.274  66.849  1.00  0.00    -0.268 C  
HETATM   11  H   UNL     1      -8.225  15.203  66.690  1.00  0.00     0.000 HD 
HETATM   12  O   UNL     1      -8.877  15.721  67.148  1.00  0.00    -0.185 OA 
BRANCH  10  13
HETATM   13  C   UNL     1     -10.413  15.273  65.325  1.00  0.00    -0.411 C  
HETATM   14  H   UNL     1     -11.133  16.519  63.984  1.00  0.00     0.000 HD 
HETATM   15  O   UNL     1     -11.005  16.519  64.925  1.00  0.00    -0.624 OA 
BRANCH  13  16
HETATM   16  C   UNL     1     -11.301  14.098  64.866  1.00  0.00    -0.365 C  
HETATM   17  O   UNL     1     -12.635  14.524  64.584  1.00  0.00    -0.607 OA 
HETATM   18  H   UNL     1     -13.182  13.801  64.301  1.00  0.00     0.000 HD 
ENDBRANCH  13  16
ENDBRANCH  10  13
ENDBRANCH   7  10
ENDBRANCH   4   7
ENDBRANCH   2   4
TORSDOF 5
ENDMDL
MODEL      104
REMARK 921   NORMALIZED FREE ENERGY PREDICTED BY IDOCK:   -3.56 KCAL/MOL
REMARK 922        TOTAL FREE ENERGY PREDICTED BY IDOCK:   -4.91 KCAL/MOL
REMARK 923 INTER-LIGAND FREE ENERGY PREDICTED BY IDOCK:   -4.60 KCAL/MOL
REMARK 924 INTRA-LIGAND FREE ENERGY PREDICTED BY IDOCK:   -0.31 KCAL/MOL
REMARK 927      BINDING AFFINITY PREDICTED BY RF-SCORE:    0.00 PKD
ROOT
HETATM    1  O   UNL     1     -12.620  10.477  69.305  1.00  0.00    -0.726 OA 
HETATM    2  C   UNL     1     -11.667  10.540  70.369  1.00  0.00    -0.344 C  
HETATM    3  H   UNL     1     -12.256  10.929  68.552  1.00  0.00     0.000 HD 
ENDROOT
BRANCH   2   4
HETATM    4  C   UNL     1     -12.253   9.812  71.583  1.00  0.00    -0.404 C  
HETATM    5  H   UNL     1     -14.049   9.323  72.203  1.00  0.00     0.000 HD 
HETATM    6  O   UNL     1     -13.685   9.775  71.451  1.00  0.00    -0.299 OA 
BRANCH   4   7
HETATM    7  C   UNL     1     -11.696   8.382  71.777  1.00  0.00    -0.310 C  
HETATM    8  O   UNL     1     -11.864   7.993  73.153  1.00  0.00    -0.625 OA 
HETATM    9  H   UNL     1     -11.522   7.115  73.273  1.00  0.00     0.000 HD 
BRANCH   7  10
HETATM   10  C   UNL     1     -12.384   7.321  70.881  1.00  0.00    -0.248 C  
HETATM   11  H   UNL     1     -13.923   6.069  70.999  1.00  0.00     0.000 HD 
HETATM   12  O   UNL     1     -13.500   6.720  71.548  1.00  0.00    -0.250 OA 
BRANCH  10  13
HETATM   13  C   UNL     1     -11.415   6.221  70.414  1.00  0.00    -0.344 C  
HETATM   14  H   UNL     1      -9.844   5.299  71.153  1.00  0.00     0.000 HD 
HETATM   15  O   UNL     1     -10.442   5.978  71.442  1.00  0.00    -0.215 OA 
BRANCH  13  16
HETATM   16  C   UNL     1     -10.706   6.601  69.098  1.00  0.00    -0.264 C  
HETATM   17  O   UNL     1     -11.629   6.705  68.013  1.00  0.00    -0.574 OA 
HETATM   18  H   UNL     1     -11.193   6.939  67.202  1.00  0.00     0.000 HD 
ENDBRANCH  13  16
ENDBRANCH  10  13
ENDBRANCH   7  10
ENDBRANCH   4   7
ENDBRANCH   2   4
TORSDOF 5
ENDMDL
MODEL      105
REMARK 921   NORMALIZED FREE ENERGY PREDICTED BY IDOCK:   -3.55 KCAL/MOL
REMARK 922        TOTAL FREE ENERGY PREDICTED BY IDOCK:   -4.90 KCAL/MOL
REMARK 923 INTER-LIGAND FREE ENERGY PREDICTED BY IDOCK:   -3.83 KCAL/MOL
REMARK 924 INTRA-LIGAND FREE ENERGY PREDICTED BY IDOCK:   -1.07 KCAL/MOL
REMARK 927      BINDING AFFINITY PREDICTED BY RF-SCORE:    0.00 PKD
ROOT
HETATM    1  O   UNL     1     -10.215  19.566  68.779  1.00  0.00    -0.494 OA 
HETATM    2  C   UNL     1      -9.180  19.689  67.799  1.00  0.00    -0.332 C  
HETATM    3  H   UNL     1     -10.234  20.363  69.295  1.00  0.00     0.000 HD 
ENDROOT
BRANCH   2   4
HETATM    4  C   UNL     1      -9.149  18.403  66.968  1.00  0.00    -0.274 C  
HETATM    5  H   UNL     1      -8.486  17.883  65.197  1.00  0.00     0.000 HD 
HETATM    6  O   UNL     1      -8.506  18.681  65.712  1.00  0.00    -0.446 OA 
BRANCH   4   7
HETATM    7  C   UNL     1      -8.448  17.222  67.680  1.00  0.00    -0.209 C  
HETATM    8  O   UNL     1      -8.150  17.601  69.038  1.00  0.00    -0.199 OA 
HETATM    9  H   UNL     1      -7.719  16.876  69.475  1.00  0.00     0.000 HD 
BRANCH   7  10
HETATM   10  C   UNL     1      -9.296  15.925  67.710  1.00  0.00    -0.207 C  
HETATM   11  H   UNL     1      -9.903  14.533  66.429  1.00  0.00     0.000 HD 
HETATM   12  O   UNL     1      -9.384  15.328  66.411  1.00  0.00    -0.253 OA 
BRANCH  10  13
HETATM   13  C   UNL     1     -10.713  16.156  68.263  1.00  0.00    -0.307 C  
HETATM   14  H   UNL     1     -11.499  16.757  69.962  1.00  0.00     0.000 HD 
HETATM   15  O   UNL     1     -10.624  16.614  69.621  1.00  0.00    -0.316 OA 
BRANCH  13  16
HETATM   16  C   UNL     1     -11.572  14.876  68.196  1.00  0.00    -0.334 C  
HETATM   17  O   UNL     1     -12.175  14.713  66.911  1.00  0.00    -0.459 OA 
HETATM   18  H   UNL     1     -12.704  13.925  66.869  1.00  0.00     0.000 HD 
ENDBRANCH  13  16
ENDBRANCH  10  13
ENDBRANCH   7  10
ENDBRANCH   4   7
ENDBRANCH   2   4
TORSDOF 5
ENDMDL
MODEL      106
REMARK 921   NORMALIZED FREE ENERGY PREDICTED BY IDOCK:   -3.55 KCAL/MOL
REMARK 922        TOTAL FREE ENERGY PREDICTED BY IDOCK:   -4.90 KCAL/MOL
REMARK 923 INTER-LIGAND FREE ENERGY PREDICTED BY IDOCK:   -4.54 KCAL/MOL
REMARK 924 INTRA-LIGAND FREE ENERGY PREDICTED BY IDOCK:   -0.36 KCAL/MOL
REMARK 927      BINDING AFFINITY PREDICTED BY RF-SCORE:    0.00 PKD
ROOT
HETATM    1  O   UNL     1      -8.222  19.995  67.129  1.00  0.00    -0.298 OA 
HETATM    2  C   UNL     1      -8.148  18.690  66.548  1.00  0.00    -0.284 C  
HETATM    3  H   UNL     1      -7.663  20.577  66.628  1.00  0.00     0.000 HD 
ENDROOT
BRANCH   2   4
HETATM    4  C   UNL     1      -9.049  17.752  67.357  1.00  0.00    -0.244 C  
HETATM    5  H   UNL     1      -9.808  17.736  69.166  1.00  0.00     0.000 HD 
HETATM    6  O   UNL     1      -9.248  18.318  68.664  1.00  0.00    -0.313 OA 
BRANCH   4   7
HETATM    7  C   UNL     1     -10.411  17.467  66.682  1.00  0.00    -0.306 C  
HETATM    8  O   UNL     1     -10.993  18.712  66.252  1.00  0.00    -0.127 OA 
HETATM    9  H   UNL     1     -11.830  18.537  65.837  1.00  0.00     0.000 HD 
BRANCH   7  10
HETATM   10  C   UNL     1     -10.310  16.524  65.456  1.00  0.00    -0.284 C  
HETATM   11  H   UNL     1     -11.192  16.309  63.688  1.00  0.00     0.000 HD 
HETATM   12  O   UNL     1     -11.253  16.886  64.440  1.00  0.00    -1.159 OA 
BRANCH  10  13
HETATM   13  C   UNL     1     -10.503  15.044  65.829  1.00  0.00    -0.337 C  
HETATM   14  H   UNL     1     -10.759  13.352  64.860  1.00  0.00     0.000 HD 
HETATM   15  O   UNL     1     -10.640  14.266  64.630  1.00  0.00    -0.421 OA 
BRANCH  13  16
HETATM   16  C   UNL     1     -11.735  14.836  66.734  1.00  0.00    -0.298 C  
HETATM   17  O   UNL     1     -12.778  14.136  66.054  1.00  0.00    -0.469 OA 
HETATM   18  H   UNL     1     -13.536  14.007  66.611  1.00  0.00     0.000 HD 
ENDBRANCH  13  16
ENDBRANCH  10  13
ENDBRANCH   7  10
ENDBRANCH   4   7
ENDBRANCH   2   4
TORSDOF 5
ENDMDL
MODEL      107
REMARK 921   NORMALIZED FREE ENERGY PREDICTED BY IDOCK:   -3.54 KCAL/MOL
REMARK 922        TOTAL FREE ENERGY PREDICTED BY IDOCK:   -4.89 KCAL/MOL
REMARK 923 INTER-LIGAND FREE ENERGY PREDICTED BY IDOCK:   -4.06 KCAL/MOL
REMARK 924 INTRA-LIGAND FREE ENERGY PREDICTED BY IDOCK:   -0.83 KCAL/MOL
REMARK 927      BINDING AFFINITY PREDICTED BY RF-SCORE:    0.00 PKD
ROOT
HETATM    1  O   UNL     1     -11.625   8.261  70.159  1.00  0.00    -0.469 OA 
HETATM    2  C   UNL     1     -10.889   9.432  70.524  1.00  0.00    -0.277 C  
HETATM    3  H   UNL     1     -12.041   7.915  70.940  1.00  0.00     0.000 HD 
ENDROOT
BRANCH   2   4
HETATM    4  C   UNL     1     -10.218   9.990  69.265  1.00  0.00    -0.214 C  
HETATM    5  H   UNL     1      -8.923   9.330  67.947  1.00  0.00     0.000 HD 
HETATM    6  O   UNL     1      -9.339   8.985  68.728  1.00  0.00    -0.139 OA 
BRANCH   4   7
HETATM    7  C   UNL     1     -11.220  10.459  68.185  1.00  0.00    -0.268 C  
HETATM    8  O   UNL     1     -12.536  10.539  68.766  1.00  0.00    -0.748 OA 
HETATM    9  H   UNL     1     -13.152  10.827  68.102  1.00  0.00     0.000 HD 
BRANCH   7  10
HETATM   10  C   UNL     1     -10.871  11.840  67.573  1.00  0.00    -0.239 C  
HETATM   11  H   UNL     1      -9.452  13.218  67.762  1.00  0.00     0.000 HD 
HETATM   12  O   UNL     1      -9.666  12.371  68.137  1.00  0.00    -0.204 OA 
BRANCH  10  13
HETATM   13  C   UNL     1     -12.007  12.864  67.738  1.00  0.00    -0.283 C  
HETATM   14  H   UNL     1     -12.949  14.145  66.582  1.00  0.00     0.000 HD 
HETATM   15  O   UNL     1     -12.248  13.513  66.480  1.00  0.00    -0.407 OA 
BRANCH  13  16
HETATM   16  C   UNL     1     -11.680  13.916  68.818  1.00  0.00    -0.357 C  
HETATM   17  O   UNL     1     -11.730  13.357  70.131  1.00  0.00    -0.451 OA 
HETATM   18  H   UNL     1     -11.529  14.005  70.796  1.00  0.00     0.000 HD 
ENDBRANCH  13  16
ENDBRANCH  10  13
ENDBRANCH   7  10
ENDBRANCH   4   7
ENDBRANCH   2   4
TORSDOF 5
ENDMDL
MODEL      108
REMARK 921   NORMALIZED FREE ENERGY PREDICTED BY IDOCK:   -3.54 KCAL/MOL
REMARK 922        TOTAL FREE ENERGY PREDICTED BY IDOCK:   -4.88 KCAL/MOL
REMARK 923 INTER-LIGAND FREE ENERGY PREDICTED BY IDOCK:   -4.27 KCAL/MOL
REMARK 924 INTRA-LIGAND FREE ENERGY PREDICTED BY IDOCK:   -0.61 KCAL/MOL
REMARK 927      BINDING AFFINITY PREDICTED BY RF-SCORE:    0.00 PKD
ROOT
HETATM    1  O   UNL     1     -11.591   6.583  67.040  1.00  0.00    -0.729 OA 
HETATM    2  C   UNL     1     -10.489   6.212  67.874  1.00  0.00    -0.229 C  
HETATM    3  H   UNL     1     -11.257   6.775  66.172  1.00  0.00     0.000 HD 
ENDROOT
BRANCH   2   4
HETATM    4  C   UNL     1     -11.028   5.903  69.274  1.00  0.00    -0.327 C  
HETATM    5  H   UNL     1     -10.579   4.649  70.714  1.00  0.00     0.000 HD 
HETATM    6  O   UNL     1     -10.245   4.841  69.845  1.00  0.00    -0.252 OA 
BRANCH   4   7
HETATM    7  C   UNL     1     -11.039   7.129  70.217  1.00  0.00    -0.274 C  
HETATM    8  O   UNL     1     -11.464   8.289  69.477  1.00  0.00    -0.401 OA 
HETATM    9  H   UNL     1     -11.471   9.042  70.057  1.00  0.00     0.000 HD 
BRANCH   7  10
HETATM   10  C   UNL     1     -11.975   6.960  71.441  1.00  0.00    -0.349 C  
HETATM   11  H   UNL     1     -13.885   7.276  71.889  1.00  0.00     0.000 HD 
HETATM   12  O   UNL     1     -13.311   7.379  71.139  1.00  0.00    -0.305 OA 
BRANCH  10  13
HETATM   13  C   UNL     1     -11.470   7.718  72.681  1.00  0.00    -0.375 C  
HETATM   14  H   UNL     1     -10.254   9.222  73.035  1.00  0.00     0.000 HD 
HETATM   15  O   UNL     1     -10.565   8.754  72.269  1.00  0.00    -0.337 OA 
BRANCH  13  16
HETATM   16  C   UNL     1     -10.771   6.778  73.685  1.00  0.00    -0.254 C  
HETATM   17  O   UNL     1     -11.241   5.434  73.564  1.00  0.00    -0.438 OA 
HETATM   18  H   UNL     1     -10.810   4.855  74.181  1.00  0.00     0.000 HD 
ENDBRANCH  13  16
ENDBRANCH  10  13
ENDBRANCH   7  10
ENDBRANCH   4   7
ENDBRANCH   2   4
TORSDOF 5
ENDMDL
MODEL      109
REMARK 921   NORMALIZED FREE ENERGY PREDICTED BY IDOCK:   -3.53 KCAL/MOL
REMARK 922        TOTAL FREE ENERGY PREDICTED BY IDOCK:   -4.87 KCAL/MOL
REMARK 923 INTER-LIGAND FREE ENERGY PREDICTED BY IDOCK:   -4.29 KCAL/MOL
REMARK 924 INTRA-LIGAND FREE ENERGY PREDICTED BY IDOCK:   -0.58 KCAL/MOL
REMARK 927      BINDING AFFINITY PREDICTED BY RF-SCORE:    0.00 PKD
ROOT
HETATM    1  O   UNL     1     -11.054   8.875  69.174  1.00  0.00    -0.429 OA 
HETATM    2  C   UNL     1     -10.452  10.093  68.725  1.00  0.00    -0.204 C  
HETATM    3  H   UNL     1     -10.372   8.219  69.259  1.00  0.00     0.000 HD 
ENDROOT
BRANCH   2   4
HETATM    4  C   UNL     1     -11.551  11.150  68.587  1.00  0.00    -0.315 C  
HETATM    5  H   UNL     1     -12.467  12.399  69.792  1.00  0.00     0.000 HD 
HETATM    6  O   UNL     1     -11.785  11.743  69.877  1.00  0.00    -0.310 OA 
BRANCH   4   7
HETATM    7  C   UNL     1     -11.230  12.246  67.544  1.00  0.00    -0.297 C  
HETATM    8  O   UNL     1      -9.826  12.560  67.609  1.00  0.00    -0.195 OA 
HETATM    9  H   UNL     1      -9.628  13.234  66.968  1.00  0.00     0.000 HD 
BRANCH   7  10
HETATM   10  C   UNL     1     -11.572  11.836  66.089  1.00  0.00    -0.142 C  
HETATM   11  H   UNL     1     -10.679  10.919  64.569  1.00  0.00     0.000 HD 
HETATM   12  O   UNL     1     -10.470  11.170  65.461  1.00  0.00    -0.262 OA 
BRANCH  10  13
HETATM   13  C   UNL     1     -12.006  13.031  65.224  1.00  0.00    -0.407 C  
HETATM   14  H   UNL     1     -13.491  13.441  64.001  1.00  0.00     0.000 HD 
HETATM   15  O   UNL     1     -13.222  12.702  64.535  1.00  0.00    -0.783 OA 
BRANCH  13  16
HETATM   16  C   UNL     1     -10.917  13.431  64.206  1.00  0.00    -0.369 C  
HETATM   17  O   UNL     1      -9.739  13.910  64.856  1.00  0.00    -0.581 OA 
HETATM   18  H   UNL     1      -9.068  14.155  64.230  1.00  0.00     0.000 HD 
ENDBRANCH  13  16
ENDBRANCH  10  13
ENDBRANCH   7  10
ENDBRANCH   4   7
ENDBRANCH   2   4
TORSDOF 5
ENDMDL
MODEL      110
REMARK 921   NORMALIZED FREE ENERGY PREDICTED BY IDOCK:   -3.52 KCAL/MOL
REMARK 922        TOTAL FREE ENERGY PREDICTED BY IDOCK:   -4.86 KCAL/MOL
REMARK 923 INTER-LIGAND FREE ENERGY PREDICTED BY IDOCK:   -4.25 KCAL/MOL
REMARK 924 INTRA-LIGAND FREE ENERGY PREDICTED BY IDOCK:   -0.62 KCAL/MOL
REMARK 927      BINDING AFFINITY PREDICTED BY RF-SCORE:    0.00 PKD
ROOT
HETATM    1  O   UNL     1     -11.930   7.562  70.418  1.00  0.00    -0.498 OA 
HETATM    2  C   UNL     1     -11.969   8.818  71.102  1.00  0.00    -0.285 C  
HETATM    3  H   UNL     1     -12.696   7.060  70.672  1.00  0.00     0.000 HD 
ENDROOT
BRANCH   2   4
HETATM    4  C   UNL     1     -10.735   9.627  70.693  1.00  0.00    -0.322 C  
HETATM    5  H   UNL     1      -8.816   9.269  70.491  1.00  0.00     0.000 HD 
HETATM    6  O   UNL     1      -9.582   8.767  70.746  1.00  0.00    -0.178 OA 
BRANCH   4   7
HETATM    7  C   UNL     1     -10.855  10.277  69.294  1.00  0.00    -0.238 C  
HETATM    8  O   UNL     1     -11.172   9.257  68.327  1.00  0.00    -0.486 OA 
HETATM    9  H   UNL     1     -11.246   9.657  67.468  1.00  0.00     0.000 HD 
BRANCH   7  10
HETATM   10  C   UNL     1     -11.940  11.380  69.215  1.00  0.00    -0.332 C  
HETATM   11  H   UNL     1     -12.732  12.571  67.835  1.00  0.00     0.000 HD 
HETATM   12  O   UNL     1     -12.066  11.894  67.884  1.00  0.00    -0.558 OA 
BRANCH  10  13
HETATM   13  C   UNL     1     -11.676  12.542  70.188  1.00  0.00    -0.175 C  
HETATM   14  H   UNL     1     -12.614  13.372  71.704  1.00  0.00     0.000 HD 
HETATM   15  O   UNL     1     -12.777  12.655  71.103  1.00  0.00    -0.358 OA 
BRANCH  13  16
HETATM   16  C   UNL     1     -11.469  13.878  69.446  1.00  0.00    -0.280 C  
HETATM   17  O   UNL     1     -12.712  14.527  69.172  1.00  0.00    -0.537 OA 
HETATM   18  H   UNL     1     -12.585  15.351  68.716  1.00  0.00     0.000 HD 
ENDBRANCH  13  16
ENDBRANCH  10  13
ENDBRANCH   7  10
ENDBRANCH   4   7
ENDBRANCH   2   4
TORSDOF 5
ENDMDL
MODEL      111
REMARK 921   NORMALIZED FREE ENERGY PREDICTED BY IDOCK:   -3.52 KCAL/MOL
REMARK 922        TOTAL FREE ENERGY PREDICTED BY IDOCK:   -4.86 KCAL/MOL
REMARK 923 INTER-LIGAND FREE ENERGY PREDICTED BY IDOCK:   -4.44 KCAL/MOL
REMARK 924 INTRA-LIGAND FREE ENERGY PREDICTED BY IDOCK:   -0.41 KCAL/MOL
REMARK 927      BINDING AFFINITY PREDICTED BY RF-SCORE:    0.00 PKD
ROOT
HETATM    1  O   UNL     1     -14.072   8.873  73.171  1.00  0.00    -1.125 OA 
HETATM    2  C   UNL     1     -13.251   9.601  72.254  1.00  0.00    -0.404 C  
HETATM    3  H   UNL     1     -14.837   9.400  73.370  1.00  0.00     0.000 HD 
ENDROOT
BRANCH   2   4
HETATM    4  C   UNL     1     -12.018   8.751  71.933  1.00  0.00    -0.365 C  
HETATM    5  H   UNL     1     -11.637   7.179  70.824  1.00  0.00     0.000 HD 
HETATM    6  O   UNL     1     -12.403   7.706  71.023  1.00  0.00    -0.290 OA 
BRANCH   4   7
HETATM    7  C   UNL     1     -10.840   9.565  71.349  1.00  0.00    -0.312 C  
HETATM    8  O   UNL     1      -9.613   9.124  71.962  1.00  0.00    -0.300 OA 
HETATM    9  H   UNL     1      -8.889   9.624  71.603  1.00  0.00     0.000 HD 
BRANCH   7  10
HETATM   10  C   UNL     1     -10.695   9.429  69.812  1.00  0.00    -0.234 C  
HETATM   11  H   UNL     1      -9.258   9.593  68.448  1.00  0.00     0.000 HD 
HETATM   12  O   UNL     1      -9.348   9.676  69.391  1.00  0.00    -0.169 OA 
BRANCH  10  13
HETATM   13  C   UNL     1     -11.649  10.359  69.043  1.00  0.00    -0.150 C  
HETATM   14  H   UNL     1     -11.838  10.989  67.190  1.00  0.00     0.000 HD 
HETATM   15  O   UNL     1     -11.249  10.415  67.665  1.00  0.00    -0.318 OA 
BRANCH  13  16
HETATM   16  C   UNL     1     -11.673  11.781  69.641  1.00  0.00    -0.344 C  
HETATM   17  O   UNL     1     -10.494  12.515  69.306  1.00  0.00    -0.433 OA 
HETATM   18  H   UNL     1     -10.509  13.390  69.674  1.00  0.00     0.000 HD 
ENDBRANCH  13  16
ENDBRANCH  10  13
ENDBRANCH   7  10
ENDBRANCH   4   7
ENDBRANCH   2   4
TORSDOF 5
ENDMDL
MODEL      112
REMARK 921   NORMALIZED FREE ENERGY PREDICTED BY IDOCK:   -3.51 KCAL/MOL
REMARK 922        TOTAL FREE ENERGY PREDICTED BY IDOCK:   -4.84 KCAL/MOL
REMARK 923 INTER-LIGAND FREE ENERGY PREDICTED BY IDOCK:   -4.42 KCAL/MOL
REMARK 924 INTRA-LIGAND FREE ENERGY PREDICTED BY IDOCK:   -0.43 KCAL/MOL
REMARK 927      BINDING AFFINITY PREDICTED BY RF-SCORE:    0.00 PKD
ROOT
HETATM    1  O   UNL     1     -10.415  18.749  68.772  1.00  0.00    -0.439 OA 
HETATM    2  C   UNL     1      -9.837  17.724  67.959  1.00  0.00    -0.317 C  
HETATM    3  H   UNL     1     -10.442  19.552  68.265  1.00  0.00     0.000 HD 
ENDROOT
BRANCH   2   4
HETATM    4  C   UNL     1      -9.793  16.430  68.776  1.00  0.00    -0.250 C  
HETATM    5  H   UNL     1     -10.967  15.537  70.069  1.00  0.00     0.000 HD 
HETATM    6  O   UNL     1     -10.994  16.340  69.563  1.00  0.00    -0.304 OA 
BRANCH   4   7
HETATM    7  C   UNL     1      -9.621  15.158  67.913  1.00  0.00    -0.203 C  
HETATM    8  O   UNL     1      -9.602  14.003  68.774  1.00  0.00    -0.326 OA 
HETATM    9  H   UNL     1      -9.496  13.222  68.244  1.00  0.00     0.000 HD 
BRANCH   7  10
HETATM   10  C   UNL     1     -10.743  14.965  66.862  1.00  0.00    -0.308 C  
HETATM   11  H   UNL     1     -12.091  13.586  66.382  1.00  0.00     0.000 HD 
HETATM   12  O   UNL     1     -11.403  13.705  67.027  1.00  0.00    -0.303 OA 
BRANCH  10  13
HETATM   13  C   UNL     1     -10.228  15.087  65.417  1.00  0.00    -0.381 C  
HETATM   14  H   UNL     1     -10.495  16.319  63.908  1.00  0.00     0.000 HD 
HETATM   15  O   UNL     1     -10.813  16.244  64.800  1.00  0.00    -0.671 OA 
BRANCH  13  16
HETATM   16  C   UNL     1     -10.548  13.828  64.585  1.00  0.00    -0.425 C  
HETATM   17  O   UNL     1      -9.627  12.769  64.854  1.00  0.00    -0.489 OA 
HETATM   18  H   UNL     1      -9.824  11.994  64.342  1.00  0.00     0.000 HD 
ENDBRANCH  13  16
ENDBRANCH  10  13
ENDBRANCH   7  10
ENDBRANCH   4   7
ENDBRANCH   2   4
TORSDOF 5
ENDMDL
MODEL      113
REMARK 921   NORMALIZED FREE ENERGY PREDICTED BY IDOCK:   -3.50 KCAL/MOL
REMARK 922        TOTAL FREE ENERGY PREDICTED BY IDOCK:   -4.84 KCAL/MOL
REMARK 923 INTER-LIGAND FREE ENERGY PREDICTED BY IDOCK:   -4.45 KCAL/MOL
REMARK 924 INTRA-LIGAND FREE ENERGY PREDICTED BY IDOCK:   -0.39 KCAL/MOL
REMARK 927      BINDING AFFINITY PREDICTED BY RF-SCORE:    0.00 PKD
ROOT
HETATM    1  O   UNL     1     -10.708   6.351  67.648  1.00  0.00    -0.236 OA 
HETATM    2  C   UNL     1     -10.404   7.564  68.341  1.00  0.00    -0.195 C  
HETATM    3  H   UNL     1     -10.354   6.413  66.768  1.00  0.00     0.000 HD 
ENDROOT
BRANCH   2   4
HETATM    4  C   UNL     1     -10.975   7.464  69.759  1.00  0.00    -0.200 C  
HETATM    5  H   UNL     1     -11.152   6.055  71.112  1.00  0.00     0.000 HD 
HETATM    6  O   UNL     1     -10.798   6.117  70.233  1.00  0.00    -0.264 OA 
BRANCH   4   7
HETATM    7  C   UNL     1     -10.347   8.469  70.752  1.00  0.00    -0.198 C  
HETATM    8  O   UNL     1      -9.861   9.612  70.022  1.00  0.00    -0.216 OA 
HETATM    9  H   UNL     1      -9.474  10.229  70.632  1.00  0.00     0.000 HD 
BRANCH   7  10
HETATM   10  C   UNL     1     -11.334   8.967  71.838  1.00  0.00    -0.368 C  
HETATM   11  H   UNL     1     -12.232   8.243  73.456  1.00  0.00     0.000 HD 
HETATM   12  O   UNL     1     -11.626   7.938  72.790  1.00  0.00    -0.383 OA 
BRANCH  10  13
HETATM   13  C   UNL     1     -12.649   9.501  71.243  1.00  0.00    -0.339 C  
HETATM   14  H   UNL     1     -13.560  11.240  71.131  1.00  0.00     0.000 HD 
HETATM   15  O   UNL     1     -12.748  10.910  71.498  1.00  0.00    -0.408 OA 
BRANCH  13  16
HETATM   16  C   UNL     1     -13.879   8.773  71.823  1.00  0.00    -0.423 C  
HETATM   17  O   UNL     1     -14.056   9.060  73.211  1.00  0.00    -1.218 OA 
HETATM   18  H   UNL     1     -14.814   8.613  73.568  1.00  0.00     0.000 HD 
ENDBRANCH  13  16
ENDBRANCH  10  13
ENDBRANCH   7  10
ENDBRANCH   4   7
ENDBRANCH   2   4
TORSDOF 5
ENDMDL
MODEL      114
REMARK 921   NORMALIZED FREE ENERGY PREDICTED BY IDOCK:   -3.49 KCAL/MOL
REMARK 922        TOTAL FREE ENERGY PREDICTED BY IDOCK:   -4.83 KCAL/MOL
REMARK 923 INTER-LIGAND FREE ENERGY PREDICTED BY IDOCK:   -4.28 KCAL/MOL
REMARK 924 INTRA-LIGAND FREE ENERGY PREDICTED BY IDOCK:   -0.54 KCAL/MOL
REMARK 927      BINDING AFFINITY PREDICTED BY RF-SCORE:    0.00 PKD
ROOT
HETATM    1  O   UNL     1     -12.844   9.069  70.766  1.00  0.00    -0.500 OA 
HETATM    2  C   UNL     1     -11.869  10.061  71.100  1.00  0.00    -0.393 C  
HETATM    3  H   UNL     1     -13.553   9.123  71.396  1.00  0.00     0.000 HD 
ENDROOT
BRANCH   2   4
HETATM    4  C   UNL     1     -10.726   9.973  70.085  1.00  0.00    -0.307 C  
HETATM    5  H   UNL     1      -9.500   8.576  69.458  1.00  0.00     0.000 HD 
HETATM    6  O   UNL     1     -10.209   8.631  70.088  1.00  0.00    -0.184 OA 
BRANCH   4   7
HETATM    7  C   UNL     1     -11.136  10.387  68.652  1.00  0.00    -0.262 C  
HETATM    8  O   UNL     1     -12.532  10.744  68.647  1.00  0.00    -0.793 OA 
HETATM    9  H   UNL     1     -12.785  10.997  67.767  1.00  0.00     0.000 HD 
BRANCH   7  10
HETATM   10  C   UNL     1     -10.324  11.584  68.095  1.00  0.00    -0.195 C  
HETATM   11  H   UNL     1     -10.116  13.524  68.470  1.00  0.00     0.000 HD 
HETATM   12  O   UNL     1     -10.614  12.790  68.812  1.00  0.00    -0.240 OA 
BRANCH  10  13
HETATM   13  C   UNL     1     -10.562  11.812  66.593  1.00  0.00    -0.240 C  
HETATM   14  H   UNL     1     -12.062  12.386  65.458  1.00  0.00     0.000 HD 
HETATM   15  O   UNL     1     -11.915  12.244  66.386  1.00  0.00    -0.589 OA 
BRANCH  13  16
HETATM   16  C   UNL     1     -10.284  10.539  65.766  1.00  0.00    -0.243 C  
HETATM   17  O   UNL     1     -10.243  10.818  64.366  1.00  0.00    -0.336 OA 
HETATM   18  H   UNL     1     -10.071  10.035  63.857  1.00  0.00     0.000 HD 
ENDBRANCH  13  16
ENDBRANCH  10  13
ENDBRANCH   7  10
ENDBRANCH   4   7
ENDBRANCH   2   4
TORSDOF 5
ENDMDL
MODEL      115
REMARK 921   NORMALIZED FREE ENERGY PREDICTED BY IDOCK:   -3.49 KCAL/MOL
REMARK 922        TOTAL FREE ENERGY PREDICTED BY IDOCK:   -4.82 KCAL/MOL
REMARK 923 INTER-LIGAND FREE ENERGY PREDICTED BY IDOCK:   -4.54 KCAL/MOL
REMARK 924 INTRA-LIGAND FREE ENERGY PREDICTED BY IDOCK:   -0.29 KCAL/MOL
REMARK 927      BINDING AFFINITY PREDICTED BY RF-SCORE:    0.00 PKD
ROOT
HETATM    1  O   UNL     1     -13.059  13.972  65.172  1.00  0.00    -0.776 OA 
HETATM    2  C   UNL     1     -11.833  14.681  64.976  1.00  0.00    -0.377 C  
HETATM    3  H   UNL     1     -13.560  14.014  64.366  1.00  0.00     0.000 HD 
ENDROOT
BRANCH   2   4
HETATM    4  C   UNL     1     -11.025  14.613  66.276  1.00  0.00    -0.327 C  
HETATM    5  H   UNL     1      -9.148  14.308  66.757  1.00  0.00     0.000 HD 
HETATM    6  O   UNL     1      -9.649  14.350  65.951  1.00  0.00    -0.287 OA 
BRANCH   4   7
HETATM    7  C   UNL     1     -11.138  15.889  67.143  1.00  0.00    -0.148 C  
HETATM    8  O   UNL     1     -11.622  15.529  68.451  1.00  0.00    -0.355 OA 
HETATM    9  H   UNL     1     -11.692  16.312  68.983  1.00  0.00     0.000 HD 
BRANCH   7  10
HETATM   10  C   UNL     1      -9.795  16.645  67.310  1.00  0.00    -0.255 C  
HETATM   11  H   UNL     1      -8.587  17.191  68.791  1.00  0.00     0.000 HD 
HETATM   12  O   UNL     1      -9.410  16.727  68.688  1.00  0.00    -0.237 OA 
BRANCH  10  13
HETATM   13  C   UNL     1      -9.832  18.059  66.705  1.00  0.00    -0.335 C  
HETATM   14  H   UNL     1     -10.605  18.905  65.108  1.00  0.00     0.000 HD 
HETATM   15  O   UNL     1     -10.582  18.032  65.481  1.00  0.00    -0.639 OA 
BRANCH  13  16
HETATM   16  C   UNL     1      -8.415  18.609  66.441  1.00  0.00    -0.272 C  
HETATM   17  O   UNL     1      -7.606  17.665  65.738  1.00  0.00    -0.530 OA 
HETATM   18  H   UNL     1      -6.733  18.004  65.575  1.00  0.00     0.000 HD 
ENDBRANCH  13  16
ENDBRANCH  10  13
ENDBRANCH   7  10
ENDBRANCH   4   7
ENDBRANCH   2   4
TORSDOF 5
ENDMDL
MODEL      116
REMARK 921   NORMALIZED FREE ENERGY PREDICTED BY IDOCK:   -3.49 KCAL/MOL
REMARK 922        TOTAL FREE ENERGY PREDICTED BY IDOCK:   -4.82 KCAL/MOL
REMARK 923 INTER-LIGAND FREE ENERGY PREDICTED BY IDOCK:   -4.30 KCAL/MOL
REMARK 924 INTRA-LIGAND FREE ENERGY PREDICTED BY IDOCK:   -0.52 KCAL/MOL
REMARK 927      BINDING AFFINITY PREDICTED BY RF-SCORE:    0.00 PKD
ROOT
HETATM    1  O   UNL     1     -12.541  10.527  69.367  1.00  0.00    -0.701 OA 
HETATM    2  C   UNL     1     -11.917  11.354  70.353  1.00  0.00    -0.374 C  
HETATM    3  H   UNL     1     -12.007   9.750  69.248  1.00  0.00     0.000 HD 
ENDROOT
BRANCH   2   4
HETATM    4  C   UNL     1     -12.779  12.606  70.545  1.00  0.00     0.010 C  
HETATM    5  H   UNL     1     -13.582  13.546  72.068  1.00  0.00     0.000 HD 
HETATM    6  O   UNL     1     -13.048  12.770  71.949  1.00  0.00    -0.405 OA 
BRANCH   4   7
HETATM    7  C   UNL     1     -12.141  13.891  69.968  1.00  0.00    -0.345 C  
HETATM    8  O   UNL     1     -11.476  14.605  71.028  1.00  0.00    -0.469 OA 
HETATM    9  H   UNL     1     -11.085  15.394  70.674  1.00  0.00     0.000 HD 
BRANCH   7  10
HETATM   10  C   UNL     1     -11.112  13.621  68.841  1.00  0.00    -0.256 C  
HETATM   11  H   UNL     1      -9.448  14.448  68.136  1.00  0.00     0.000 HD 
HETATM   12  O   UNL     1     -10.079  14.613  68.827  1.00  0.00    -0.226 OA 
BRANCH  10  13
HETATM   13  C   UNL     1     -11.764  13.543  67.450  1.00  0.00    -0.380 C  
HETATM   14  H   UNL     1     -12.445  12.123  66.272  1.00  0.00     0.000 HD 
HETATM   15  O   UNL     1     -12.042  12.171  67.131  1.00  0.00    -0.575 OA 
BRANCH  13  16
HETATM   16  C   UNL     1     -10.868  14.165  66.359  1.00  0.00    -0.304 C  
HETATM   17  O   UNL     1      -9.555  13.603  66.371  1.00  0.00    -0.277 OA 
HETATM   18  H   UNL     1      -9.003  13.985  65.699  1.00  0.00     0.000 HD 
ENDBRANCH  13  16
ENDBRANCH  10  13
ENDBRANCH   7  10
ENDBRANCH   4   7
ENDBRANCH   2   4
TORSDOF 5
ENDMDL
MODEL      117
REMARK 921   NORMALIZED FREE ENERGY PREDICTED BY IDOCK:   -3.48 KCAL/MOL
REMARK 922        TOTAL FREE ENERGY PREDICTED BY IDOCK:   -4.81 KCAL/MOL
REMARK 923 INTER-LIGAND FREE ENERGY PREDICTED BY IDOCK:   -3.99 KCAL/MOL
REMARK 924 INTRA-LIGAND FREE ENERGY PREDICTED BY IDOCK:   -0.82 KCAL/MOL
REMARK 927      BINDING AFFINITY PREDICTED BY RF-SCORE:    0.00 PKD
ROOT
HETATM    1  O   UNL     1      -8.680  14.554  66.472  1.00  0.00    -0.432 OA 
HETATM    2  C   UNL     1      -9.475  15.740  66.384  1.00  0.00    -0.297 C  
HETATM    3  H   UNL     1      -8.035  14.575  65.775  1.00  0.00     0.000 HD 
ENDROOT
BRANCH   2   4
HETATM    4  C   UNL     1     -10.515  15.706  67.507  1.00  0.00    -0.285 C  
HETATM    5  H   UNL     1     -11.520  17.037  68.541  1.00  0.00     0.000 HD 
HETATM    6  O   UNL     1     -10.874  17.058  67.844  1.00  0.00    -0.357 OA 
BRANCH   4   7
HETATM    7  C   UNL     1     -11.779  14.888  67.156  1.00  0.00    -0.277 C  
HETATM    8  O   UNL     1     -11.630  14.333  65.834  1.00  0.00    -0.342 OA 
HETATM    9  H   UNL     1     -12.407  13.831  65.618  1.00  0.00     0.000 HD 
BRANCH   7  10
HETATM   10  C   UNL     1     -12.061  13.727  68.143  1.00  0.00    -0.281 C  
HETATM   11  H   UNL     1     -12.009  13.417  70.106  1.00  0.00     0.000 HD 
HETATM   12  O   UNL     1     -11.837  14.129  69.500  1.00  0.00    -0.280 OA 
BRANCH  10  13
HETATM   13  C   UNL     1     -11.223  12.473  67.837  1.00  0.00    -0.264 C  
HETATM   14  H   UNL     1     -11.328  10.959  66.586  1.00  0.00     0.000 HD 
HETATM   15  O   UNL     1     -11.846  11.733  66.775  1.00  0.00    -0.586 OA 
BRANCH  13  16
HETATM   16  C   UNL     1     -11.060  11.573  69.079  1.00  0.00    -0.245 C  
HETATM   17  O   UNL     1     -12.313  11.042  69.514  1.00  0.00    -0.341 OA 
HETATM   18  H   UNL     1     -12.213  10.487  70.279  1.00  0.00     0.000 HD 
ENDBRANCH  13  16
ENDBRANCH  10  13
ENDBRANCH   7  10
ENDBRANCH   4   7
ENDBRANCH   2   4
TORSDOF 5
ENDMDL
MODEL      118
REMARK 921   NORMALIZED FREE ENERGY PREDICTED BY IDOCK:   -3.48 KCAL/MOL
REMARK 922        TOTAL FREE ENERGY PREDICTED BY IDOCK:   -4.81 KCAL/MOL
REMARK 923 INTER-LIGAND FREE ENERGY PREDICTED BY IDOCK:   -4.40 KCAL/MOL
REMARK 924 INTRA-LIGAND FREE ENERGY PREDICTED BY IDOCK:   -0.41 KCAL/MOL
REMARK 927      BINDING AFFINITY PREDICTED BY RF-SCORE:    0.00 PKD
ROOT
HETATM    1  O   UNL     1      -9.861  14.434  69.125  1.00  0.00    -0.376 OA 
HETATM    2  C   UNL     1      -9.276  14.527  67.823  1.00  0.00    -0.194 C  
HETATM    3  H   UNL     1      -9.207  14.092  69.723  1.00  0.00     0.000 HD 
ENDROOT
BRANCH   2   4
HETATM    4  C   UNL     1     -10.331  15.077  66.860  1.00  0.00    -0.266 C  
HETATM    5  H   UNL     1     -12.250  15.478  66.947  1.00  0.00     0.000 HD 
HETATM    6  O   UNL     1     -11.595  15.136  67.544  1.00  0.00    -0.331 OA 
BRANCH   4   7
HETATM    7  C   UNL     1      -9.973  16.463  66.275  1.00  0.00    -0.323 C  
HETATM    8  O   UNL     1     -10.422  16.528  64.908  1.00  0.00    -0.653 OA 
HETATM    9  H   UNL     1     -10.201  17.380  64.548  1.00  0.00     0.000 HD 
BRANCH   7  10
HETATM   10  C   UNL     1     -10.604  17.646  67.053  1.00  0.00    -0.254 C  
HETATM   11  H   UNL     1     -11.166  19.517  66.686  1.00  0.00     0.000 HD 
HETATM   12  O   UNL     1     -10.779  18.791  66.210  1.00  0.00    -0.383 OA 
BRANCH  10  13
HETATM   13  C   UNL     1      -9.784  18.045  68.292  1.00  0.00    -0.330 C  
HETATM   14  H   UNL     1      -9.807  17.624  70.212  1.00  0.00     0.000 HD 
HETATM   15  O   UNL     1     -10.313  17.378  69.447  1.00  0.00    -0.292 OA 
BRANCH  13  16
HETATM   16  C   UNL     1      -9.788  19.571  68.518  1.00  0.00    -0.429 C  
HETATM   17  O   UNL     1     -10.266  19.910  69.821  1.00  0.00    -0.569 OA 
HETATM   18  H   UNL     1     -10.268  20.849  69.960  1.00  0.00     0.000 HD 
ENDBRANCH  13  16
ENDBRANCH  10  13
ENDBRANCH   7  10
ENDBRANCH   4   7
ENDBRANCH   2   4
TORSDOF 5
ENDMDL
MODEL      119
REMARK 921   NORMALIZED FREE ENERGY PREDICTED BY IDOCK:   -3.47 KCAL/MOL
REMARK 922        TOTAL FREE ENERGY PREDICTED BY IDOCK:   -4.79 KCAL/MOL
REMARK 923 INTER-LIGAND FREE ENERGY PREDICTED BY IDOCK:   -4.59 KCAL/MOL
REMARK 924 INTRA-LIGAND FREE ENERGY PREDICTED BY IDOCK:   -0.20 KCAL/MOL
REMARK 927      BINDING AFFINITY PREDICTED BY RF-SCORE:    0.00 PKD
ROOT
HETATM    1  O   UNL     1     -14.134  15.471  72.906  1.00  0.00    -0.510 OA 
HETATM    2  C   UNL     1     -13.746  15.208  71.555  1.00  0.00    -0.494 C  
HETATM    3  H   UNL     1     -14.993  15.091  73.049  1.00  0.00     0.000 HD 
ENDROOT
BRANCH   2   4
HETATM    4  C   UNL     1     -12.361  15.821  71.325  1.00  0.00    -0.438 C  
HETATM    5  H   UNL     1     -10.862  16.386  72.457  1.00  0.00     0.000 HD 
HETATM    6  O   UNL     1     -11.721  16.006  72.600  1.00  0.00    -0.460 OA 
BRANCH   4   7
HETATM    7  C   UNL     1     -11.460  14.982  70.389  1.00  0.00    -0.280 C  
HETATM    8  O   UNL     1     -11.743  13.584  70.591  1.00  0.00    -0.517 OA 
HETATM    9  H   UNL     1     -11.189  13.068  70.017  1.00  0.00     0.000 HD 
BRANCH   7  10
HETATM   10  C   UNL     1     -11.654  15.307  68.886  1.00  0.00    -0.347 C  
HETATM   11  H   UNL     1     -12.123  14.335  67.217  1.00  0.00     0.000 HD 
HETATM   12  O   UNL     1     -12.004  14.136  68.139  1.00  0.00    -0.351 OA 
BRANCH  10  13
HETATM   13  C   UNL     1     -10.411  15.961  68.257  1.00  0.00    -0.257 C  
HETATM   14  H   UNL     1      -8.526  16.210  68.755  1.00  0.00     0.000 HD 
HETATM   15  O   UNL     1      -9.293  15.806  69.144  1.00  0.00    -0.223 OA 
BRANCH  13  16
HETATM   16  C   UNL     1     -10.640  17.456  67.954  1.00  0.00    -0.383 C  
HETATM   17  O   UNL     1     -10.225  17.795  66.629  1.00  0.00    -0.332 OA 
HETATM   18  H   UNL     1     -10.366  18.715  66.442  1.00  0.00     0.000 HD 
ENDBRANCH  13  16
ENDBRANCH  10  13
ENDBRANCH   7  10
ENDBRANCH   4   7
ENDBRANCH   2   4
TORSDOF 5
ENDMDL
MODEL      120
REMARK 921   NORMALIZED FREE ENERGY PREDICTED BY IDOCK:   -3.46 KCAL/MOL
REMARK 922        TOTAL FREE ENERGY PREDICTED BY IDOCK:   -4.78 KCAL/MOL
REMARK 923 INTER-LIGAND FREE ENERGY PREDICTED BY IDOCK:   -4.46 KCAL/MOL
REMARK 924 INTRA-LIGAND FREE ENERGY PREDICTED BY IDOCK:   -0.32 KCAL/MOL
REMARK 927      BINDING AFFINITY PREDICTED BY RF-SCORE:    0.00 PKD
ROOT
HETATM    1  O   UNL     1     -14.078   8.952  73.383  1.00  0.00    -1.256 OA 
HETATM    2  C   UNL     1     -13.175   9.067  72.280  1.00  0.00    -0.460 C  
HETATM    3  H   UNL     1     -14.302   9.827  73.677  1.00  0.00     0.000 HD 
ENDROOT
BRANCH   2   4
HETATM    4  C   UNL     1     -12.814   7.656  71.805  1.00  0.00    -0.330 C  
HETATM    5  H   UNL     1     -13.673   6.271  70.712  1.00  0.00     0.000 HD 
HETATM    6  O   UNL     1     -13.897   7.146  71.007  1.00  0.00    -0.214 OA 
BRANCH   4   7
HETATM    7  C   UNL     1     -11.487   7.589  71.013  1.00  0.00    -0.278 C  
HETATM    8  O   UNL     1     -11.773   7.246  69.643  1.00  0.00    -0.502 OA 
HETATM    9  H   UNL     1     -10.958   7.204  69.157  1.00  0.00     0.000 HD 
BRANCH   7  10
HETATM   10  C   UNL     1     -10.689   8.918  71.027  1.00  0.00    -0.247 C  
HETATM   11  H   UNL     1     -10.314  10.424  69.786  1.00  0.00     0.000 HD 
HETATM   12  O   UNL     1     -10.804   9.609  69.777  1.00  0.00    -0.230 OA 
BRANCH  10  13
HETATM   13  C   UNL     1      -9.202   8.712  71.363  1.00  0.00    -0.235 C  
HETATM   14  H   UNL     1      -7.743   7.559  70.723  1.00  0.00     0.000 HD 
HETATM   15  O   UNL     1      -8.662   7.686  70.516  1.00  0.00    -0.136 OA 
BRANCH  13  16
HETATM   16  C   UNL     1      -8.994   8.335  72.844  1.00  0.00    -0.254 C  
HETATM   17  O   UNL     1      -7.626   8.469  73.235  1.00  0.00    -0.322 OA 
HETATM   18  H   UNL     1      -7.498   8.237  74.147  1.00  0.00     0.000 HD 
ENDBRANCH  13  16
ENDBRANCH  10  13
ENDBRANCH   7  10
ENDBRANCH   4   7
ENDBRANCH   2   4
TORSDOF 5
ENDMDL
MODEL      121
REMARK 921   NORMALIZED FREE ENERGY PREDICTED BY IDOCK:   -3.45 KCAL/MOL
REMARK 922        TOTAL FREE ENERGY PREDICTED BY IDOCK:   -4.76 KCAL/MOL
REMARK 923 INTER-LIGAND FREE ENERGY PREDICTED BY IDOCK:   -4.04 KCAL/MOL
REMARK 924 INTRA-LIGAND FREE ENERGY PREDICTED BY IDOCK:   -0.72 KCAL/MOL
REMARK 927      BINDING AFFINITY PREDICTED BY RF-SCORE:    0.00 PKD
ROOT
HETATM    1  O   UNL     1     -12.148  12.850  68.025  1.00  0.00    -0.311 OA 
HETATM    2  C   UNL     1     -11.893  13.057  69.418  1.00  0.00    -0.322 C  
HETATM    3  H   UNL     1     -12.226  11.916  67.872  1.00  0.00     0.000 HD 
ENDROOT
BRANCH   2   4
HETATM    4  C   UNL     1     -11.767  14.563  69.665  1.00  0.00    -0.307 C  
HETATM    5  H   UNL     1     -11.641  15.729  71.238  1.00  0.00     0.000 HD 
HETATM    6  O   UNL     1     -11.719  14.795  71.084  1.00  0.00    -0.318 OA 
BRANCH   4   7
HETATM    7  C   UNL     1     -10.540  15.203  68.975  1.00  0.00    -0.245 C  
HETATM    8  O   UNL     1      -9.542  14.189  68.751  1.00  0.00    -0.294 OA 
HETATM    9  H   UNL     1      -8.788  14.582  68.327  1.00  0.00     0.000 HD 
BRANCH   7  10
HETATM   10  C   UNL     1     -10.871  15.872  67.617  1.00  0.00    -0.312 C  
HETATM   11  H   UNL     1     -10.967  15.349  65.702  1.00  0.00     0.000 HD 
HETATM   12  O   UNL     1     -10.764  14.939  66.535  1.00  0.00    -0.296 OA 
BRANCH  10  13
HETATM   13  C   UNL     1      -9.982  17.094  67.327  1.00  0.00    -0.274 C  
HETATM   14  H   UNL     1      -9.338  18.659  68.329  1.00  0.00     0.000 HD 
HETATM   15  O   UNL     1      -9.887  17.904  68.508  1.00  0.00    -0.329 OA 
BRANCH  13  16
HETATM   16  C   UNL     1     -10.527  17.936  66.155  1.00  0.00    -0.321 C  
HETATM   17  O   UNL     1     -10.669  17.156  64.966  1.00  0.00    -0.712 OA 
HETATM   18  H   UNL     1     -11.005  17.674  64.244  1.00  0.00     0.000 HD 
ENDBRANCH  13  16
ENDBRANCH  10  13
ENDBRANCH   7  10
ENDBRANCH   4   7
ENDBRANCH   2   4
TORSDOF 5
ENDMDL
MODEL      122
REMARK 921   NORMALIZED FREE ENERGY PREDICTED BY IDOCK:   -3.44 KCAL/MOL
REMARK 922        TOTAL FREE ENERGY PREDICTED BY IDOCK:   -4.76 KCAL/MOL
REMARK 923 INTER-LIGAND FREE ENERGY PREDICTED BY IDOCK:   -4.17 KCAL/MOL
REMARK 924 INTRA-LIGAND FREE ENERGY PREDICTED BY IDOCK:   -0.59 KCAL/MOL
REMARK 927      BINDING AFFINITY PREDICTED BY RF-SCORE:    0.00 PKD
ROOT
HETATM    1  O   UNL     1     -12.580  14.765  69.334  1.00  0.00    -0.569 OA 
HETATM    2  C   UNL     1     -11.782  15.878  68.921  1.00  0.00    -0.370 C  
HETATM    3  H   UNL     1     -13.048  15.010  70.123  1.00  0.00     0.000 HD 
ENDROOT
BRANCH   2   4
HETATM    4  C   UNL     1     -11.027  15.484  67.649  1.00  0.00    -0.315 C  
HETATM    5  H   UNL     1      -9.149  15.210  67.150  1.00  0.00     0.000 HD 
HETATM    6  O   UNL     1      -9.618  15.455  67.939  1.00  0.00    -0.205 OA 
BRANCH   4   7
HETATM    7  C   UNL     1     -11.480  14.130  67.055  1.00  0.00    -0.352 C  
HETATM    8  O   UNL     1     -12.743  14.307  66.386  1.00  0.00    -0.524 OA 
HETATM    9  H   UNL     1     -13.022  13.476  66.021  1.00  0.00     0.000 HD 
BRANCH   7  10
HETATM   10  C   UNL     1     -10.472  13.528  66.043  1.00  0.00    -0.299 C  
HETATM   11  H   UNL     1      -9.921  13.829  64.157  1.00  0.00     0.000 HD 
HETATM   12  O   UNL     1     -10.539  14.197  64.778  1.00  0.00    -0.407 OA 
BRANCH  10  13
HETATM   13  C   UNL     1     -10.674  12.017  65.833  1.00  0.00    -0.275 C  
HETATM   14  H   UNL     1     -12.004  10.670  66.363  1.00  0.00     0.000 HD 
HETATM   15  O   UNL     1     -11.879  11.603  66.493  1.00  0.00    -0.500 OA 
BRANCH  13  16
HETATM   16  C   UNL     1      -9.477  11.198  66.360  1.00  0.00    -0.193 C  
HETATM   17  O   UNL     1      -9.736  10.664  67.660  1.00  0.00    -0.162 OA 
HETATM   18  H   UNL     1      -9.000  10.159  67.984  1.00  0.00     0.000 HD 
ENDBRANCH  13  16
ENDBRANCH  10  13
ENDBRANCH   7  10
ENDBRANCH   4   7
ENDBRANCH   2   4
TORSDOF 5
ENDMDL
MODEL      123
REMARK 921   NORMALIZED FREE ENERGY PREDICTED BY IDOCK:   -3.44 KCAL/MOL
REMARK 922        TOTAL FREE ENERGY PREDICTED BY IDOCK:   -4.75 KCAL/MOL
REMARK 923 INTER-LIGAND FREE ENERGY PREDICTED BY IDOCK:   -3.63 KCAL/MOL
REMARK 924 INTRA-LIGAND FREE ENERGY PREDICTED BY IDOCK:   -1.13 KCAL/MOL
REMARK 927      BINDING AFFINITY PREDICTED BY RF-SCORE:    0.00 PKD
ROOT
HETATM    1  O   UNL     1     -11.975   6.532  69.558  1.00  0.00    -0.601 OA 
HETATM    2  C   UNL     1     -10.763   6.025  68.991  1.00  0.00    -0.324 C  
HETATM    3  H   UNL     1     -12.697   6.001  69.242  1.00  0.00     0.000 HD 
ENDROOT
BRANCH   2   4
HETATM    4  C   UNL     1      -9.600   6.882  69.501  1.00  0.00    -0.148 C  
HETATM    5  H   UNL     1      -8.981   8.724  69.234  1.00  0.00     0.000 HD 
HETATM    6  O   UNL     1      -9.703   8.193  68.918  1.00  0.00    -0.152 OA 
BRANCH   4   7
HETATM    7  C   UNL     1      -9.535   6.983  71.042  1.00  0.00    -0.159 C  
HETATM    8  O   UNL     1      -8.245   6.523  71.491  1.00  0.00    -0.115 OA 
HETATM    9  H   UNL     1      -8.205   6.585  72.438  1.00  0.00     0.000 HD 
BRANCH   7  10
HETATM   10  C   UNL     1      -9.754   8.421  71.579  1.00  0.00    -0.210 C  
HETATM   11  H   UNL     1      -8.841   9.690  72.806  1.00  0.00     0.000 HD 
HETATM   12  O   UNL     1      -8.707   8.808  72.477  1.00  0.00    -0.406 OA 
BRANCH  10  13
HETATM   13  C   UNL     1     -11.115   8.592  72.276  1.00  0.00    -0.360 C  
HETATM   14  H   UNL     1     -12.620   7.426  72.767  1.00  0.00     0.000 HD 
HETATM   15  O   UNL     1     -11.780   7.321  72.336  1.00  0.00    -0.278 OA 
BRANCH  13  16
HETATM   16  C   UNL     1     -12.008   9.619  71.550  1.00  0.00    -0.406 C  
HETATM   17  O   UNL     1     -12.028   9.397  70.139  1.00  0.00    -0.467 OA 
HETATM   18  H   UNL     1     -12.578  10.029  69.692  1.00  0.00     0.000 HD 
ENDBRANCH  13  16
ENDBRANCH  10  13
ENDBRANCH   7  10
ENDBRANCH   4   7
ENDBRANCH   2   4
TORSDOF 5
ENDMDL
MODEL      124
REMARK 921   NORMALIZED FREE ENERGY PREDICTED BY IDOCK:   -3.44 KCAL/MOL
REMARK 922        TOTAL FREE ENERGY PREDICTED BY IDOCK:   -4.75 KCAL/MOL
REMARK 923 INTER-LIGAND FREE ENERGY PREDICTED BY IDOCK:   -4.43 KCAL/MOL
REMARK 924 INTRA-LIGAND FREE ENERGY PREDICTED BY IDOCK:   -0.32 KCAL/MOL
REMARK 927      BINDING AFFINITY PREDICTED BY RF-SCORE:    0.00 PKD
ROOT
HETATM    1  O   UNL     1     -13.975   8.933  73.330  1.00  0.00    -1.236 OA 
HETATM    2  C   UNL     1     -13.376   8.873  72.033  1.00  0.00    -0.421 C  
HETATM    3  H   UNL     1     -14.919   8.919  73.225  1.00  0.00     0.000 HD 
ENDROOT
BRANCH   2   4
HETATM    4  C   UNL     1     -11.855   8.896  72.203  1.00  0.00    -0.347 C  
HETATM    5  H   UNL     1     -10.535   7.880  73.239  1.00  0.00     0.000 HD 
HETATM    6  O   UNL     1     -11.479   7.865  73.134  1.00  0.00    -0.323 OA 
BRANCH   4   7
HETATM    7  C   UNL     1     -11.080   8.728  70.875  1.00  0.00    -0.268 C  
HETATM    8  O   UNL     1     -11.871   7.938  69.965  1.00  0.00    -0.455 OA 
HETATM    9  H   UNL     1     -11.395   7.835  69.149  1.00  0.00     0.000 HD 
BRANCH   7  10
HETATM   10  C   UNL     1     -10.735  10.071  70.183  1.00  0.00    -0.307 C  
HETATM   11  H   UNL     1     -11.667  11.451  69.099  1.00  0.00     0.000 HD 
HETATM   12  O   UNL     1     -11.879  10.628  69.523  1.00  0.00    -0.286 OA 
BRANCH  10  13
HETATM   13  C   UNL     1      -9.579   9.939  69.177  1.00  0.00    -0.199 C  
HETATM   14  H   UNL     1      -9.167   8.814  67.619  1.00  0.00     0.000 HD 
HETATM   15  O   UNL     1      -9.881   8.895  68.240  1.00  0.00    -0.157 OA 
BRANCH  13  16
HETATM   16  C   UNL     1      -8.237   9.644  69.879  1.00  0.00    -0.174 C  
HETATM   17  O   UNL     1      -7.354  10.765  69.824  1.00  0.00    -0.262 OA 
HETATM   18  H   UNL     1      -6.528  10.584  70.256  1.00  0.00     0.000 HD 
ENDBRANCH  13  16
ENDBRANCH  10  13
ENDBRANCH   7  10
ENDBRANCH   4   7
ENDBRANCH   2   4
TORSDOF 5
ENDMDL
MODEL      125
REMARK 921   NORMALIZED FREE ENERGY PREDICTED BY IDOCK:   -3.44 KCAL/MOL
REMARK 922        TOTAL FREE ENERGY PREDICTED BY IDOCK:   -4.75 KCAL/MOL
REMARK 923 INTER-LIGAND FREE ENERGY PREDICTED BY IDOCK:   -3.92 KCAL/MOL
REMARK 924 INTRA-LIGAND FREE ENERGY PREDICTED BY IDOCK:   -0.83 KCAL/MOL
REMARK 927      BINDING AFFINITY PREDICTED BY RF-SCORE:    0.00 PKD
ROOT
HETATM    1  O   UNL     1     -11.983   6.617  69.840  1.00  0.00    -0.652 OA 
HETATM    2  C   UNL     1     -11.586   6.344  71.186  1.00  0.00    -0.318 C  
HETATM    3  H   UNL     1     -12.086   5.789  69.385  1.00  0.00     0.000 HD 
ENDROOT
BRANCH   2   4
HETATM    4  C   UNL     1     -11.420   7.678  71.919  1.00  0.00    -0.272 C  
HETATM    5  H   UNL     1     -11.167   8.245  73.780  1.00  0.00     0.000 HD 
HETATM    6  O   UNL     1     -11.271   7.417  73.326  1.00  0.00    -0.324 OA 
BRANCH   4   7
HETATM    7  C   UNL     1     -10.233   8.525  71.402  1.00  0.00    -0.235 C  
HETATM    8  O   UNL     1      -9.597   7.829  70.313  1.00  0.00    -0.174 OA 
HETATM    9  H   UNL     1      -8.868   8.349  69.995  1.00  0.00     0.000 HD 
BRANCH   7  10
HETATM   10  C   UNL     1     -10.647   9.934  70.907  1.00  0.00    -0.184 C  
HETATM   11  H   UNL     1     -12.301  11.029  70.794  1.00  0.00     0.000 HD 
HETATM   12  O   UNL     1     -12.048  10.165  71.097  1.00  0.00    -0.328 OA 
BRANCH  10  13
HETATM   13  C   UNL     1     -10.286  10.172  69.430  1.00  0.00    -0.227 C  
HETATM   14  H   UNL     1      -8.656  10.581  68.409  1.00  0.00     0.000 HD 
HETATM   15  O   UNL     1      -8.879  10.434  69.321  1.00  0.00    -0.166 OA 
BRANCH  13  16
HETATM   16  C   UNL     1     -11.087  11.343  68.824  1.00  0.00    -0.235 C  
HETATM   17  O   UNL     1     -12.378  10.923  68.378  1.00  0.00    -0.803 OA 
HETATM   18  H   UNL     1     -12.872  11.644  68.005  1.00  0.00     0.000 HD 
ENDBRANCH  13  16
ENDBRANCH  10  13
ENDBRANCH   7  10
ENDBRANCH   4   7
ENDBRANCH   2   4
TORSDOF 5
ENDMDL
MODEL      126
REMARK 921   NORMALIZED FREE ENERGY PREDICTED BY IDOCK:   -3.43 KCAL/MOL
REMARK 922        TOTAL FREE ENERGY PREDICTED BY IDOCK:   -4.74 KCAL/MOL
REMARK 923 INTER-LIGAND FREE ENERGY PREDICTED BY IDOCK:   -4.14 KCAL/MOL
REMARK 924 INTRA-LIGAND FREE ENERGY PREDICTED BY IDOCK:   -0.60 KCAL/MOL
REMARK 927      BINDING AFFINITY PREDICTED BY RF-SCORE:    0.00 PKD
ROOT
HETATM    1  O   UNL     1     -13.155  13.921  65.210  1.00  0.00    -0.777 OA 
HETATM    2  C   UNL     1     -12.253  12.915  65.681  1.00  0.00    -0.463 C  
HETATM    3  H   UNL     1     -13.703  13.538  64.535  1.00  0.00     0.000 HD 
ENDROOT
BRANCH   2   4
HETATM    4  C   UNL     1     -11.369  13.534  66.768  1.00  0.00    -0.328 C  
HETATM    5  H   UNL     1     -11.658  14.630  68.369  1.00  0.00     0.000 HD 
HETATM    6  O   UNL     1     -12.207  14.246  67.694  1.00  0.00    -0.337 OA 
BRANCH   4   7
HETATM    7  C   UNL     1     -10.496  12.501  67.518  1.00  0.00    -0.219 C  
HETATM    8  O   UNL     1     -10.044  13.078  68.758  1.00  0.00    -0.391 OA 
HETATM    9  H   UNL     1      -9.507  12.444  69.219  1.00  0.00     0.000 HD 
BRANCH   7  10
HETATM   10  C   UNL     1     -11.238  11.178  67.838  1.00  0.00    -0.302 C  
HETATM   11  H   UNL     1     -12.388  10.447  69.284  1.00  0.00     0.000 HD 
HETATM   12  O   UNL     1     -11.933  11.258  69.088  1.00  0.00    -0.324 OA 
BRANCH  10  13
HETATM   13  C   UNL     1     -10.298   9.960  67.853  1.00  0.00    -0.212 C  
HETATM   14  H   UNL     1     -10.303   8.146  67.095  1.00  0.00     0.000 HD 
HETATM   15  O   UNL     1     -10.883   8.898  67.085  1.00  0.00    -0.209 OA 
BRANCH  13  16
HETATM   16  C   UNL     1     -10.009   9.475  69.289  1.00  0.00    -0.187 C  
HETATM   17  O   UNL     1      -9.084  10.332  69.960  1.00  0.00    -0.392 OA 
HETATM   18  H   UNL     1      -8.907  10.033  70.844  1.00  0.00     0.000 HD 
ENDBRANCH  13  16
ENDBRANCH  10  13
ENDBRANCH   7  10
ENDBRANCH   4   7
ENDBRANCH   2   4
TORSDOF 5
ENDMDL
MODEL      127
REMARK 921   NORMALIZED FREE ENERGY PREDICTED BY IDOCK:   -3.43 KCAL/MOL
REMARK 922        TOTAL FREE ENERGY PREDICTED BY IDOCK:   -4.74 KCAL/MOL
REMARK 923 INTER-LIGAND FREE ENERGY PREDICTED BY IDOCK:   -3.90 KCAL/MOL
REMARK 924 INTRA-LIGAND FREE ENERGY PREDICTED BY IDOCK:   -0.84 KCAL/MOL
REMARK 927      BINDING AFFINITY PREDICTED BY RF-SCORE:    0.00 PKD
ROOT
HETATM    1  O   UNL     1     -11.250  13.338  68.964  1.00  0.00    -0.256 OA 
HETATM    2  C   UNL     1     -11.781  12.145  69.548  1.00  0.00    -0.336 C  
HETATM    3  H   UNL     1     -11.356  14.048  69.586  1.00  0.00     0.000 HD 
ENDROOT
BRANCH   2   4
HETATM    4  C   UNL     1     -11.610  11.001  68.544  1.00  0.00    -0.310 C  
HETATM    5  H   UNL     1     -11.848  10.774  66.610  1.00  0.00     0.000 HD 
HETATM    6  O   UNL     1     -11.954  11.483  67.233  1.00  0.00    -0.605 OA 
BRANCH   4   7
HETATM    7  C   UNL     1     -10.189  10.392  68.535  1.00  0.00    -0.173 C  
HETATM    8  O   UNL     1      -9.332  11.183  69.382  1.00  0.00    -0.397 OA 
HETATM    9  H   UNL     1      -8.458  10.809  69.376  1.00  0.00     0.000 HD 
BRANCH   7  10
HETATM   10  C   UNL     1     -10.141   8.923  69.028  1.00  0.00    -0.197 C  
HETATM   11  H   UNL     1     -10.603   7.120  68.331  1.00  0.00     0.000 HD 
HETATM   12  O   UNL     1     -10.632   8.021  68.029  1.00  0.00    -0.200 OA 
BRANCH  10  13
HETATM   13  C   UNL     1     -10.922   8.712  70.336  1.00  0.00    -0.235 C  
HETATM   14  H   UNL     1     -10.693   9.196  72.228  1.00  0.00     0.000 HD 
HETATM   15  O   UNL     1     -10.210   9.327  71.420  1.00  0.00    -0.320 OA 
BRANCH  13  16
HETATM   16  C   UNL     1     -11.146   7.215  70.636  1.00  0.00    -0.267 C  
HETATM   17  O   UNL     1     -12.364   6.738  70.063  1.00  0.00    -0.605 OA 
HETATM   18  H   UNL     1     -12.502   5.817  70.248  1.00  0.00     0.000 HD 
ENDBRANCH  13  16
ENDBRANCH  10  13
ENDBRANCH   7  10
ENDBRANCH   4   7
ENDBRANCH   2   4
TORSDOF 5
ENDMDL
MODEL      128
REMARK 921   NORMALIZED FREE ENERGY PREDICTED BY IDOCK:   -3.42 KCAL/MOL
REMARK 922        TOTAL FREE ENERGY PREDICTED BY IDOCK:   -4.73 KCAL/MOL
REMARK 923 INTER-LIGAND FREE ENERGY PREDICTED BY IDOCK:   -4.38 KCAL/MOL
REMARK 924 INTRA-LIGAND FREE ENERGY PREDICTED BY IDOCK:   -0.34 KCAL/MOL
REMARK 927      BINDING AFFINITY PREDICTED BY RF-SCORE:    0.00 PKD
ROOT
HETATM    1  O   UNL     1     -14.008   8.959  73.330  1.00  0.00    -1.236 OA 
HETATM    2  C   UNL     1     -13.736   8.893  71.927  1.00  0.00    -0.439 C  
HETATM    3  H   UNL     1     -14.949   8.931  73.453  1.00  0.00     0.000 HD 
ENDROOT
BRANCH   2   4
HETATM    4  C   UNL     1     -12.218   8.940  71.729  1.00  0.00    -0.359 C  
HETATM    5  H   UNL     1     -10.671   7.964  72.438  1.00  0.00     0.000 HD 
HETATM    6  O   UNL     1     -11.613   7.935  72.561  1.00  0.00    -0.352 OA 
BRANCH   4   7
HETATM    7  C   UNL     1     -11.780   8.754  70.258  1.00  0.00     0.069 C  
HETATM    8  O   UNL     1     -11.694  10.044  69.624  1.00  0.00    -0.425 OA 
HETATM    9  H   UNL     1     -11.425   9.930  68.720  1.00  0.00     0.000 HD 
BRANCH   7  10
HETATM   10  C   UNL     1     -10.412   8.042  70.104  1.00  0.00    -0.225 C  
HETATM   11  H   UNL     1      -8.487   8.485  70.329  1.00  0.00     0.000 HD 
HETATM   12  O   UNL     1      -9.326   8.921  70.423  1.00  0.00    -0.166 OA 
BRANCH  10  13
HETATM   13  C   UNL     1     -10.201   7.463  68.694  1.00  0.00    -0.191 C  
HETATM   14  H   UNL     1     -10.265   8.142  66.850  1.00  0.00     0.000 HD 
HETATM   15  O   UNL     1     -10.395   8.500  67.720  1.00  0.00    -0.218 OA 
BRANCH  13  16
HETATM   16  C   UNL     1     -11.156   6.286  68.407  1.00  0.00    -0.279 C  
HETATM   17  O   UNL     1     -11.258   6.018  67.007  1.00  0.00    -0.559 OA 
HETATM   18  H   UNL     1     -11.846   5.293  66.830  1.00  0.00     0.000 HD 
ENDBRANCH  13  16
ENDBRANCH  10  13
ENDBRANCH   7  10
ENDBRANCH   4   7
ENDBRANCH   2   4
TORSDOF 5
ENDMDL
MODEL      129
REMARK 921   NORMALIZED FREE ENERGY PREDICTED BY IDOCK:   -3.40 KCAL/MOL
REMARK 922        TOTAL FREE ENERGY PREDICTED BY IDOCK:   -4.71 KCAL/MOL
REMARK 923 INTER-LIGAND FREE ENERGY PREDICTED BY IDOCK:   -4.17 KCAL/MOL
REMARK 924 INTRA-LIGAND FREE ENERGY PREDICTED BY IDOCK:   -0.54 KCAL/MOL
REMARK 927      BINDING AFFINITY PREDICTED BY RF-SCORE:    0.00 PKD
ROOT
HETATM    1  O   UNL     1      -9.943   5.103  73.212  1.00  0.00    -0.154 OA 
HETATM    2  C   UNL     1      -9.499   6.222  72.440  1.00  0.00    -0.144 C  
HETATM    3  H   UNL     1      -9.271   4.896  73.851  1.00  0.00     0.000 HD 
ENDROOT
BRANCH   2   4
HETATM    4  C   UNL     1     -10.582   6.556  71.409  1.00  0.00    -0.228 C  
HETATM    5  H   UNL     1     -11.558   5.573  70.020  1.00  0.00     0.000 HD 
HETATM    6  O   UNL     1     -10.886   5.367  70.659  1.00  0.00    -0.228 OA 
BRANCH   4   7
HETATM    7  C   UNL     1     -11.871   7.141  72.032  1.00  0.00    -0.295 C  
HETATM    8  O   UNL     1     -11.578   7.618  73.359  1.00  0.00    -0.641 OA 
HETATM    9  H   UNL     1     -12.370   7.978  73.742  1.00  0.00     0.000 HD 
BRANCH   7  10
HETATM   10  C   UNL     1     -12.479   8.309  71.216  1.00  0.00    -0.245 C  
HETATM   11  H   UNL     1     -11.896   9.579  69.802  1.00  0.00     0.000 HD 
HETATM   12  O   UNL     1     -11.524   8.862  70.303  1.00  0.00    -0.221 OA 
BRANCH  10  13
HETATM   13  C   UNL     1     -13.037   9.430  72.111  1.00  0.00    -0.442 C  
HETATM   14  H   UNL     1     -14.674   9.736  73.156  1.00  0.00     0.000 HD 
HETATM   15  O   UNL     1     -14.330   9.045  72.603  1.00  0.00    -0.603 OA 
BRANCH  13  16
HETATM   16  C   UNL     1     -13.140  10.771  71.356  1.00  0.00    -0.369 C  
HETATM   17  O   UNL     1     -13.381  11.861  72.248  1.00  0.00    -0.601 OA 
HETATM   18  H   UNL     1     -13.444  12.687  71.783  1.00  0.00     0.000 HD 
ENDBRANCH  13  16
ENDBRANCH  10  13
ENDBRANCH   7  10
ENDBRANCH   4   7
ENDBRANCH   2   4
TORSDOF 5
ENDMDL
MODEL      130
REMARK 921   NORMALIZED FREE ENERGY PREDICTED BY IDOCK:   -3.40 KCAL/MOL
REMARK 922        TOTAL FREE ENERGY PREDICTED BY IDOCK:   -4.70 KCAL/MOL
REMARK 923 INTER-LIGAND FREE ENERGY PREDICTED BY IDOCK:   -4.11 KCAL/MOL
REMARK 924 INTRA-LIGAND FREE ENERGY PREDICTED BY IDOCK:   -0.59 KCAL/MOL
REMARK 927      BINDING AFFINITY PREDICTED BY RF-SCORE:    0.00 PKD
ROOT
HETATM    1  O   UNL     1      -8.987   5.636  68.446  1.00  0.00    -0.115 OA 
HETATM    2  C   UNL     1      -9.584   4.586  69.212  1.00  0.00    -0.188 C  
HETATM    3  H   UNL     1      -8.593   5.252  67.670  1.00  0.00     0.000 HD 
ENDROOT
BRANCH   2   4
HETATM    4  C   UNL     1     -10.218   5.204  70.462  1.00  0.00    -0.260 C  
HETATM    5  H   UNL     1      -9.588   5.770  72.231  1.00  0.00     0.000 HD 
HETATM    6  O   UNL     1      -9.195   5.386  71.456  1.00  0.00    -0.144 OA 
BRANCH   4   7
HETATM    7  C   UNL     1     -10.946   6.541  70.190  1.00  0.00    -0.317 C  
HETATM    8  O   UNL     1     -11.642   6.451  68.932  1.00  0.00    -0.576 OA 
HETATM    9  H   UNL     1     -12.090   7.272  68.765  1.00  0.00     0.000 HD 
BRANCH   7  10
HETATM   10  C   UNL     1     -11.970   6.923  71.289  1.00  0.00    -0.356 C  
HETATM   11  H   UNL     1     -13.883   7.452  71.399  1.00  0.00     0.000 HD 
HETATM   12  O   UNL     1     -13.255   7.217  70.726  1.00  0.00    -0.103 OA 
BRANCH  10  13
HETATM   13  C   UNL     1     -11.504   8.114  72.145  1.00  0.00    -0.350 C  
HETATM   14  H   UNL     1     -10.845   8.379  73.978  1.00  0.00     0.000 HD 
HETATM   15  O   UNL     1     -11.133   7.644  73.450  1.00  0.00    -0.337 OA 
BRANCH  13  16
HETATM   16  C   UNL     1     -12.595   9.198  72.266  1.00  0.00    -0.355 C  
HETATM   17  O   UNL     1     -13.560   8.865  73.264  1.00  0.00    -1.012 OA 
HETATM   18  H   UNL     1     -14.232   9.532  73.339  1.00  0.00     0.000 HD 
ENDBRANCH  13  16
ENDBRANCH  10  13
ENDBRANCH   7  10
ENDBRANCH   4   7
ENDBRANCH   2   4
TORSDOF 5
ENDMDL
MODEL      131
REMARK 921   NORMALIZED FREE ENERGY PREDICTED BY IDOCK:   -3.39 KCAL/MOL
REMARK 922        TOTAL FREE ENERGY PREDICTED BY IDOCK:   -4.70 KCAL/MOL
REMARK 923 INTER-LIGAND FREE ENERGY PREDICTED BY IDOCK:   -4.73 KCAL/MOL
REMARK 924 INTRA-LIGAND FREE ENERGY PREDICTED BY IDOCK:    0.04 KCAL/MOL
REMARK 927      BINDING AFFINITY PREDICTED BY RF-SCORE:    0.00 PKD
ROOT
HETATM    1  O   UNL     1     -10.227  18.801  68.333  1.00  0.00    -0.368 OA 
HETATM    2  C   UNL     1     -10.487  17.864  67.284  1.00  0.00    -0.366 C  
HETATM    3  H   UNL     1     -10.624  19.632  68.097  1.00  0.00     0.000 HD 
ENDROOT
BRANCH   2   4
HETATM    4  C   UNL     1      -9.846  16.527  67.664  1.00  0.00    -0.247 C  
HETATM    5  H   UNL     1      -9.844  15.360  69.242  1.00  0.00     0.000 HD 
HETATM    6  O   UNL     1     -10.241  16.191  69.006  1.00  0.00    -0.222 OA 
BRANCH   4   7
HETATM    7  C   UNL     1     -10.199  15.373  66.696  1.00  0.00    -0.277 C  
HETATM    8  O   UNL     1      -9.097  14.447  66.645  1.00  0.00    -0.272 OA 
HETATM    9  H   UNL     1      -9.313  13.739  66.050  1.00  0.00     0.000 HD 
BRANCH   7  10
HETATM   10  C   UNL     1     -11.475  14.592  67.101  1.00  0.00    -0.368 C  
HETATM   11  H   UNL     1     -11.943  13.003  68.199  1.00  0.00     0.000 HD 
HETATM   12  O   UNL     1     -11.161  13.482  67.951  1.00  0.00    -0.250 OA 
BRANCH  10  13
HETATM   13  C   UNL     1     -12.275  14.094  65.885  1.00  0.00    -0.439 C  
HETATM   14  H   UNL     1     -12.998  12.375  65.263  1.00  0.00     0.000 HD 
HETATM   15  O   UNL     1     -12.504  12.682  66.013  1.00  0.00    -0.555 OA 
BRANCH  13  16
HETATM   16  C   UNL     1     -11.548  14.391  64.558  1.00  0.00    -0.384 C  
HETATM   17  O   UNL     1     -12.202  15.422  63.817  1.00  0.00    -0.984 OA 
HETATM   18  H   UNL     1     -11.754  15.605  62.999  1.00  0.00     0.000 HD 
ENDBRANCH  13  16
ENDBRANCH  10  13
ENDBRANCH   7  10
ENDBRANCH   4   7
ENDBRANCH   2   4
TORSDOF 5
ENDMDL
MODEL      132
REMARK 921   NORMALIZED FREE ENERGY PREDICTED BY IDOCK:   -3.39 KCAL/MOL
REMARK 922        TOTAL FREE ENERGY PREDICTED BY IDOCK:   -4.69 KCAL/MOL
REMARK 923 INTER-LIGAND FREE ENERGY PREDICTED BY IDOCK:   -4.24 KCAL/MOL
REMARK 924 INTRA-LIGAND FREE ENERGY PREDICTED BY IDOCK:   -0.45 KCAL/MOL
REMARK 927      BINDING AFFINITY PREDICTED BY RF-SCORE:    0.00 PKD
ROOT
HETATM    1  O   UNL     1     -10.015   6.484  68.252  1.00  0.00    -0.136 OA 
HETATM    2  C   UNL     1     -10.652   7.301  69.238  1.00  0.00    -0.221 C  
HETATM    3  H   UNL     1      -9.475   7.043  67.704  1.00  0.00     0.000 HD 
ENDROOT
BRANCH   2   4
HETATM    4  C   UNL     1     -11.522   6.400  70.120  1.00  0.00    -0.417 C  
HETATM    5  H   UNL     1     -11.216   4.871  71.311  1.00  0.00     0.000 HD 
HETATM    6  O   UNL     1     -10.676   5.430  70.764  1.00  0.00    -0.248 OA 
BRANCH   4   7
HETATM    7  C   UNL     1     -12.348   7.174  71.172  1.00  0.00    -0.364 C  
HETATM    8  O   UNL     1     -12.719   6.275  72.235  1.00  0.00    -0.537 OA 
HETATM    9  H   UNL     1     -13.227   6.751  72.882  1.00  0.00     0.000 HD 
BRANCH   7  10
HETATM   10  C   UNL     1     -11.591   8.377  71.792  1.00  0.00    -0.308 C  
HETATM   11  H   UNL     1     -10.449   8.740  73.377  1.00  0.00     0.000 HD 
HETATM   12  O   UNL     1     -10.913   8.003  72.997  1.00  0.00    -0.374 OA 
BRANCH  10  13
HETATM   13  C   UNL     1     -12.514   9.575  72.076  1.00  0.00    -0.349 C  
HETATM   14  H   UNL     1     -14.369   9.834  72.674  1.00  0.00     0.000 HD 
HETATM   15  O   UNL     1     -13.799   9.094  72.499  1.00  0.00    -0.475 OA 
BRANCH  13  16
HETATM   16  C   UNL     1     -12.674  10.484  70.840  1.00  0.00    -0.402 C  
HETATM   17  O   UNL     1     -11.433  11.082  70.462  1.00  0.00    -0.410 OA 
HETATM   18  H   UNL     1     -11.531  11.642  69.700  1.00  0.00     0.000 HD 
ENDBRANCH  13  16
ENDBRANCH  10  13
ENDBRANCH   7  10
ENDBRANCH   4   7
ENDBRANCH   2   4
TORSDOF 5
ENDMDL
MODEL      133
REMARK 921   NORMALIZED FREE ENERGY PREDICTED BY IDOCK:   -3.39 KCAL/MOL
REMARK 922        TOTAL FREE ENERGY PREDICTED BY IDOCK:   -4.69 KCAL/MOL
REMARK 923 INTER-LIGAND FREE ENERGY PREDICTED BY IDOCK:   -4.36 KCAL/MOL
REMARK 924 INTRA-LIGAND FREE ENERGY PREDICTED BY IDOCK:   -0.33 KCAL/MOL
REMARK 927      BINDING AFFINITY PREDICTED BY RF-SCORE:    0.00 PKD
ROOT
HETATM    1  O   UNL     1      -9.418  10.328  68.161  1.00  0.00    -0.144 OA 
HETATM    2  C   UNL     1      -8.413  11.151  67.562  1.00  0.00    -0.126 C  
HETATM    3  H   UNL     1      -9.003   9.782  68.819  1.00  0.00     0.000 HD 
ENDROOT
BRANCH   2   4
HETATM    4  C   UNL     1      -9.081  12.031  66.502  1.00  0.00    -0.202 C  
HETATM    5  H   UNL     1     -10.090  11.728  64.847  1.00  0.00     0.000 HD 
HETATM    6  O   UNL     1      -9.675  11.181  65.505  1.00  0.00    -0.208 OA 
BRANCH   4   7
HETATM    7  C   UNL     1     -10.139  13.001  67.080  1.00  0.00    -0.243 C  
HETATM    8  O   UNL     1     -10.013  13.035  68.514  1.00  0.00    -0.279 OA 
HETATM    9  H   UNL     1     -10.662  13.631  68.869  1.00  0.00     0.000 HD 
BRANCH   7  10
HETATM   10  C   UNL     1     -10.011  14.449  66.543  1.00  0.00    -0.283 C  
HETATM   11  H   UNL     1      -9.967  16.294  67.280  1.00  0.00     0.000 HD 
HETATM   12  O   UNL     1     -10.045  15.406  67.608  1.00  0.00    -0.233 OA 
BRANCH  10  13
HETATM   13  C   UNL     1     -11.097  14.796  65.510  1.00  0.00    -0.346 C  
HETATM   14  H   UNL     1     -11.628  14.153  63.729  1.00  0.00     0.000 HD 
HETATM   15  O   UNL     1     -10.957  13.939  64.367  1.00  0.00    -0.382 OA 
BRANCH  13  16
HETATM   16  C   UNL     1     -11.024  16.273  65.072  1.00  0.00    -0.298 C  
HETATM   17  O   UNL     1     -11.609  16.472  63.784  1.00  0.00    -1.617 OA 
HETATM   18  H   UNL     1     -11.564  17.381  63.515  1.00  0.00     0.000 HD 
ENDBRANCH  13  16
ENDBRANCH  10  13
ENDBRANCH   7  10
ENDBRANCH   4   7
ENDBRANCH   2   4
TORSDOF 5
ENDMDL
MODEL      134
REMARK 921   NORMALIZED FREE ENERGY PREDICTED BY IDOCK:   -3.37 KCAL/MOL
REMARK 922        TOTAL FREE ENERGY PREDICTED BY IDOCK:   -4.67 KCAL/MOL
REMARK 923 INTER-LIGAND FREE ENERGY PREDICTED BY IDOCK:   -4.12 KCAL/MOL
REMARK 924 INTRA-LIGAND FREE ENERGY PREDICTED BY IDOCK:   -0.55 KCAL/MOL
REMARK 927      BINDING AFFINITY PREDICTED BY RF-SCORE:    0.00 PKD
ROOT
HETATM    1  O   UNL     1     -10.136  14.051  64.319  1.00  0.00    -0.697 OA 
HETATM    2  C   UNL     1     -11.151  14.080  65.326  1.00  0.00    -0.325 C  
HETATM    3  H   UNL     1     -10.558  13.971  63.472  1.00  0.00     0.000 HD 
ENDROOT
BRANCH   2   4
HETATM    4  C   UNL     1     -10.471  14.209  66.692  1.00  0.00    -0.278 C  
HETATM    5  H   UNL     1     -10.889  15.075  68.402  1.00  0.00     0.000 HD 
HETATM    6  O   UNL     1     -11.311  14.995  67.555  1.00  0.00    -0.322 OA 
BRANCH   4   7
HETATM    7  C   UNL     1     -10.148  12.849  67.353  1.00  0.00    -0.223 C  
HETATM    8  O   UNL     1     -10.421  12.934  68.765  1.00  0.00    -0.330 OA 
HETATM    9  H   UNL     1     -10.222  12.098  69.172  1.00  0.00     0.000 HD 
BRANCH   7  10
HETATM   10  C   UNL     1     -10.961  11.666  66.769  1.00  0.00    -0.290 C  
HETATM   11  H   UNL     1     -12.549  10.581  67.270  1.00  0.00     0.000 HD 
HETATM   12  O   UNL     1     -12.050  11.306  67.628  1.00  0.00    -0.600 OA 
BRANCH  10  13
HETATM   13  C   UNL     1     -10.092  10.425  66.499  1.00  0.00    -0.228 C  
HETATM   14  H   UNL     1      -8.539   9.563  67.341  1.00  0.00     0.000 HD 
HETATM   15  O   UNL     1      -9.075  10.329  67.508  1.00  0.00    -0.137 OA 
BRANCH  13  16
HETATM   16  C   UNL     1      -9.443  10.472  65.100  1.00  0.00    -0.233 C  
HETATM   17  O   UNL     1     -10.413  10.694  64.075  1.00  0.00    -0.453 OA 
HETATM   18  H   UNL     1     -10.013  10.723  63.214  1.00  0.00     0.000 HD 
ENDBRANCH  13  16
ENDBRANCH  10  13
ENDBRANCH   7  10
ENDBRANCH   4   7
ENDBRANCH   2   4
TORSDOF 5
ENDMDL
MODEL      135
REMARK 921   NORMALIZED FREE ENERGY PREDICTED BY IDOCK:   -3.37 KCAL/MOL
REMARK 922        TOTAL FREE ENERGY PREDICTED BY IDOCK:   -4.66 KCAL/MOL
REMARK 923 INTER-LIGAND FREE ENERGY PREDICTED BY IDOCK:   -4.34 KCAL/MOL
REMARK 924 INTRA-LIGAND FREE ENERGY PREDICTED BY IDOCK:   -0.32 KCAL/MOL
REMARK 927      BINDING AFFINITY PREDICTED BY RF-SCORE:    0.00 PKD
ROOT
HETATM    1  O   UNL     1     -11.264  13.953  64.021  1.00  0.00    -0.588 OA 
HETATM    2  C   UNL     1     -11.874  14.737  65.050  1.00  0.00    -0.343 C  
HETATM    3  H   UNL     1     -10.988  14.538  63.325  1.00  0.00     0.000 HD 
ENDROOT
BRANCH   2   4
HETATM    4  C   UNL     1     -12.320  13.795  66.172  1.00  0.00    -0.452 C  
HETATM    5  H   UNL     1     -12.519  11.856  66.391  1.00  0.00     0.000 HD 
HETATM    6  O   UNL     1     -12.243  12.440  65.695  1.00  0.00    -0.599 OA 
BRANCH   4   7
HETATM    7  C   UNL     1     -11.501  13.952  67.475  1.00  0.00    -0.340 C  
HETATM    8  O   UNL     1     -11.339  15.354  67.763  1.00  0.00    -0.328 OA 
HETATM    9  H   UNL     1     -10.836  15.451  68.563  1.00  0.00     0.000 HD 
BRANCH   7  10
HETATM   10  C   UNL     1     -12.156  13.273  68.705  1.00  0.00    -0.222 C  
HETATM   11  H   UNL     1     -12.870  13.813  70.479  1.00  0.00     0.000 HD 
HETATM   12  O   UNL     1     -12.469  14.229  69.725  1.00  0.00    -0.323 OA 
BRANCH  10  13
HETATM   13  C   UNL     1     -11.280  12.158  69.301  1.00  0.00    -0.226 C  
HETATM   14  H   UNL     1      -9.812  11.009  68.674  1.00  0.00     0.000 HD 
HETATM   15  O   UNL     1     -10.353  11.698  68.306  1.00  0.00    -0.186 OA 
BRANCH  13  16
HETATM   16  C   UNL     1     -12.127  10.976  69.818  1.00  0.00    -0.353 C  
HETATM   17  O   UNL     1     -12.722  11.267  71.083  1.00  0.00    -0.384 OA 
HETATM   18  H   UNL     1     -13.244  10.540  71.401  1.00  0.00     0.000 HD 
ENDBRANCH  13  16
ENDBRANCH  10  13
ENDBRANCH   7  10
ENDBRANCH   4   7
ENDBRANCH   2   4
TORSDOF 5
ENDMDL
MODEL      136
REMARK 921   NORMALIZED FREE ENERGY PREDICTED BY IDOCK:   -3.37 KCAL/MOL
REMARK 922        TOTAL FREE ENERGY PREDICTED BY IDOCK:   -4.66 KCAL/MOL
REMARK 923 INTER-LIGAND FREE ENERGY PREDICTED BY IDOCK:   -4.11 KCAL/MOL
REMARK 924 INTRA-LIGAND FREE ENERGY PREDICTED BY IDOCK:   -0.55 KCAL/MOL
REMARK 927      BINDING AFFINITY PREDICTED BY RF-SCORE:    0.00 PKD
ROOT
HETATM    1  O   UNL     1     -11.101   6.504  68.497  1.00  0.00    -0.421 OA 
HETATM    2  C   UNL     1     -10.251   7.607  68.173  1.00  0.00    -0.196 C  
HETATM    3  H   UNL     1     -11.431   6.133  67.687  1.00  0.00     0.000 HD 
ENDROOT
BRANCH   2   4
HETATM    4  C   UNL     1      -9.721   8.205  69.480  1.00  0.00    -0.170 C  
HETATM    5  H   UNL     1      -9.967   9.883  70.467  1.00  0.00     0.000 HD 
HETATM    6  O   UNL     1     -10.296   9.512  69.656  1.00  0.00    -0.196 OA 
BRANCH   4   7
HETATM    7  C   UNL     1      -9.998   7.325  70.721  1.00  0.00    -0.186 C  
HETATM    8  O   UNL     1      -8.749   6.820  71.229  1.00  0.00    -0.128 OA 
HETATM    9  H   UNL     1      -8.919   6.279  71.992  1.00  0.00     0.000 HD 
BRANCH   7  10
HETATM   10  C   UNL     1     -10.722   8.079  71.866  1.00  0.00    -0.251 C  
HETATM   11  H   UNL     1     -10.505   8.343  73.824  1.00  0.00     0.000 HD 
HETATM   12  O   UNL     1     -10.061   7.881  73.121  1.00  0.00    -0.297 OA 
BRANCH  10  13
HETATM   13  C   UNL     1     -12.201   7.674  71.998  1.00  0.00    -0.293 C  
HETATM   14  H   UNL     1     -13.495   6.637  70.942  1.00  0.00     0.000 HD 
HETATM   15  O   UNL     1     -12.582   6.887  70.860  1.00  0.00    -0.357 OA 
BRANCH  13  16
HETATM   16  C   UNL     1     -13.125   8.904  72.120  1.00  0.00    -0.421 C  
HETATM   17  O   UNL     1     -13.801   8.933  73.378  1.00  0.00    -1.192 OA 
HETATM   18  H   UNL     1     -14.370   9.690  73.453  1.00  0.00     0.000 HD 
ENDBRANCH  13  16
ENDBRANCH  10  13
ENDBRANCH   7  10
ENDBRANCH   4   7
ENDBRANCH   2   4
TORSDOF 5
ENDMDL
MODEL      137
REMARK 921   NORMALIZED FREE ENERGY PREDICTED BY IDOCK:   -3.36 KCAL/MOL
REMARK 922        TOTAL FREE ENERGY PREDICTED BY IDOCK:   -4.65 KCAL/MOL
REMARK 923 INTER-LIGAND FREE ENERGY PREDICTED BY IDOCK:   -4.19 KCAL/MOL
REMARK 924 INTRA-LIGAND FREE ENERGY PREDICTED BY IDOCK:   -0.46 KCAL/MOL
REMARK 927      BINDING AFFINITY PREDICTED BY RF-SCORE:    0.00 PKD
ROOT
HETATM    1  O   UNL     1     -13.303   9.903  70.460  1.00  0.00    -0.620 OA 
HETATM    2  C   UNL     1     -12.347   9.920  71.524  1.00  0.00    -0.412 C  
HETATM    3  H   UNL     1     -13.166  10.675  69.923  1.00  0.00     0.000 HD 
ENDROOT
BRANCH   2   4
HETATM    4  C   UNL     1     -12.568   8.676  72.389  1.00  0.00    -0.362 C  
HETATM    5  H   UNL     1     -13.809   7.156  72.384  1.00  0.00     0.000 HD 
HETATM    6  O   UNL     1     -13.672   7.928  71.847  1.00  0.00    -0.336 OA 
BRANCH   4   7
HETATM    7  C   UNL     1     -11.317   7.775  72.509  1.00  0.00    -0.374 C  
HETATM    8  O   UNL     1     -11.032   7.547  73.903  1.00  0.00    -0.528 OA 
HETATM    9  H   UNL     1     -10.263   6.994  73.977  1.00  0.00     0.000 HD 
BRANCH   7  10
HETATM   10  C   UNL     1     -11.474   6.400  71.812  1.00  0.00    -0.300 C  
HETATM   11  H   UNL     1     -11.154   4.486  72.241  1.00  0.00     0.000 HD 
HETATM   12  O   UNL     1     -11.058   5.329  72.668  1.00  0.00    -0.251 OA 
BRANCH  10  13
HETATM   13  C   UNL     1     -10.704   6.318  70.482  1.00  0.00    -0.269 C  
HETATM   14  H   UNL     1     -11.159   6.322  68.569  1.00  0.00     0.000 HD 
HETATM   15  O   UNL     1     -11.635   6.372  69.390  1.00  0.00    -0.382 OA 
BRANCH  13  16
HETATM   16  C   UNL     1      -9.855   5.034  70.387  1.00  0.00    -0.230 C  
HETATM   17  O   UNL     1      -8.666   5.128  71.173  1.00  0.00    -0.125 OA 
HETATM   18  H   UNL     1      -8.143   4.337  71.115  1.00  0.00     0.000 HD 
ENDBRANCH  13  16
ENDBRANCH  10  13
ENDBRANCH   7  10
ENDBRANCH   4   7
ENDBRANCH   2   4
TORSDOF 5
ENDMDL
MODEL      138
REMARK 921   NORMALIZED FREE ENERGY PREDICTED BY IDOCK:   -3.35 KCAL/MOL
REMARK 922        TOTAL FREE ENERGY PREDICTED BY IDOCK:   -4.64 KCAL/MOL
REMARK 923 INTER-LIGAND FREE ENERGY PREDICTED BY IDOCK:   -4.29 KCAL/MOL
REMARK 924 INTRA-LIGAND FREE ENERGY PREDICTED BY IDOCK:   -0.35 KCAL/MOL
REMARK 927      BINDING AFFINITY PREDICTED BY RF-SCORE:    0.00 PKD
ROOT
HETATM    1  O   UNL     1     -12.033  15.944  63.605  1.00  0.00    -1.239 OA 
HETATM    2  C   UNL     1     -12.015  15.025  64.701  1.00  0.00    -0.358 C  
HETATM    3  H   UNL     1     -12.937  16.091  63.354  1.00  0.00     0.000 HD 
ENDROOT
BRANCH   2   4
HETATM    4  C   UNL     1     -10.557  14.788  65.106  1.00  0.00    -0.417 C  
HETATM    5  H   UNL     1      -9.011  15.915  65.538  1.00  0.00     0.000 HD 
HETATM    6  O   UNL     1      -9.915  16.062  65.286  1.00  0.00    -0.458 OA 
BRANCH   4   7
HETATM    7  C   UNL     1     -10.400  13.923  66.378  1.00  0.00    -0.289 C  
HETATM    8  O   UNL     1     -11.661  13.875  67.074  1.00  0.00    -0.353 OA 
HETATM    9  H   UNL     1     -11.565  13.344  67.856  1.00  0.00     0.000 HD 
BRANCH   7  10
HETATM   10  C   UNL     1      -9.947  12.470  66.088  1.00  0.00    -0.255 C  
HETATM   11  H   UNL     1     -10.724  10.810  65.320  1.00  0.00     0.000 HD 
HETATM   12  O   UNL     1     -11.002  11.701  65.497  1.00  0.00    -0.297 OA 
BRANCH  10  13
HETATM   13  C   UNL     1      -9.433  11.748  67.346  1.00  0.00    -0.173 C  
HETATM   14  H   UNL     1      -9.010  12.244  69.201  1.00  0.00     0.000 HD 
HETATM   15  O   UNL     1      -9.327  12.690  68.425  1.00  0.00    -0.205 OA 
BRANCH  13  16
HETATM   16  C   UNL     1      -8.068  11.071  67.103  1.00  0.00    -0.134 C  
HETATM   17  O   UNL     1      -8.072   9.707  67.529  1.00  0.00    -0.112 OA 
HETATM   18  H   UNL     1      -7.232   9.290  67.379  1.00  0.00     0.000 HD 
ENDBRANCH  13  16
ENDBRANCH  10  13
ENDBRANCH   7  10
ENDBRANCH   4   7
ENDBRANCH   2   4
TORSDOF 5
ENDMDL
MODEL      139
REMARK 921   NORMALIZED FREE ENERGY PREDICTED BY IDOCK:   -3.35 KCAL/MOL
REMARK 922        TOTAL FREE ENERGY PREDICTED BY IDOCK:   -4.64 KCAL/MOL
REMARK 923 INTER-LIGAND FREE ENERGY PREDICTED BY IDOCK:   -3.37 KCAL/MOL
REMARK 924 INTRA-LIGAND FREE ENERGY PREDICTED BY IDOCK:   -1.27 KCAL/MOL
REMARK 927      BINDING AFFINITY PREDICTED BY RF-SCORE:    0.00 PKD
ROOT
HETATM    1  O   UNL     1     -10.625   9.266  71.087  1.00  0.00    -0.279 OA 
HETATM    2  C   UNL     1     -11.196   8.235  71.898  1.00  0.00    -0.300 C  
HETATM    3  H   UNL     1     -11.099  10.072  71.252  1.00  0.00     0.000 HD 
ENDROOT
BRANCH   2   4
HETATM    4  C   UNL     1     -10.432   6.935  71.631  1.00  0.00    -0.204 C  
HETATM    5  H   UNL     1     -10.134   5.250  72.592  1.00  0.00     0.000 HD 
HETATM    6  O   UNL     1     -10.607   6.057  72.758  1.00  0.00    -0.203 OA 
BRANCH   4   7
HETATM    7  C   UNL     1     -10.857   6.224  70.326  1.00  0.00    -0.304 C  
HETATM    8  O   UNL     1     -12.155   6.705  69.928  1.00  0.00    -0.641 OA 
HETATM    9  H   UNL     1     -12.417   6.268  69.126  1.00  0.00     0.000 HD 
BRANCH   7  10
HETATM   10  C   UNL     1      -9.872   6.446  69.149  1.00  0.00    -0.140 C  
HETATM   11  H   UNL     1      -8.327   7.620  68.725  1.00  0.00     0.000 HD 
HETATM   12  O   UNL     1      -8.930   7.484  69.446  1.00  0.00    -0.140 OA 
BRANCH  10  13
HETATM   13  C   UNL     1     -10.592   6.771  67.829  1.00  0.00    -0.249 C  
HETATM   14  H   UNL     1     -10.540   6.110  65.978  1.00  0.00     0.000 HD 
HETATM   15  O   UNL     1     -10.096   5.909  66.793  1.00  0.00    -0.160 OA 
BRANCH  13  16
HETATM   16  C   UNL     1     -10.404   8.246  67.420  1.00  0.00    -0.280 C  
HETATM   17  O   UNL     1     -11.173   9.124  68.243  1.00  0.00    -0.471 OA 
HETATM   18  H   UNL     1     -11.058  10.033  67.991  1.00  0.00     0.000 HD 
ENDBRANCH  13  16
ENDBRANCH  10  13
ENDBRANCH   7  10
ENDBRANCH   4   7
ENDBRANCH   2   4
TORSDOF 5
ENDMDL
MODEL      140
REMARK 921   NORMALIZED FREE ENERGY PREDICTED BY IDOCK:   -3.35 KCAL/MOL
REMARK 922        TOTAL FREE ENERGY PREDICTED BY IDOCK:   -4.64 KCAL/MOL
REMARK 923 INTER-LIGAND FREE ENERGY PREDICTED BY IDOCK:   -4.22 KCAL/MOL
REMARK 924 INTRA-LIGAND FREE ENERGY PREDICTED BY IDOCK:   -0.42 KCAL/MOL
REMARK 927      BINDING AFFINITY PREDICTED BY RF-SCORE:    0.00 PKD
ROOT
HETATM    1  O   UNL     1     -12.521  10.655  68.830  1.00  0.00    -0.795 OA 
HETATM    2  C   UNL     1     -11.793  11.147  69.959  1.00  0.00    -0.361 C  
HETATM    3  H   UNL     1     -12.468  11.301  68.135  1.00  0.00     0.000 HD 
ENDROOT
BRANCH   2   4
HETATM    4  C   UNL     1     -11.880  10.105  71.078  1.00  0.00    -0.383 C  
HETATM    5  H   UNL     1     -13.312   9.094  71.957  1.00  0.00     0.000 HD 
HETATM    6  O   UNL     1     -13.259   9.741  71.263  1.00  0.00    -0.372 OA 
BRANCH   4   7
HETATM    7  C   UNL     1     -11.022   8.845  70.817  1.00  0.00    -0.253 C  
HETATM    8  O   UNL     1      -9.937   9.187  69.934  1.00  0.00    -0.180 OA 
HETATM    9  H   UNL     1      -9.411   8.413  69.773  1.00  0.00     0.000 HD 
BRANCH   7  10
HETATM   10  C   UNL     1     -10.426   8.224  72.106  1.00  0.00    -0.301 C  
HETATM   11  H   UNL     1      -8.783   8.413  73.208  1.00  0.00     0.000 HD 
HETATM   12  O   UNL     1      -9.149   8.794  72.418  1.00  0.00    -0.366 OA 
BRANCH  10  13
HETATM   13  C   UNL     1     -10.293   6.693  72.019  1.00  0.00    -0.197 C  
HETATM   14  H   UNL     1      -9.751   5.385  70.655  1.00  0.00     0.000 HD 
HETATM   15  O   UNL     1      -9.833   6.330  70.709  1.00  0.00    -0.181 OA 
BRANCH  13  16
HETATM   16  C   UNL     1     -11.628   5.982  72.323  1.00  0.00    -0.307 C  
HETATM   17  O   UNL     1     -12.732   6.888  72.271  1.00  0.00    -0.525 OA 
HETATM   18  H   UNL     1     -13.554   6.451  72.457  1.00  0.00     0.000 HD 
ENDBRANCH  13  16
ENDBRANCH  10  13
ENDBRANCH   7  10
ENDBRANCH   4   7
ENDBRANCH   2   4
TORSDOF 5
ENDMDL
MODEL      141
REMARK 921   NORMALIZED FREE ENERGY PREDICTED BY IDOCK:   -3.34 KCAL/MOL
REMARK 922        TOTAL FREE ENERGY PREDICTED BY IDOCK:   -4.63 KCAL/MOL
REMARK 923 INTER-LIGAND FREE ENERGY PREDICTED BY IDOCK:   -4.03 KCAL/MOL
REMARK 924 INTRA-LIGAND FREE ENERGY PREDICTED BY IDOCK:   -0.60 KCAL/MOL
REMARK 927      BINDING AFFINITY PREDICTED BY RF-SCORE:    0.00 PKD
ROOT
HETATM    1  O   UNL     1     -10.748  16.109  68.781  1.00  0.00    -0.259 OA 
HETATM    2  C   UNL     1     -10.477  16.732  67.523  1.00  0.00    -0.319 C  
HETATM    3  H   UNL     1     -10.261  16.571  69.454  1.00  0.00     0.000 HD 
ENDROOT
BRANCH   2   4
HETATM    4  C   UNL     1     -11.262  15.988  66.439  1.00  0.00     0.158 C  
HETATM    5  H   UNL     1     -11.033  15.631  64.524  1.00  0.00     0.000 HD 
HETATM    6  O   UNL     1     -10.546  16.093  65.196  1.00  0.00    -0.538 OA 
BRANCH   4   7
HETATM    7  C   UNL     1     -11.533  14.504  66.779  1.00  0.00    -0.367 C  
HETATM    8  O   UNL     1     -12.735  14.412  67.568  1.00  0.00    -0.358 OA 
HETATM    9  H   UNL     1     -12.900  13.501  67.777  1.00  0.00     0.000 HD 
BRANCH   7  10
HETATM   10  C   UNL     1     -11.699  13.602  65.529  1.00  0.00    -0.337 C  
HETATM   11  H   UNL     1     -13.143  13.091  64.263  1.00  0.00     0.000 HD 
HETATM   12  O   UNL     1     -13.041  13.644  65.030  1.00  0.00    -0.742 OA 
BRANCH  10  13
HETATM   13  C   UNL     1     -11.298  12.141  65.796  1.00  0.00    -0.354 C  
HETATM   14  H   UNL     1     -11.853  10.714  67.030  1.00  0.00     0.000 HD 
HETATM   15  O   UNL     1     -12.100  11.616  66.866  1.00  0.00    -0.512 OA 
BRANCH  13  16
HETATM   16  C   UNL     1      -9.802  12.010  66.148  1.00  0.00    -0.235 C  
HETATM   17  O   UNL     1      -9.375  10.647  66.136  1.00  0.00    -0.167 OA 
HETATM   18  H   UNL     1      -8.453  10.566  66.352  1.00  0.00     0.000 HD 
ENDBRANCH  13  16
ENDBRANCH  10  13
ENDBRANCH   7  10
ENDBRANCH   4   7
ENDBRANCH   2   4
TORSDOF 5
ENDMDL
MODEL      142
REMARK 921   NORMALIZED FREE ENERGY PREDICTED BY IDOCK:   -3.34 KCAL/MOL
REMARK 922        TOTAL FREE ENERGY PREDICTED BY IDOCK:   -4.63 KCAL/MOL
REMARK 923 INTER-LIGAND FREE ENERGY PREDICTED BY IDOCK:   -4.89 KCAL/MOL
REMARK 924 INTRA-LIGAND FREE ENERGY PREDICTED BY IDOCK:    0.26 KCAL/MOL
REMARK 927      BINDING AFFINITY PREDICTED BY RF-SCORE:    0.00 PKD
ROOT
HETATM    1  O   UNL     1     -12.072  15.982  63.732  1.00  0.00    -1.318 OA 
HETATM    2  C   UNL     1     -12.204  14.735  64.421  1.00  0.00    -0.428 C  
HETATM    3  H   UNL     1     -12.942  16.313  63.543  1.00  0.00     0.000 HD 
ENDROOT
BRANCH   2   4
HETATM    4  C   UNL     1     -10.801  14.202  64.725  1.00  0.00    -0.413 C  
HETATM    5  H   UNL     1      -9.198  14.883  65.627  1.00  0.00     0.000 HD 
HETATM    6  O   UNL     1     -10.068  15.214  65.438  1.00  0.00    -0.339 OA 
BRANCH   4   7
HETATM    7  C   UNL     1     -10.801  12.877  65.522  1.00  0.00    -0.274 C  
HETATM    8  O   UNL     1      -9.440  12.481  65.778  1.00  0.00    -0.408 OA 
HETATM    9  H   UNL     1      -9.440  11.667  66.268  1.00  0.00     0.000 HD 
BRANCH   7  10
HETATM   10  C   UNL     1     -11.547  12.969  66.877  1.00  0.00    -0.366 C  
HETATM   11  H   UNL     1     -12.825  14.197  67.775  1.00  0.00     0.000 HD 
HETATM   12  O   UNL     1     -12.368  14.141  66.944  1.00  0.00    -0.419 OA 
BRANCH  10  13
HETATM   13  C   UNL     1     -10.590  12.946  68.082  1.00  0.00    -0.237 C  
HETATM   14  H   UNL     1     -10.339  11.832  69.682  1.00  0.00     0.000 HD 
HETATM   15  O   UNL     1     -10.930  11.845  68.938  1.00  0.00    -0.222 OA 
BRANCH  13  16
HETATM   16  C   UNL     1     -10.638  14.267  68.879  1.00  0.00    -0.245 C  
HETATM   17  O   UNL     1     -10.000  15.332  68.173  1.00  0.00    -0.218 OA 
HETATM   18  H   UNL     1     -10.030  16.145  68.663  1.00  0.00     0.000 HD 
ENDBRANCH  13  16
ENDBRANCH  10  13
ENDBRANCH   7  10
ENDBRANCH   4   7
ENDBRANCH   2   4
TORSDOF 5
ENDMDL
MODEL      143
REMARK 921   NORMALIZED FREE ENERGY PREDICTED BY IDOCK:   -3.34 KCAL/MOL
REMARK 922        TOTAL FREE ENERGY PREDICTED BY IDOCK:   -4.62 KCAL/MOL
REMARK 923 INTER-LIGAND FREE ENERGY PREDICTED BY IDOCK:   -4.37 KCAL/MOL
REMARK 924 INTRA-LIGAND FREE ENERGY PREDICTED BY IDOCK:   -0.25 KCAL/MOL
REMARK 927      BINDING AFFINITY PREDICTED BY RF-SCORE:    0.00 PKD
ROOT
HETATM    1  O   UNL     1      -9.599  12.602  64.472  1.00  0.00    -0.513 OA 
HETATM    2  C   UNL     1     -10.858  12.325  65.091  1.00  0.00    -0.301 C  
HETATM    3  H   UNL     1      -8.982  11.928  64.734  1.00  0.00     0.000 HD 
ENDROOT
BRANCH   2   4
HETATM    4  C   UNL     1     -11.851  13.412  64.668  1.00  0.00    -0.391 C  
HETATM    5  H   UNL     1     -13.723  13.463  64.083  1.00  0.00     0.000 HD 
HETATM    6  O   UNL     1     -13.107  12.789  64.345  1.00  0.00    -0.724 OA 
BRANCH   4   7
HETATM    7  C   UNL     1     -12.057  14.512  65.736  1.00  0.00    -0.279 C  
HETATM    8  O   UNL     1     -12.921  14.007  66.772  1.00  0.00    -0.299 OA 
HETATM    9  H   UNL     1     -13.048  14.683  67.427  1.00  0.00     0.000 HD 
BRANCH   7  10
HETATM   10  C   UNL     1     -10.738  14.994  66.392  1.00  0.00    -0.322 C  
HETATM   11  H   UNL     1      -9.775  14.751  68.113  1.00  0.00     0.000 HD 
HETATM   12  O   UNL     1     -10.583  14.456  67.710  1.00  0.00    -0.244 OA 
BRANCH  10  13
HETATM   13  C   UNL     1     -10.632  16.528  66.450  1.00  0.00    -0.221 C  
HETATM   14  H   UNL     1     -10.453  17.994  65.153  1.00  0.00     0.000 HD 
HETATM   15  O   UNL     1     -10.518  17.047  65.117  1.00  0.00    -0.667 OA 
BRANCH  13  16
HETATM   16  C   UNL     1      -9.430  16.989  67.299  1.00  0.00    -0.240 C  
HETATM   17  O   UNL     1      -8.247  16.254  66.982  1.00  0.00    -0.169 OA 
HETATM   18  H   UNL     1      -7.506  16.538  67.504  1.00  0.00     0.000 HD 
ENDBRANCH  13  16
ENDBRANCH  10  13
ENDBRANCH   7  10
ENDBRANCH   4   7
ENDBRANCH   2   4
TORSDOF 5
ENDMDL
MODEL      144
REMARK 921   NORMALIZED FREE ENERGY PREDICTED BY IDOCK:   -3.33 KCAL/MOL
REMARK 922        TOTAL FREE ENERGY PREDICTED BY IDOCK:   -4.62 KCAL/MOL
REMARK 923 INTER-LIGAND FREE ENERGY PREDICTED BY IDOCK:   -4.01 KCAL/MOL
REMARK 924 INTRA-LIGAND FREE ENERGY PREDICTED BY IDOCK:   -0.61 KCAL/MOL
REMARK 927      BINDING AFFINITY PREDICTED BY RF-SCORE:    0.00 PKD
ROOT
HETATM    1  O   UNL     1     -10.245   8.988  68.781  1.00  0.00    -0.197 OA 
HETATM    2  C   UNL     1      -9.925  10.307  69.231  1.00  0.00    -0.227 C  
HETATM    3  H   UNL     1     -10.182   8.396  69.521  1.00  0.00     0.000 HD 
ENDROOT
BRANCH   2   4
HETATM    4  C   UNL     1     -10.028  11.261  68.037  1.00  0.00    -0.179 C  
HETATM    5  H   UNL     1      -9.391  11.273  66.182  1.00  0.00     0.000 HD 
HETATM    6  O   UNL     1      -9.327  10.682  66.923  1.00  0.00    -0.157 OA 
BRANCH   4   7
HETATM    7  C   UNL     1     -11.483  11.599  67.638  1.00  0.00    -0.303 C  
HETATM    8  O   UNL     1     -12.383  10.744  68.370  1.00  0.00    -0.813 OA 
HETATM    9  H   UNL     1     -13.278  10.951  68.124  1.00  0.00     0.000 HD 
BRANCH   7  10
HETATM   10  C   UNL     1     -11.876  13.072  67.914  1.00  0.00    -0.343 C  
HETATM   11  H   UNL     1     -11.575  14.856  67.091  1.00  0.00     0.000 HD 
HETATM   12  O   UNL     1     -11.334  13.952  66.922  1.00  0.00    -0.306 OA 
BRANCH  10  13
HETATM   13  C   UNL     1     -11.442  13.549  69.311  1.00  0.00    -0.291 C  
HETATM   14  H   UNL     1     -12.069  13.305  71.158  1.00  0.00     0.000 HD 
HETATM   15  O   UNL     1     -12.337  13.011  70.296  1.00  0.00    -0.310 OA 
BRANCH  13  16
HETATM   16  C   UNL     1     -11.415  15.088  69.410  1.00  0.00    -0.300 C  
HETATM   17  O   UNL     1     -12.668  15.610  69.855  1.00  0.00    -0.578 OA 
HETATM   18  H   UNL     1     -12.651  16.558  69.917  1.00  0.00     0.000 HD 
ENDBRANCH  13  16
ENDBRANCH  10  13
ENDBRANCH   7  10
ENDBRANCH   4   7
ENDBRANCH   2   4
TORSDOF 5
ENDMDL
MODEL      145
REMARK 921   NORMALIZED FREE ENERGY PREDICTED BY IDOCK:   -3.32 KCAL/MOL
REMARK 922        TOTAL FREE ENERGY PREDICTED BY IDOCK:   -4.60 KCAL/MOL
REMARK 923 INTER-LIGAND FREE ENERGY PREDICTED BY IDOCK:   -4.21 KCAL/MOL
REMARK 924 INTRA-LIGAND FREE ENERGY PREDICTED BY IDOCK:   -0.39 KCAL/MOL
REMARK 927      BINDING AFFINITY PREDICTED BY RF-SCORE:    0.00 PKD
ROOT
HETATM    1  O   UNL     1      -9.123  17.035  65.645  1.00  0.00    -0.500 OA 
HETATM    2  C   UNL     1     -10.283  16.830  66.456  1.00  0.00    -0.316 C  
HETATM    3  H   UNL     1      -8.441  17.413  66.188  1.00  0.00     0.000 HD 
ENDROOT
BRANCH   2   4
HETATM    4  C   UNL     1     -11.381  16.220  65.580  1.00  0.00     0.318 C  
HETATM    5  H   UNL     1     -11.743  16.091  63.656  1.00  0.00     0.000 HD 
HETATM    6  O   UNL     1     -11.062  16.470  64.200  1.00  0.00    -0.903 OA 
BRANCH   4   7
HETATM    7  C   UNL     1     -11.592  14.706  65.816  1.00  0.00    -0.328 C  
HETATM    8  O   UNL     1     -12.648  14.238  64.955  1.00  0.00    -0.583 OA 
HETATM    9  H   UNL     1     -12.778  13.308  65.100  1.00  0.00     0.000 HD 
BRANCH   7  10
HETATM   10  C   UNL     1     -10.326  13.854  65.545  1.00  0.00    -0.333 C  
HETATM   11  H   UNL     1      -9.695  12.544  64.190  1.00  0.00     0.000 HD 
HETATM   12  O   UNL     1     -10.471  13.067  64.357  1.00  0.00    -0.378 OA 
BRANCH  10  13
HETATM   13  C   UNL     1      -9.968  12.935  66.726  1.00  0.00    -0.243 C  
HETATM   14  H   UNL     1      -8.328  12.147  67.472  1.00  0.00     0.000 HD 
HETATM   15  O   UNL     1      -8.549  12.715  66.743  1.00  0.00    -0.183 OA 
BRANCH  13  16
HETATM   16  C   UNL     1     -10.708  11.584  66.648  1.00  0.00    -0.268 C  
HETATM   17  O   UNL     1     -12.124  11.761  66.570  1.00  0.00    -0.498 OA 
HETATM   18  H   UNL     1     -12.580  10.930  66.521  1.00  0.00     0.000 HD 
ENDBRANCH  13  16
ENDBRANCH  10  13
ENDBRANCH   7  10
ENDBRANCH   4   7
ENDBRANCH   2   4
TORSDOF 5
ENDMDL
MODEL      146
REMARK 921   NORMALIZED FREE ENERGY PREDICTED BY IDOCK:   -3.31 KCAL/MOL
REMARK 922        TOTAL FREE ENERGY PREDICTED BY IDOCK:   -4.58 KCAL/MOL
REMARK 923 INTER-LIGAND FREE ENERGY PREDICTED BY IDOCK:   -4.15 KCAL/MOL
REMARK 924 INTRA-LIGAND FREE ENERGY PREDICTED BY IDOCK:   -0.43 KCAL/MOL
REMARK 927      BINDING AFFINITY PREDICTED BY RF-SCORE:    0.00 PKD
ROOT
HETATM    1  O   UNL     1      -9.859   8.239  65.980  1.00  0.00    -0.461 OA 
HETATM    2  C   UNL     1     -10.159   9.638  65.983  1.00  0.00    -0.248 C  
HETATM    3  H   UNL     1      -9.484   8.016  65.136  1.00  0.00     0.000 HD 
ENDROOT
BRANCH   2   4
HETATM    4  C   UNL     1     -10.764   9.997  67.343  1.00  0.00    -0.274 C  
HETATM    5  H   UNL     1     -10.288   9.698  69.222  1.00  0.00     0.000 HD 
HETATM    6  O   UNL     1      -9.913   9.475  68.379  1.00  0.00    -0.155 OA 
BRANCH   4   7
HETATM    7  C   UNL     1     -10.981  11.516  67.542  1.00  0.00    -0.255 C  
HETATM    8  O   UNL     1     -10.319  11.931  68.752  1.00  0.00    -0.252 OA 
HETATM    9  H   UNL     1     -10.452  12.864  68.875  1.00  0.00     0.000 HD 
BRANCH   7  10
HETATM   10  C   UNL     1     -10.445  12.378  66.371  1.00  0.00    -0.243 C  
HETATM   11  H   UNL     1      -9.052  13.766  66.082  1.00  0.00     0.000 HD 
HETATM   12  O   UNL     1      -9.381  13.237  66.799  1.00  0.00    -0.243 OA 
BRANCH  10  13
HETATM   13  C   UNL     1     -11.545  13.221  65.704  1.00  0.00    -0.335 C  
HETATM   14  H   UNL     1     -13.301  12.882  64.887  1.00  0.00     0.000 HD 
HETATM   15  O   UNL     1     -12.622  12.361  65.299  1.00  0.00    -0.636 OA 
BRANCH  13  16
HETATM   16  C   UNL     1     -11.011  14.005  64.488  1.00  0.00    -0.350 C  
HETATM   17  O   UNL     1      -9.996  13.277  63.795  1.00  0.00    -0.699 OA 
HETATM   18  H   UNL     1      -9.667  13.759  63.046  1.00  0.00     0.000 HD 
ENDBRANCH  13  16
ENDBRANCH  10  13
ENDBRANCH   7  10
ENDBRANCH   4   7
ENDBRANCH   2   4
TORSDOF 5
ENDMDL
MODEL      147
REMARK 921   NORMALIZED FREE ENERGY PREDICTED BY IDOCK:   -3.31 KCAL/MOL
REMARK 922        TOTAL FREE ENERGY PREDICTED BY IDOCK:   -4.58 KCAL/MOL
REMARK 923 INTER-LIGAND FREE ENERGY PREDICTED BY IDOCK:   -4.23 KCAL/MOL
REMARK 924 INTRA-LIGAND FREE ENERGY PREDICTED BY IDOCK:   -0.35 KCAL/MOL
REMARK 927      BINDING AFFINITY PREDICTED BY RF-SCORE:    0.00 PKD
ROOT
HETATM    1  O   UNL     1     -12.248  15.744  68.526  1.00  0.00    -0.489 OA 
HETATM    2  C   UNL     1     -11.221  15.586  67.543  1.00  0.00    -0.272 C  
HETATM    3  H   UNL     1     -11.910  16.289  69.227  1.00  0.00     0.000 HD 
ENDROOT
BRANCH   2   4
HETATM    4  C   UNL     1     -11.767  14.708  66.413  1.00  0.00    -0.322 C  
HETATM    5  H   UNL     1     -11.342  14.418  64.520  1.00  0.00     0.000 HD 
HETATM    6  O   UNL     1     -11.004  14.963  65.221  1.00  0.00    -0.335 OA 
BRANCH   4   7
HETATM    7  C   UNL     1     -11.758  13.197  66.743  1.00  0.00    -0.385 C  
HETATM    8  O   UNL     1     -12.369  12.474  65.657  1.00  0.00    -0.615 OA 
HETATM    9  H   UNL     1     -12.364  11.546  65.860  1.00  0.00     0.000 HD 
BRANCH   7  10
HETATM   10  C   UNL     1     -10.338  12.621  66.976  1.00  0.00    -0.232 C  
HETATM   11  H   UNL     1      -9.209  11.152  66.257  1.00  0.00     0.000 HD 
HETATM   12  O   UNL     1     -10.080  11.506  66.115  1.00  0.00    -0.215 OA 
BRANCH  10  13
HETATM   13  C   UNL     1     -10.100  12.205  68.437  1.00  0.00    -0.209 C  
HETATM   14  H   UNL     1      -8.796  11.101  69.410  1.00  0.00     0.000 HD 
HETATM   15  O   UNL     1      -8.943  11.358  68.508  1.00  0.00    -0.164 OA 
BRANCH  13  16
HETATM   16  C   UNL     1     -11.322  11.475  69.034  1.00  0.00    -0.276 C  
HETATM   17  O   UNL     1     -11.747  10.393  68.203  1.00  0.00    -0.714 OA 
HETATM   18  H   UNL     1     -12.499   9.944  68.570  1.00  0.00     0.000 HD 
ENDBRANCH  13  16
ENDBRANCH  10  13
ENDBRANCH   7  10
ENDBRANCH   4   7
ENDBRANCH   2   4
TORSDOF 5
ENDMDL
MODEL      148
REMARK 921   NORMALIZED FREE ENERGY PREDICTED BY IDOCK:   -3.29 KCAL/MOL
REMARK 922        TOTAL FREE ENERGY PREDICTED BY IDOCK:   -4.57 KCAL/MOL
REMARK 923 INTER-LIGAND FREE ENERGY PREDICTED BY IDOCK:   -4.35 KCAL/MOL
REMARK 924 INTRA-LIGAND FREE ENERGY PREDICTED BY IDOCK:   -0.22 KCAL/MOL
REMARK 927      BINDING AFFINITY PREDICTED BY RF-SCORE:    0.00 PKD
ROOT
HETATM    1  O   UNL     1      -7.723  18.983  68.132  1.00  0.00    -0.274 OA 
HETATM    2  C   UNL     1      -9.115  19.312  68.092  1.00  0.00    -0.331 C  
HETATM    3  H   UNL     1      -7.435  19.012  69.037  1.00  0.00     0.000 HD 
ENDROOT
BRANCH   2   4
HETATM    4  C   UNL     1      -9.579  19.265  66.634  1.00  0.00    -0.349 C  
HETATM    5  H   UNL     1      -8.709  19.269  64.875  1.00  0.00     0.000 HD 
HETATM    6  O   UNL     1      -8.421  19.298  65.780  1.00  0.00    -0.415 OA 
BRANCH   4   7
HETATM    7  C   UNL     1     -10.456  18.036  66.301  1.00  0.00    -0.335 C  
HETATM    8  O   UNL     1     -10.822  18.081  64.909  1.00  0.00    -0.715 OA 
HETATM    9  H   UNL     1     -11.361  17.325  64.705  1.00  0.00     0.000 HD 
BRANCH   7  10
HETATM   10  C   UNL     1      -9.755  16.681  66.578  1.00  0.00    -0.274 C  
HETATM   11  H   UNL     1      -8.533  15.434  65.628  1.00  0.00     0.000 HD 
HETATM   12  O   UNL     1      -8.963  16.264  65.459  1.00  0.00    -0.336 OA 
BRANCH  10  13
HETATM   13  C   UNL     1     -10.748  15.565  66.945  1.00  0.00    -0.317 C  
HETATM   14  H   UNL     1     -10.819  14.092  68.246  1.00  0.00     0.000 HD 
HETATM   15  O   UNL     1     -10.206  14.782  68.019  1.00  0.00    -0.223 OA 
BRANCH  13  16
HETATM   16  C   UNL     1     -11.063  14.656  65.739  1.00  0.00    -0.331 C  
HETATM   17  O   UNL     1      -9.960  13.807  65.416  1.00  0.00    -0.448 OA 
HETATM   18  H   UNL     1     -10.154  13.247  64.673  1.00  0.00     0.000 HD 
ENDBRANCH  13  16
ENDBRANCH  10  13
ENDBRANCH   7  10
ENDBRANCH   4   7
ENDBRANCH   2   4
TORSDOF 5
ENDMDL
MODEL      149
REMARK 921   NORMALIZED FREE ENERGY PREDICTED BY IDOCK:   -3.29 KCAL/MOL
REMARK 922        TOTAL FREE ENERGY PREDICTED BY IDOCK:   -4.56 KCAL/MOL
REMARK 923 INTER-LIGAND FREE ENERGY PREDICTED BY IDOCK:   -4.22 KCAL/MOL
REMARK 924 INTRA-LIGAND FREE ENERGY PREDICTED BY IDOCK:   -0.34 KCAL/MOL
REMARK 927      BINDING AFFINITY PREDICTED BY RF-SCORE:    0.00 PKD
ROOT
HETATM    1  O   UNL     1      -9.566  16.839  65.944  1.00  0.00    -0.458 OA 
HETATM    2  C   UNL     1     -10.019  15.757  66.762  1.00  0.00    -0.252 C  
HETATM    3  H   UNL     1      -9.242  16.480  65.126  1.00  0.00     0.000 HD 
ENDROOT
BRANCH   2   4
HETATM    4  C   UNL     1     -10.541  16.337  68.080  1.00  0.00    -0.307 C  
HETATM    5  H   UNL     1     -11.088  18.108  68.725  1.00  0.00     0.000 HD 
HETATM    6  O   UNL     1     -10.764  17.748  67.907  1.00  0.00    -0.388 OA 
BRANCH   4   7
HETATM    7  C   UNL     1     -11.827  15.650  68.593  1.00  0.00    -0.291 C  
HETATM    8  O   UNL     1     -12.317  14.750  67.581  1.00  0.00    -0.551 OA 
HETATM    9  H   UNL     1     -13.107  14.327  67.896  1.00  0.00     0.000 HD 
BRANCH   7  10
HETATM   10  C   UNL     1     -11.621  14.847  69.903  1.00  0.00    -0.289 C  
HETATM   11  H   UNL     1     -11.851  12.976  70.535  1.00  0.00     0.000 HD 
HETATM   12  O   UNL     1     -11.977  13.469  69.732  1.00  0.00    -0.310 OA 
BRANCH  10  13
HETATM   13  C   UNL     1     -12.408  15.434  71.088  1.00  0.00    -0.385 C  
HETATM   14  H   UNL     1     -12.309  17.051  72.201  1.00  0.00     0.000 HD 
HETATM   15  O   UNL     1     -11.824  16.689  71.470  1.00  0.00    -0.224 OA 
BRANCH  13  16
HETATM   16  C   UNL     1     -12.429  14.474  72.296  1.00  0.00    -0.271 C  
HETATM   17  O   UNL     1     -13.657  13.748  72.370  1.00  0.00    -0.497 OA 
HETATM   18  H   UNL     1     -13.671  13.157  73.114  1.00  0.00     0.000 HD 
ENDBRANCH  13  16
ENDBRANCH  10  13
ENDBRANCH   7  10
ENDBRANCH   4   7
ENDBRANCH   2   4
TORSDOF 5
ENDMDL
MODEL      150
REMARK 921   NORMALIZED FREE ENERGY PREDICTED BY IDOCK:   -3.29 KCAL/MOL
REMARK 922        TOTAL FREE ENERGY PREDICTED BY IDOCK:   -4.56 KCAL/MOL
REMARK 923 INTER-LIGAND FREE ENERGY PREDICTED BY IDOCK:   -3.52 KCAL/MOL
REMARK 924 INTRA-LIGAND FREE ENERGY PREDICTED BY IDOCK:   -1.04 KCAL/MOL
REMARK 927      BINDING AFFINITY PREDICTED BY RF-SCORE:    0.00 PKD
ROOT
HETATM    1  O   UNL     1      -8.067  13.192  66.768  1.00  0.00    -0.403 OA 
HETATM    2  C   UNL     1      -8.931  14.189  67.321  1.00  0.00    -0.214 C  
HETATM    3  H   UNL     1      -7.359  13.631  66.310  1.00  0.00     0.000 HD 
ENDROOT
BRANCH   2   4
HETATM    4  C   UNL     1     -10.071  13.480  68.059  1.00  0.00    -0.244 C  
HETATM    5  H   UNL     1     -11.457  14.001  69.346  1.00  0.00     0.000 HD 
HETATM    6  O   UNL     1     -10.750  14.440  68.888  1.00  0.00    -0.242 OA 
BRANCH   4   7
HETATM    7  C   UNL     1     -11.077  12.779  67.117  1.00  0.00    -0.277 C  
HETATM    8  O   UNL     1     -10.594  12.866  65.763  1.00  0.00    -0.267 OA 
HETATM    9  H   UNL     1     -11.212  12.435  65.184  1.00  0.00     0.000 HD 
BRANCH   7  10
HETATM   10  C   UNL     1     -11.307  11.284  67.458  1.00  0.00    -0.288 C  
HETATM   11  H   UNL     1     -12.450  10.212  68.680  1.00  0.00     0.000 HD 
HETATM   12  O   UNL     1     -12.308  11.128  68.470  1.00  0.00    -0.561 OA 
BRANCH  10  13
HETATM   13  C   UNL     1     -10.017  10.572  67.901  1.00  0.00    -0.169 C  
HETATM   14  H   UNL     1      -8.363   9.953  67.037  1.00  0.00     0.000 HD 
HETATM   15  O   UNL     1      -9.159  10.392  66.764  1.00  0.00    -0.143 OA 
BRANCH  13  16
HETATM   16  C   UNL     1     -10.310   9.209  68.560  1.00  0.00    -0.207 C  
HETATM   17  O   UNL     1     -11.030   8.342  67.682  1.00  0.00    -0.501 OA 
HETATM   18  H   UNL     1     -11.210   7.502  68.087  1.00  0.00     0.000 HD 
ENDBRANCH  13  16
ENDBRANCH  10  13
ENDBRANCH   7  10
ENDBRANCH   4   7
ENDBRANCH   2   4
TORSDOF 5
ENDMDL
MODEL      151
REMARK 921   NORMALIZED FREE ENERGY PREDICTED BY IDOCK:   -3.29 KCAL/MOL
REMARK 922        TOTAL FREE ENERGY PREDICTED BY IDOCK:   -4.56 KCAL/MOL
REMARK 923 INTER-LIGAND FREE ENERGY PREDICTED BY IDOCK:   -4.16 KCAL/MOL
REMARK 924 INTRA-LIGAND FREE ENERGY PREDICTED BY IDOCK:   -0.40 KCAL/MOL
REMARK 927      BINDING AFFINITY PREDICTED BY RF-SCORE:    0.00 PKD
ROOT
HETATM    1  O   UNL     1      -8.805  17.495  65.899  1.00  0.00    -0.525 OA 
HETATM    2  C   UNL     1      -9.260  16.269  66.479  1.00  0.00    -0.269 C  
HETATM    3  H   UNL     1      -8.319  17.289  65.108  1.00  0.00     0.000 HD 
ENDROOT
BRANCH   2   4
HETATM    4  C   UNL     1     -10.042  16.601  67.753  1.00  0.00    -0.275 C  
HETATM    5  H   UNL     1     -11.445  17.878  68.255  1.00  0.00     0.000 HD 
HETATM    6  O   UNL     1     -10.959  17.672  67.465  1.00  0.00    -0.273 OA 
BRANCH   4   7
HETATM    7  C   UNL     1     -10.800  15.392  68.347  1.00  0.00    -0.268 C  
HETATM    8  O   UNL     1     -12.132  15.802  68.711  1.00  0.00    -0.559 OA 
HETATM    9  H   UNL     1     -12.598  15.059  69.077  1.00  0.00     0.000 HD 
BRANCH   7  10
HETATM   10  C   UNL     1     -10.909  14.189  67.376  1.00  0.00    -0.287 C  
HETATM   11  H   UNL     1     -12.341  13.163  66.456  1.00  0.00     0.000 HD 
HETATM   12  O   UNL     1     -12.274  13.900  67.052  1.00  0.00    -0.421 OA 
BRANCH  10  13
HETATM   13  C   UNL     1     -10.235  12.920  67.926  1.00  0.00    -0.233 C  
HETATM   14  H   UNL     1      -8.427  12.147  67.916  1.00  0.00     0.000 HD 
HETATM   15  O   UNL     1      -8.843  12.931  67.576  1.00  0.00    -0.171 OA 
BRANCH  13  16
HETATM   16  C   UNL     1     -10.902  11.636  67.391  1.00  0.00    -0.250 C  
HETATM   17  O   UNL     1     -12.144  11.374  68.047  1.00  0.00    -0.629 OA 
HETATM   18  H   UNL     1     -12.555  10.584  67.718  1.00  0.00     0.000 HD 
ENDBRANCH  13  16
ENDBRANCH  10  13
ENDBRANCH   7  10
ENDBRANCH   4   7
ENDBRANCH   2   4
TORSDOF 5
ENDMDL
MODEL      152
REMARK 921   NORMALIZED FREE ENERGY PREDICTED BY IDOCK:   -3.28 KCAL/MOL
REMARK 922        TOTAL FREE ENERGY PREDICTED BY IDOCK:   -4.55 KCAL/MOL
REMARK 923 INTER-LIGAND FREE ENERGY PREDICTED BY IDOCK:   -3.51 KCAL/MOL
REMARK 924 INTRA-LIGAND FREE ENERGY PREDICTED BY IDOCK:   -1.04 KCAL/MOL
REMARK 927      BINDING AFFINITY PREDICTED BY RF-SCORE:    0.00 PKD
ROOT
HETATM    1  O   UNL     1     -11.603   6.737  68.514  1.00  0.00    -0.534 OA 
HETATM    2  C   UNL     1     -10.377   6.012  68.640  1.00  0.00    -0.214 C  
HETATM    3  H   UNL     1     -11.579   7.225  67.699  1.00  0.00     0.000 HD 
ENDROOT
BRANCH   2   4
HETATM    4  C   UNL     1     -10.415   5.227  69.955  1.00  0.00    -0.281 C  
HETATM    5  H   UNL     1      -9.886   3.432  70.543  1.00  0.00     0.000 HD 
HETATM    6  O   UNL     1      -9.862   3.919  69.727  1.00  0.00    -0.195 OA 
BRANCH   4   7
HETATM    7  C   UNL     1      -9.674   5.928  71.117  1.00  0.00    -0.174 C  
HETATM    8  O   UNL     1      -8.530   6.628  70.592  1.00  0.00    -0.134 OA 
HETATM    9  H   UNL     1      -8.074   7.058  71.305  1.00  0.00     0.000 HD 
BRANCH   7  10
HETATM   10  C   UNL     1     -10.554   6.942  71.891  1.00  0.00    -0.211 C  
HETATM   11  H   UNL     1     -12.488   7.301  72.171  1.00  0.00     0.000 HD 
HETATM   12  O   UNL     1     -11.949   6.679  71.697  1.00  0.00    -0.318 OA 
BRANCH  10  13
HETATM   13  C   UNL     1     -10.251   8.401  71.510  1.00  0.00    -0.228 C  
HETATM   14  H   UNL     1      -9.057   9.824  72.154  1.00  0.00     0.000 HD 
HETATM   15  O   UNL     1      -9.244   8.923  72.390  1.00  0.00    -0.362 OA 
BRANCH  13  16
HETATM   16  C   UNL     1     -11.513   9.286  71.571  1.00  0.00    -0.384 C  
HETATM   17  O   UNL     1     -12.228   9.272  70.335  1.00  0.00    -0.474 OA 
HETATM   18  H   UNL     1     -13.006   9.816  70.372  1.00  0.00     0.000 HD 
ENDBRANCH  13  16
ENDBRANCH  10  13
ENDBRANCH   7  10
ENDBRANCH   4   7
ENDBRANCH   2   4
TORSDOF 5
ENDMDL
MODEL      153
REMARK 921   NORMALIZED FREE ENERGY PREDICTED BY IDOCK:   -3.26 KCAL/MOL
REMARK 922        TOTAL FREE ENERGY PREDICTED BY IDOCK:   -4.53 KCAL/MOL
REMARK 923 INTER-LIGAND FREE ENERGY PREDICTED BY IDOCK:   -3.24 KCAL/MOL
REMARK 924 INTRA-LIGAND FREE ENERGY PREDICTED BY IDOCK:   -1.29 KCAL/MOL
REMARK 927      BINDING AFFINITY PREDICTED BY RF-SCORE:    0.00 PKD
ROOT
HETATM    1  O   UNL     1     -10.813   8.581  68.643  1.00  0.00    -0.420 OA 
HETATM    2  C   UNL     1     -11.060   9.132  69.940  1.00  0.00    -0.159 C  
HETATM    3  H   UNL     1     -10.483   7.696  68.752  1.00  0.00     0.000 HD 
ENDROOT
BRANCH   2   4
HETATM    4  C   UNL     1     -11.591  10.557  69.764  1.00  0.00    -0.294 C  
HETATM    5  H   UNL     1     -12.413  11.910  70.922  1.00  0.00     0.000 HD 
HETATM    6  O   UNL     1     -12.084  11.026  71.031  1.00  0.00    -0.340 OA 
BRANCH   4   7
HETATM    7  C   UNL     1     -10.542  11.544  69.199  1.00  0.00    -0.136 C  
HETATM    8  O   UNL     1      -9.245  10.916  69.221  1.00  0.00    -0.370 OA 
HETATM    9  H   UNL     1      -8.600  11.522  68.875  1.00  0.00     0.000 HD 
BRANCH   7  10
HETATM   10  C   UNL     1     -10.838  12.001  67.748  1.00  0.00    -0.215 C  
HETATM   11  H   UNL     1     -11.896  11.365  66.191  1.00  0.00     0.000 HD 
HETATM   12  O   UNL     1     -11.714  11.085  67.080  1.00  0.00    -0.456 OA 
BRANCH  10  13
HETATM   13  C   UNL     1      -9.559  12.186  66.913  1.00  0.00    -0.206 C  
HETATM   14  H   UNL     1      -8.772  13.610  65.809  1.00  0.00     0.000 HD 
HETATM   15  O   UNL     1      -9.562  13.495  66.324  1.00  0.00    -0.272 OA 
BRANCH  13  16
HETATM   16  C   UNL     1      -9.433  11.114  65.810  1.00  0.00    -0.221 C  
HETATM   17  O   UNL     1      -9.186   9.819  66.359  1.00  0.00    -0.149 OA 
HETATM   18  H   UNL     1      -9.108   9.159  65.681  1.00  0.00     0.000 HD 
ENDBRANCH  13  16
ENDBRANCH  10  13
ENDBRANCH   7  10
ENDBRANCH   4   7
ENDBRANCH   2   4
TORSDOF 5
ENDMDL
MODEL      154
REMARK 921   NORMALIZED FREE ENERGY PREDICTED BY IDOCK:   -3.26 KCAL/MOL
REMARK 922        TOTAL FREE ENERGY PREDICTED BY IDOCK:   -4.52 KCAL/MOL
REMARK 923 INTER-LIGAND FREE ENERGY PREDICTED BY IDOCK:   -4.03 KCAL/MOL
REMARK 924 INTRA-LIGAND FREE ENERGY PREDICTED BY IDOCK:   -0.49 KCAL/MOL
REMARK 927      BINDING AFFINITY PREDICTED BY RF-SCORE:    0.00 PKD
ROOT
HETATM    1  O   UNL     1      -8.466  15.598  69.354  1.00  0.00    -0.248 OA 
HETATM    2  C   UNL     1      -7.445  16.514  68.948  1.00  0.00    -0.225 C  
HETATM    3  H   UNL     1      -8.180  15.167  70.151  1.00  0.00     0.000 HD 
ENDROOT
BRANCH   2   4
HETATM    4  C   UNL     1      -7.906  17.210  67.664  1.00  0.00    -0.176 C  
HETATM    5  H   UNL     1      -7.439  17.113  65.761  1.00  0.00     0.000 HD 
HETATM    6  O   UNL     1      -7.152  16.682  66.558  1.00  0.00    -0.233 OA 
BRANCH   4   7
HETATM    7  C   UNL     1      -9.422  17.071  67.395  1.00  0.00    -0.242 C  
HETATM    8  O   UNL     1     -10.031  18.376  67.444  1.00  0.00    -0.309 OA 
HETATM    9  H   UNL     1     -10.963  18.291  67.279  1.00  0.00     0.000 HD 
BRANCH   7  10
HETATM   10  C   UNL     1      -9.753  16.430  66.023  1.00  0.00    -0.326 C  
HETATM   11  H   UNL     1     -10.907  16.822  64.453  1.00  0.00     0.000 HD 
HETATM   12  O   UNL     1     -10.704  17.215  65.294  1.00  0.00    -0.629 OA 
BRANCH  10  13
HETATM   13  C   UNL     1     -10.273  14.988  66.153  1.00  0.00    -0.297 C  
HETATM   14  H   UNL     1      -9.553  13.262  66.761  1.00  0.00     0.000 HD 
HETATM   15  O   UNL     1      -9.232  14.152  66.680  1.00  0.00    -0.265 OA 
BRANCH  13  16
HETATM   16  C   UNL     1     -10.763  14.429  64.801  1.00  0.00    -0.403 C  
HETATM   17  O   UNL     1      -9.885  13.419  64.299  1.00  0.00    -0.679 OA 
HETATM   18  H   UNL     1     -10.187  13.074  63.467  1.00  0.00     0.000 HD 
ENDBRANCH  13  16
ENDBRANCH  10  13
ENDBRANCH   7  10
ENDBRANCH   4   7
ENDBRANCH   2   4
TORSDOF 5
ENDMDL
MODEL      155
REMARK 921   NORMALIZED FREE ENERGY PREDICTED BY IDOCK:   -3.26 KCAL/MOL
REMARK 922        TOTAL FREE ENERGY PREDICTED BY IDOCK:   -4.52 KCAL/MOL
REMARK 923 INTER-LIGAND FREE ENERGY PREDICTED BY IDOCK:   -3.78 KCAL/MOL
REMARK 924 INTRA-LIGAND FREE ENERGY PREDICTED BY IDOCK:   -0.73 KCAL/MOL
REMARK 927      BINDING AFFINITY PREDICTED BY RF-SCORE:    0.00 PKD
ROOT
HETATM    1  O   UNL     1     -13.476   9.590  70.729  1.00  0.00    -0.597 OA 
HETATM    2  C   UNL     1     -12.979   8.820  71.826  1.00  0.00    -0.361 C  
HETATM    3  H   UNL     1     -14.388   9.798  70.898  1.00  0.00     0.000 HD 
ENDROOT
BRANCH   2   4
HETATM    4  C   UNL     1     -11.509   8.486  71.553  1.00  0.00    -0.287 C  
HETATM    5  H   UNL     1      -9.916   8.133  72.641  1.00  0.00     0.000 HD 
HETATM    6  O   UNL     1     -10.828   8.340  72.811  1.00  0.00    -0.347 OA 
BRANCH   4   7
HETATM    7  C   UNL     1     -11.313   7.221  70.686  1.00  0.00    -0.284 C  
HETATM    8  O   UNL     1     -12.574   6.855  70.094  1.00  0.00    -0.533 OA 
HETATM    9  H   UNL     1     -12.453   6.077  69.562  1.00  0.00     0.000 HD 
BRANCH   7  10
HETATM   10  C   UNL     1     -10.274   7.402  69.550  1.00  0.00    -0.204 C  
HETATM   11  H   UNL     1      -8.989   8.789  68.937  1.00  0.00     0.000 HD 
HETATM   12  O   UNL     1      -9.626   8.677  69.633  1.00  0.00    -0.167 OA 
BRANCH  10  13
HETATM   13  C   UNL     1     -10.892   7.234  68.151  1.00  0.00    -0.068 C  
HETATM   14  H   UNL     1     -10.946   5.829  66.777  1.00  0.00     0.000 HD 
HETATM   15  O   UNL     1     -10.565   5.932  67.641  1.00  0.00    -0.220 OA 
BRANCH  13  16
HETATM   16  C   UNL     1     -10.402   8.321  67.172  1.00  0.00    -0.317 C  
HETATM   17  O   UNL     1     -11.074   9.564  67.383  1.00  0.00    -0.399 OA 
HETATM   18  H   UNL     1     -10.772  10.233  66.781  1.00  0.00     0.000 HD 
ENDBRANCH  13  16
ENDBRANCH  10  13
ENDBRANCH   7  10
ENDBRANCH   4   7
ENDBRANCH   2   4
TORSDOF 5
ENDMDL
MODEL      156
REMARK 921   NORMALIZED FREE ENERGY PREDICTED BY IDOCK:   -3.25 KCAL/MOL
REMARK 922        TOTAL FREE ENERGY PREDICTED BY IDOCK:   -4.51 KCAL/MOL
REMARK 923 INTER-LIGAND FREE ENERGY PREDICTED BY IDOCK:   -4.23 KCAL/MOL
REMARK 924 INTRA-LIGAND FREE ENERGY PREDICTED BY IDOCK:   -0.28 KCAL/MOL
REMARK 927      BINDING AFFINITY PREDICTED BY RF-SCORE:    0.00 PKD
ROOT
HETATM    1  O   UNL     1     -10.975  17.910  65.064  1.00  0.00    -0.776 OA 
HETATM    2  C   UNL     1     -10.428  17.245  66.206  1.00  0.00    -0.268 C  
HETATM    3  H   UNL     1     -11.381  18.718  65.355  1.00  0.00     0.000 HD 
ENDROOT
BRANCH   2   4
HETATM    4  C   UNL     1      -9.773  15.942  65.737  1.00  0.00    -0.325 C  
HETATM    5  H   UNL     1      -7.958  15.199  65.729  1.00  0.00     0.000 HD 
HETATM    6  O   UNL     1      -8.364  16.007  66.019  1.00  0.00    -0.254 OA 
BRANCH   4   7
HETATM    7  C   UNL     1     -10.390  14.675  66.374  1.00  0.00    -0.289 C  
HETATM    8  O   UNL     1      -9.516  13.555  66.136  1.00  0.00    -0.419 OA 
HETATM    9  H   UNL     1      -9.895  12.776  66.527  1.00  0.00     0.000 HD 
BRANCH   7  10
HETATM   10  C   UNL     1     -10.622  14.798  67.901  1.00  0.00    -0.248 C  
HETATM   11  H   UNL     1      -9.690  14.282  69.579  1.00  0.00     0.000 HD 
HETATM   12  O   UNL     1      -9.548  14.206  68.642  1.00  0.00    -0.215 OA 
BRANCH  10  13
HETATM   13  C   UNL     1     -11.956  14.176  68.350  1.00  0.00    -0.331 C  
HETATM   14  H   UNL     1     -13.285  14.517  69.758  1.00  0.00     0.000 HD 
HETATM   15  O   UNL     1     -12.461  14.901  69.481  1.00  0.00    -0.205 OA 
BRANCH  13  16
HETATM   16  C   UNL     1     -11.803  12.683  68.707  1.00  0.00    -0.300 C  
HETATM   17  O   UNL     1     -12.084  11.841  67.588  1.00  0.00    -0.598 OA 
HETATM   18  H   UNL     1     -11.989  10.922  67.808  1.00  0.00     0.000 HD 
ENDBRANCH  13  16
ENDBRANCH  10  13
ENDBRANCH   7  10
ENDBRANCH   4   7
ENDBRANCH   2   4
TORSDOF 5
ENDMDL
MODEL      157
REMARK 921   NORMALIZED FREE ENERGY PREDICTED BY IDOCK:   -3.25 KCAL/MOL
REMARK 922        TOTAL FREE ENERGY PREDICTED BY IDOCK:   -4.51 KCAL/MOL
REMARK 923 INTER-LIGAND FREE ENERGY PREDICTED BY IDOCK:   -3.90 KCAL/MOL
REMARK 924 INTRA-LIGAND FREE ENERGY PREDICTED BY IDOCK:   -0.61 KCAL/MOL
REMARK 927      BINDING AFFINITY PREDICTED BY RF-SCORE:    0.00 PKD
ROOT
HETATM    1  O   UNL     1     -11.761  14.075  67.004  1.00  0.00    -0.355 OA 
HETATM    2  C   UNL     1     -11.053  13.668  65.829  1.00  0.00    -0.287 C  
HETATM    3  H   UNL     1     -11.360  14.872  67.332  1.00  0.00     0.000 HD 
ENDROOT
BRANCH   2   4
HETATM    4  C   UNL     1     -11.698  12.384  65.300  1.00  0.00    -0.390 C  
HETATM    5  H   UNL     1     -13.459  11.873  64.604  1.00  0.00     0.000 HD 
HETATM    6  O   UNL     1     -13.059  12.670  64.933  1.00  0.00    -0.850 OA 
BRANCH   4   7
HETATM    7  C   UNL     1     -10.941  11.757  64.106  1.00  0.00    -0.374 C  
HETATM    8  O   UNL     1     -10.085  12.754  63.515  1.00  0.00    -0.632 OA 
HETATM    9  H   UNL     1      -9.620  12.369  62.781  1.00  0.00     0.000 HD 
BRANCH   7  10
HETATM   10  C   UNL     1     -10.070  10.535  64.497  1.00  0.00    -0.332 C  
HETATM   11  H   UNL     1      -9.805   9.361  66.078  1.00  0.00     0.000 HD 
HETATM   12  O   UNL     1     -10.339  10.110  65.838  1.00  0.00    -0.229 OA 
BRANCH  10  13
HETATM   13  C   UNL     1      -8.564  10.807  64.339  1.00  0.00    -0.040 C  
HETATM   14  H   UNL     1      -7.255  10.769  62.872  1.00  0.00     0.000 HD 
HETATM   15  O   UNL     1      -8.185  10.602  62.969  1.00  0.00    -0.156 OA 
BRANCH  13  16
HETATM   16  C   UNL     1      -7.718   9.903  65.259  1.00  0.00    -0.129 C  
HETATM   17  O   UNL     1      -8.051   8.524  65.096  1.00  0.00    -0.125 OA 
HETATM   18  H   UNL     1      -7.529   7.967  65.662  1.00  0.00     0.000 HD 
ENDBRANCH  13  16
ENDBRANCH  10  13
ENDBRANCH   7  10
ENDBRANCH   4   7
ENDBRANCH   2   4
TORSDOF 5
ENDMDL
MODEL      158
REMARK 921   NORMALIZED FREE ENERGY PREDICTED BY IDOCK:   -3.25 KCAL/MOL
REMARK 922        TOTAL FREE ENERGY PREDICTED BY IDOCK:   -4.51 KCAL/MOL
REMARK 923 INTER-LIGAND FREE ENERGY PREDICTED BY IDOCK:   -3.96 KCAL/MOL
REMARK 924 INTRA-LIGAND FREE ENERGY PREDICTED BY IDOCK:   -0.55 KCAL/MOL
REMARK 927      BINDING AFFINITY PREDICTED BY RF-SCORE:    0.00 PKD
ROOT
HETATM    1  O   UNL     1      -8.652  14.217  69.316  1.00  0.00    -0.357 OA 
HETATM    2  C   UNL     1      -8.357  14.059  67.926  1.00  0.00    -0.168 C  
HETATM    3  H   UNL     1      -8.092  14.900  69.665  1.00  0.00     0.000 HD 
ENDROOT
BRANCH   2   4
HETATM    4  C   UNL     1      -9.260  12.957  67.364  1.00  0.00    -0.197 C  
HETATM    5  H   UNL     1     -10.099  11.328  68.063  1.00  0.00     0.000 HD 
HETATM    6  O   UNL     1      -9.539  12.011  68.412  1.00  0.00    -0.204 OA 
BRANCH   4   7
HETATM    7  C   UNL     1     -10.579  13.488  66.756  1.00  0.00    -0.272 C  
HETATM    8  O   UNL     1     -10.764  14.859  67.155  1.00  0.00    -0.284 OA 
HETATM    9  H   UNL     1     -11.574  15.185  66.781  1.00  0.00     0.000 HD 
BRANCH   7  10
HETATM   10  C   UNL     1     -10.620  13.419  65.208  1.00  0.00    -0.325 C  
HETATM   11  H   UNL     1     -10.369  14.656  63.672  1.00  0.00     0.000 HD 
HETATM   12  O   UNL     1     -10.344  14.697  64.621  1.00  0.00    -0.340 OA 
BRANCH  10  13
HETATM   13  C   UNL     1     -11.962  12.891  64.673  1.00  0.00    -0.392 C  
HETATM   14  H   UNL     1     -13.483  11.875  65.396  1.00  0.00     0.000 HD 
HETATM   15  O   UNL     1     -12.654  12.201  65.726  1.00  0.00    -0.344 OA 
BRANCH  13  16
HETATM   16  C   UNL     1     -11.770  11.950  63.466  1.00  0.00    -0.452 C  
HETATM   17  O   UNL     1     -10.427  11.985  62.979  1.00  0.00    -0.624 OA 
HETATM   18  H   UNL     1     -10.309  11.405  62.235  1.00  0.00     0.000 HD 
ENDBRANCH  13  16
ENDBRANCH  10  13
ENDBRANCH   7  10
ENDBRANCH   4   7
ENDBRANCH   2   4
TORSDOF 5
ENDMDL
MODEL      159
REMARK 921   NORMALIZED FREE ENERGY PREDICTED BY IDOCK:   -3.24 KCAL/MOL
REMARK 922        TOTAL FREE ENERGY PREDICTED BY IDOCK:   -4.50 KCAL/MOL
REMARK 923 INTER-LIGAND FREE ENERGY PREDICTED BY IDOCK:   -3.86 KCAL/MOL
REMARK 924 INTRA-LIGAND FREE ENERGY PREDICTED BY IDOCK:   -0.64 KCAL/MOL
REMARK 927      BINDING AFFINITY PREDICTED BY RF-SCORE:    0.00 PKD
ROOT
HETATM    1  O   UNL     1     -12.026  11.654  66.629  1.00  0.00    -0.503 OA 
HETATM    2  C   UNL     1     -12.009  12.411  65.416  1.00  0.00    -0.398 C  
HETATM    3  H   UNL     1     -12.248  10.755  66.417  1.00  0.00     0.000 HD 
ENDROOT
BRANCH   2   4
HETATM    4  C   UNL     1     -11.651  13.861  65.758  1.00  0.00    -0.338 C  
HETATM    5  H   UNL     1     -12.000  15.085  67.251  1.00  0.00     0.000 HD 
HETATM    6  O   UNL     1     -12.222  14.186  67.038  1.00  0.00    -0.432 OA 
BRANCH   4   7
HETATM    7  C   UNL     1     -10.130  14.139  65.763  1.00  0.00    -0.333 C  
HETATM    8  O   UNL     1      -9.725  14.570  64.450  1.00  0.00    -0.373 OA 
HETATM    9  H   UNL     1      -8.791  14.741  64.452  1.00  0.00     0.000 HD 
BRANCH   7  10
HETATM   10  C   UNL     1      -9.700  15.221  66.787  1.00  0.00    -0.236 C  
HETATM   11  H   UNL     1      -8.765  16.974  66.771  1.00  0.00     0.000 HD 
HETATM   12  O   UNL     1      -9.029  16.311  66.144  1.00  0.00    -0.308 OA 
BRANCH  10  13
HETATM   13  C   UNL     1      -8.805  14.657  67.904  1.00  0.00    -0.170 C  
HETATM   14  H   UNL     1      -6.874  14.489  68.234  1.00  0.00     0.000 HD 
HETATM   15  O   UNL     1      -7.427  14.837  67.544  1.00  0.00    -0.170 OA 
BRANCH  13  16
HETATM   16  C   UNL     1      -9.089  13.164  68.169  1.00  0.00    -0.200 C  
HETATM   17  O   UNL     1     -10.312  12.978  68.884  1.00  0.00    -0.402 OA 
HETATM   18  H   UNL     1     -10.487  12.059  69.047  1.00  0.00     0.000 HD 
ENDBRANCH  13  16
ENDBRANCH  10  13
ENDBRANCH   7  10
ENDBRANCH   4   7
ENDBRANCH   2   4
TORSDOF 5
ENDMDL
MODEL      160
REMARK 921   NORMALIZED FREE ENERGY PREDICTED BY IDOCK:   -3.24 KCAL/MOL
REMARK 922        TOTAL FREE ENERGY PREDICTED BY IDOCK:   -4.49 KCAL/MOL
REMARK 923 INTER-LIGAND FREE ENERGY PREDICTED BY IDOCK:   -3.96 KCAL/MOL
REMARK 924 INTRA-LIGAND FREE ENERGY PREDICTED BY IDOCK:   -0.53 KCAL/MOL
REMARK 927      BINDING AFFINITY PREDICTED BY RF-SCORE:    0.00 PKD
ROOT
HETATM    1  O   UNL     1      -8.207  10.837  69.655  1.00  0.00    -0.380 OA 
HETATM    2  C   UNL     1      -8.115  11.210  68.278  1.00  0.00    -0.131 C  
HETATM    3  H   UNL     1      -7.343  10.914  70.044  1.00  0.00     0.000 HD 
ENDROOT
BRANCH   2   4
HETATM    4  C   UNL     1      -9.507  11.086  67.652  1.00  0.00    -0.164 C  
HETATM    5  H   UNL     1     -11.104   9.992  67.970  1.00  0.00     0.000 HD 
HETATM    6  O   UNL     1     -10.240  10.069  68.357  1.00  0.00    -0.159 OA 
BRANCH   4   7
HETATM    7  C   UNL     1     -10.303  12.412  67.643  1.00  0.00    -0.216 C  
HETATM    8  O   UNL     1      -9.923  13.197  68.789  1.00  0.00    -0.399 OA 
HETATM    9  H   UNL     1     -10.412  14.012  68.784  1.00  0.00     0.000 HD 
BRANCH   7  10
HETATM   10  C   UNL     1     -10.073  13.264  66.369  1.00  0.00    -0.290 C  
HETATM   11  H   UNL     1      -8.939  14.796  65.806  1.00  0.00     0.000 HD 
HETATM   12  O   UNL     1      -9.080  14.273  66.587  1.00  0.00    -0.257 OA 
BRANCH  10  13
HETATM   13  C   UNL     1     -11.366  13.922  65.856  1.00  0.00    -0.313 C  
HETATM   14  H   UNL     1     -13.164  14.278  66.568  1.00  0.00     0.000 HD 
HETATM   15  O   UNL     1     -12.366  13.871  66.885  1.00  0.00    -0.410 OA 
BRANCH  13  16
HETATM   16  C   UNL     1     -11.892  13.237  64.577  1.00  0.00    -0.387 C  
HETATM   17  O   UNL     1     -13.151  12.601  64.800  1.00  0.00    -0.852 OA 
HETATM   18  H   UNL     1     -13.476  12.179  64.013  1.00  0.00     0.000 HD 
ENDBRANCH  13  16
ENDBRANCH  10  13
ENDBRANCH   7  10
ENDBRANCH   4   7
ENDBRANCH   2   4
TORSDOF 5
ENDMDL
MODEL      161
REMARK 921   NORMALIZED FREE ENERGY PREDICTED BY IDOCK:   -3.23 KCAL/MOL
REMARK 922        TOTAL FREE ENERGY PREDICTED BY IDOCK:   -4.48 KCAL/MOL
REMARK 923 INTER-LIGAND FREE ENERGY PREDICTED BY IDOCK:   -4.27 KCAL/MOL
REMARK 924 INTRA-LIGAND FREE ENERGY PREDICTED BY IDOCK:   -0.21 KCAL/MOL
REMARK 927      BINDING AFFINITY PREDICTED BY RF-SCORE:    0.00 PKD
ROOT
HETATM    1  O   UNL     1     -13.992   9.072  73.330  1.00  0.00    -1.220 OA 
HETATM    2  C   UNL     1     -13.183   9.083  72.150  1.00  0.00    -0.446 C  
HETATM    3  H   UNL     1     -14.232   9.968  73.535  1.00  0.00     0.000 HD 
ENDROOT
BRANCH   2   4
HETATM    4  C   UNL     1     -12.796   7.639  71.819  1.00  0.00    -0.330 C  
HETATM    5  H   UNL     1     -13.594   6.160  70.807  1.00  0.00     0.000 HD 
HETATM    6  O   UNL     1     -13.834   7.056  71.012  1.00  0.00    -0.163 OA 
BRANCH   4   7
HETATM    7  C   UNL     1     -11.429   7.511  71.109  1.00  0.00    -0.273 C  
HETATM    8  O   UNL     1     -10.376   7.703  72.073  1.00  0.00    -0.196 OA 
HETATM    9  H   UNL     1      -9.536   7.626  71.637  1.00  0.00     0.000 HD 
BRANCH   7  10
HETATM   10  C   UNL     1     -11.214   6.141  70.418  1.00  0.00    -0.353 C  
HETATM   11  H   UNL     1     -10.014   4.568  70.607  1.00  0.00     0.000 HD 
HETATM   12  O   UNL     1     -10.146   5.409  71.030  1.00  0.00    -0.194 OA 
BRANCH  10  13
HETATM   13  C   UNL     1     -10.942   6.274  68.909  1.00  0.00    -0.368 C  
HETATM   14  H   UNL     1      -9.660   5.524  67.621  1.00  0.00     0.000 HD 
HETATM   15  O   UNL     1      -9.828   5.442  68.552  1.00  0.00    -0.130 OA 
BRANCH  13  16
HETATM   16  C   UNL     1     -10.659   7.735  68.503  1.00  0.00    -0.114 C  
HETATM   17  O   UNL     1     -10.796   7.927  67.094  1.00  0.00    -0.483 OA 
HETATM   18  H   UNL     1     -10.623   8.826  66.844  1.00  0.00     0.000 HD 
ENDBRANCH  13  16
ENDBRANCH  10  13
ENDBRANCH   7  10
ENDBRANCH   4   7
ENDBRANCH   2   4
TORSDOF 5
ENDMDL
MODEL      162
REMARK 921   NORMALIZED FREE ENERGY PREDICTED BY IDOCK:   -3.23 KCAL/MOL
REMARK 922        TOTAL FREE ENERGY PREDICTED BY IDOCK:   -4.48 KCAL/MOL
REMARK 923 INTER-LIGAND FREE ENERGY PREDICTED BY IDOCK:   -3.88 KCAL/MOL
REMARK 924 INTRA-LIGAND FREE ENERGY PREDICTED BY IDOCK:   -0.60 KCAL/MOL
REMARK 927      BINDING AFFINITY PREDICTED BY RF-SCORE:    0.00 PKD
ROOT
HETATM    1  O   UNL     1     -14.155   8.999  73.305  1.00  0.00    -1.218 OA 
HETATM    2  C   UNL     1     -13.945   8.992  71.890  1.00  0.00    -0.387 C  
HETATM    3  H   UNL     1     -14.959   9.472  73.484  1.00  0.00     0.000 HD 
ENDROOT
BRANCH   2   4
HETATM    4  C   UNL     1     -12.649   8.228  71.600  1.00  0.00    -0.327 C  
HETATM    5  H   UNL     1     -12.180   6.482  70.840  1.00  0.00     0.000 HD 
HETATM    6  O   UNL     1     -12.984   6.956  71.020  1.00  0.00    -0.305 OA 
BRANCH   4   7
HETATM    7  C   UNL     1     -11.670   8.996  70.682  1.00  0.00    -0.198 C  
HETATM    8  O   UNL     1     -10.723   9.713  71.497  1.00  0.00    -0.301 OA 
HETATM    9  H   UNL     1     -10.122  10.185  70.933  1.00  0.00     0.000 HD 
BRANCH   7  10
HETATM   10  C   UNL     1     -10.883   8.080  69.711  1.00  0.00    -0.194 C  
HETATM   11  H   UNL     1      -9.389   6.772  69.804  1.00  0.00     0.000 HD 
HETATM   12  O   UNL     1      -9.872   7.334  70.399  1.00  0.00    -0.183 OA 
BRANCH  10  13
HETATM   13  C   UNL     1     -10.241   8.860  68.550  1.00  0.00    -0.197 C  
HETATM   14  H   UNL     1     -10.207   8.725  66.589  1.00  0.00     0.000 HD 
HETATM   15  O   UNL     1     -10.603   8.244  67.305  1.00  0.00    -0.301 OA 
BRANCH  13  16
HETATM   16  C   UNL     1      -8.705   8.921  68.679  1.00  0.00    -0.134 C  
HETATM   17  O   UNL     1      -8.301   9.696  69.810  1.00  0.00    -0.138 OA 
HETATM   18  H   UNL     1      -7.355   9.733  69.890  1.00  0.00     0.000 HD 
ENDBRANCH  13  16
ENDBRANCH  10  13
ENDBRANCH   7  10
ENDBRANCH   4   7
ENDBRANCH   2   4
TORSDOF 5
ENDMDL
MODEL      163
REMARK 921   NORMALIZED FREE ENERGY PREDICTED BY IDOCK:   -3.22 KCAL/MOL
REMARK 922        TOTAL FREE ENERGY PREDICTED BY IDOCK:   -4.47 KCAL/MOL
REMARK 923 INTER-LIGAND FREE ENERGY PREDICTED BY IDOCK:   -4.12 KCAL/MOL
REMARK 924 INTRA-LIGAND FREE ENERGY PREDICTED BY IDOCK:   -0.34 KCAL/MOL
REMARK 927      BINDING AFFINITY PREDICTED BY RF-SCORE:    0.00 PKD
ROOT
HETATM    1  O   UNL     1      -7.635  10.522  68.209  1.00  0.00    -0.091 OA 
HETATM    2  C   UNL     1      -8.754  11.410  68.140  1.00  0.00    -0.154 C  
HETATM    3  H   UNL     1      -6.840  11.038  68.150  1.00  0.00     0.000 HD 
ENDROOT
BRANCH   2   4
HETATM    4  C   UNL     1     -10.036  10.577  68.234  1.00  0.00    -0.160 C  
HETATM    5  H   UNL     1     -11.045   9.696  69.667  1.00  0.00     0.000 HD 
HETATM    6  O   UNL     1     -10.250  10.213  69.609  1.00  0.00    -0.218 OA 
BRANCH   4   7
HETATM    7  C   UNL     1     -11.284  11.295  67.669  1.00  0.00    -0.292 C  
HETATM    8  O   UNL     1     -12.416  11.004  68.511  1.00  0.00    -0.713 OA 
HETATM    9  H   UNL     1     -13.183  11.445  68.164  1.00  0.00     0.000 HD 
BRANCH   7  10
HETATM   10  C   UNL     1     -11.126  12.834  67.578  1.00  0.00    -0.263 C  
HETATM   11  H   UNL     1     -11.705  14.437  68.599  1.00  0.00     0.000 HD 
HETATM   12  O   UNL     1     -11.802  13.494  68.655  1.00  0.00    -0.333 OA 
BRANCH  10  13
HETATM   13  C   UNL     1     -11.625  13.402  66.238  1.00  0.00    -0.344 C  
HETATM   14  H   UNL     1     -12.642  12.729  64.695  1.00  0.00     0.000 HD 
HETATM   15  O   UNL     1     -12.334  12.378  65.522  1.00  0.00    -0.621 OA 
BRANCH  13  16
HETATM   16  C   UNL     1     -10.466  13.941  65.374  1.00  0.00    -0.345 C  
HETATM   17  O   UNL     1     -10.122  13.033  64.327  1.00  0.00    -0.587 OA 
HETATM   18  H   UNL     1      -9.408  13.365  63.795  1.00  0.00     0.000 HD 
ENDBRANCH  13  16
ENDBRANCH  10  13
ENDBRANCH   7  10
ENDBRANCH   4   7
ENDBRANCH   2   4
TORSDOF 5
ENDMDL
MODEL      164
REMARK 921   NORMALIZED FREE ENERGY PREDICTED BY IDOCK:   -3.21 KCAL/MOL
REMARK 922        TOTAL FREE ENERGY PREDICTED BY IDOCK:   -4.46 KCAL/MOL
REMARK 923 INTER-LIGAND FREE ENERGY PREDICTED BY IDOCK:   -3.91 KCAL/MOL
REMARK 924 INTRA-LIGAND FREE ENERGY PREDICTED BY IDOCK:   -0.55 KCAL/MOL
REMARK 927      BINDING AFFINITY PREDICTED BY RF-SCORE:    0.00 PKD
ROOT
HETATM    1  O   UNL     1     -12.738  14.772  63.964  1.00  0.00    -0.786 OA 
HETATM    2  C   UNL     1     -12.144  13.681  64.673  1.00  0.00    -0.412 C  
HETATM    3  H   UNL     1     -12.783  14.541  63.043  1.00  0.00     0.000 HD 
ENDROOT
BRANCH   2   4
HETATM    4  C   UNL     1     -12.070  14.055  66.156  1.00  0.00    -0.446 C  
HETATM    5  H   UNL     1     -11.938  13.078  67.852  1.00  0.00     0.000 HD 
HETATM    6  O   UNL     1     -11.984  12.847  66.932  1.00  0.00    -0.385 OA 
BRANCH   4   7
HETATM    7  C   UNL     1     -10.893  14.998  66.500  1.00  0.00    -0.320 C  
HETATM    8  O   UNL     1     -10.928  16.136  65.617  1.00  0.00    -0.253 OA 
HETATM    9  H   UNL     1     -10.205  16.715  65.828  1.00  0.00     0.000 HD 
BRANCH   7  10
HETATM   10  C   UNL     1     -10.918  15.513  67.961  1.00  0.00    -0.311 C  
HETATM   11  H   UNL     1     -12.240  16.280  69.231  1.00  0.00     0.000 HD 
HETATM   12  O   UNL     1     -12.225  15.964  68.335  1.00  0.00    -0.008 OA 
BRANCH  10  13
HETATM   13  C   UNL     1      -9.898  16.638  68.209  1.00  0.00    -0.253 C  
HETATM   14  H   UNL     1      -9.725  18.536  67.726  1.00  0.00     0.000 HD 
HETATM   15  O   UNL     1     -10.355  17.841  67.572  1.00  0.00    -0.340 OA 
BRANCH  13  16
HETATM   16  C   UNL     1      -8.494  16.267  67.689  1.00  0.00    -0.168 C  
HETATM   17  O   UNL     1      -8.140  17.033  66.536  1.00  0.00    -0.231 OA 
HETATM   18  H   UNL     1      -7.275  16.805  66.216  1.00  0.00     0.000 HD 
ENDBRANCH  13  16
ENDBRANCH  10  13
ENDBRANCH   7  10
ENDBRANCH   4   7
ENDBRANCH   2   4
TORSDOF 5
ENDMDL
MODEL      165
REMARK 921   NORMALIZED FREE ENERGY PREDICTED BY IDOCK:   -3.20 KCAL/MOL
REMARK 922        TOTAL FREE ENERGY PREDICTED BY IDOCK:   -4.45 KCAL/MOL
REMARK 923 INTER-LIGAND FREE ENERGY PREDICTED BY IDOCK:   -3.45 KCAL/MOL
REMARK 924 INTRA-LIGAND FREE ENERGY PREDICTED BY IDOCK:   -1.00 KCAL/MOL
REMARK 927      BINDING AFFINITY PREDICTED BY RF-SCORE:    0.00 PKD
ROOT
HETATM    1  O   UNL     1     -11.476   4.285  64.921  1.00  0.00    -1.029 OA 
HETATM    2  C   UNL     1     -10.148   3.802  65.141  1.00  0.00    -0.089 C  
HETATM    3  H   UNL     1     -11.804   3.901  64.116  1.00  0.00     0.000 HD 
ENDROOT
BRANCH   2   4
HETATM    4  C   UNL     1      -9.619   4.422  66.438  1.00  0.00    -0.196 C  
HETATM    5  H   UNL     1      -8.239   3.972  67.757  1.00  0.00     0.000 HD 
HETATM    6  O   UNL     1      -8.567   3.587  66.952  1.00  0.00    -0.103 OA 
BRANCH   4   7
HETATM    7  C   UNL     1      -9.119   5.875  66.271  1.00  0.00    -0.149 C  
HETATM    8  O   UNL     1      -9.041   6.189  64.867  1.00  0.00    -0.347 OA 
HETATM    9  H   UNL     1      -8.732   7.081  64.764  1.00  0.00     0.000 HD 
BRANCH   7  10
HETATM   10  C   UNL     1     -10.027   6.927  66.956  1.00  0.00    -0.197 C  
HETATM   11  H   UNL     1     -11.966   7.198  67.300  1.00  0.00     0.000 HD 
HETATM   12  O   UNL     1     -11.408   6.554  66.880  1.00  0.00    -0.330 OA 
BRANCH  10  13
HETATM   13  C   UNL     1      -9.847   8.338  66.370  1.00  0.00    -0.213 C  
HETATM   14  H   UNL     1      -8.338   9.458  65.789  1.00  0.00     0.000 HD 
HETATM   15  O   UNL     1      -8.450   8.586  66.152  1.00  0.00    -0.118 OA 
BRANCH  13  16
HETATM   16  C   UNL     1     -10.437   9.424  67.293  1.00  0.00    -0.264 C  
HETATM   17  O   UNL     1     -10.846   8.883  68.550  1.00  0.00    -0.418 OA 
HETATM   18  H   UNL     1     -11.209   9.552  69.118  1.00  0.00     0.000 HD 
ENDBRANCH  13  16
ENDBRANCH  10  13
ENDBRANCH   7  10
ENDBRANCH   4   7
ENDBRANCH   2   4
TORSDOF 5
ENDMDL
MODEL      166
REMARK 921   NORMALIZED FREE ENERGY PREDICTED BY IDOCK:   -3.20 KCAL/MOL
REMARK 922        TOTAL FREE ENERGY PREDICTED BY IDOCK:   -4.44 KCAL/MOL
REMARK 923 INTER-LIGAND FREE ENERGY PREDICTED BY IDOCK:   -3.77 KCAL/MOL
REMARK 924 INTRA-LIGAND FREE ENERGY PREDICTED BY IDOCK:   -0.67 KCAL/MOL
REMARK 927      BINDING AFFINITY PREDICTED BY RF-SCORE:    0.00 PKD
ROOT
HETATM    1  O   UNL     1      -5.427  19.597  68.196  1.00  0.00    -0.190 OA 
HETATM    2  C   UNL     1      -5.950  20.928  68.231  1.00  0.00    -0.346 C  
HETATM    3  H   UNL     1      -5.069  19.394  69.052  1.00  0.00     0.000 HD 
ENDROOT
BRANCH   2   4
HETATM    4  C   UNL     1      -6.526  21.255  66.850  1.00  0.00    -0.304 C  
HETATM    5  H   UNL     1      -5.806  21.499  65.042  1.00  0.00     0.000 HD 
HETATM    6  O   UNL     1      -5.448  21.296  65.899  1.00  0.00    -0.222 OA 
BRANCH   4   7
HETATM    7  C   UNL     1      -7.616  20.262  66.383  1.00  0.00    -0.237 C  
HETATM    8  O   UNL     1      -6.984  19.057  65.911  1.00  0.00    -0.243 OA 
HETATM    9  H   UNL     1      -7.653  18.447  65.623  1.00  0.00     0.000 HD 
BRANCH   7  10
HETATM   10  C   UNL     1      -8.626  19.880  67.495  1.00  0.00    -0.337 C  
HETATM   11  H   UNL     1      -9.120  18.267  68.546  1.00  0.00     0.000 HD 
HETATM   12  O   UNL     1      -8.501  18.502  67.864  1.00  0.00    -0.265 OA 
BRANCH  10  13
HETATM   13  C   UNL     1     -10.083  20.173  67.098  1.00  0.00    -0.450 C  
HETATM   14  H   UNL     1     -11.867  19.630  67.723  1.00  0.00     0.000 HD 
HETATM   15  O   UNL     1     -10.967  19.450  67.968  1.00  0.00    -0.239 OA 
BRANCH  13  16
HETATM   16  C   UNL     1     -10.365  19.794  65.629  1.00  0.00    -0.324 C  
HETATM   17  O   UNL     1     -10.445  18.379  65.455  1.00  0.00    -0.610 OA 
HETATM   18  H   UNL     1     -10.620  18.145  64.551  1.00  0.00     0.000 HD 
ENDBRANCH  13  16
ENDBRANCH  10  13
ENDBRANCH   7  10
ENDBRANCH   4   7
ENDBRANCH   2   4
TORSDOF 5
ENDMDL
MODEL      167
REMARK 921   NORMALIZED FREE ENERGY PREDICTED BY IDOCK:   -3.20 KCAL/MOL
REMARK 922        TOTAL FREE ENERGY PREDICTED BY IDOCK:   -4.44 KCAL/MOL
REMARK 923 INTER-LIGAND FREE ENERGY PREDICTED BY IDOCK:   -3.60 KCAL/MOL
REMARK 924 INTRA-LIGAND FREE ENERGY PREDICTED BY IDOCK:   -0.84 KCAL/MOL
REMARK 927      BINDING AFFINITY PREDICTED BY RF-SCORE:    0.00 PKD
ROOT
HETATM    1  O   UNL     1     -11.618   6.596  67.322  1.00  0.00    -0.747 OA 
HETATM    2  C   UNL     1     -10.600   7.558  67.031  1.00  0.00    -0.339 C  
HETATM    3  H   UNL     1     -12.220   6.568  66.588  1.00  0.00     0.000 HD 
ENDROOT
BRANCH   2   4
HETATM    4  C   UNL     1      -9.629   7.605  68.214  1.00  0.00    -0.153 C  
HETATM    5  H   UNL     1      -7.829   8.315  68.535  1.00  0.00     0.000 HD 
HETATM    6  O   UNL     1      -8.431   8.286  67.801  1.00  0.00    -0.129 OA 
BRANCH   4   7
HETATM    7  C   UNL     1     -10.221   8.278  69.474  1.00  0.00    -0.210 C  
HETATM    8  O   UNL     1     -11.378   9.049  69.098  1.00  0.00    -0.423 OA 
HETATM    9  H   UNL     1     -11.741   9.462  69.872  1.00  0.00     0.000 HD 
BRANCH   7  10
HETATM   10  C   UNL     1     -10.641   7.271  70.575  1.00  0.00    -0.222 C  
HETATM   11  H   UNL     1     -12.166   6.053  70.952  1.00  0.00     0.000 HD 
HETATM   12  O   UNL     1     -11.907   6.670  70.278  1.00  0.00    -0.395 OA 
BRANCH  10  13
HETATM   13  C   UNL     1     -10.696   7.911  71.973  1.00  0.00    -0.241 C  
HETATM   14  H   UNL     1     -11.706   9.358  72.840  1.00  0.00     0.000 HD 
HETATM   15  O   UNL     1     -11.673   8.963  71.976  1.00  0.00    -0.350 OA 
BRANCH  13  16
HETATM   16  C   UNL     1      -9.323   8.467  72.405  1.00  0.00    -0.285 C  
HETATM   17  O   UNL     1      -8.402   7.418  72.710  1.00  0.00    -0.107 OA 
HETATM   18  H   UNL     1      -7.556   7.760  72.976  1.00  0.00     0.000 HD 
ENDBRANCH  13  16
ENDBRANCH  10  13
ENDBRANCH   7  10
ENDBRANCH   4   7
ENDBRANCH   2   4
TORSDOF 5
ENDMDL
MODEL      168
REMARK 921   NORMALIZED FREE ENERGY PREDICTED BY IDOCK:   -3.19 KCAL/MOL
REMARK 922        TOTAL FREE ENERGY PREDICTED BY IDOCK:   -4.43 KCAL/MOL
REMARK 923 INTER-LIGAND FREE ENERGY PREDICTED BY IDOCK:   -3.96 KCAL/MOL
REMARK 924 INTRA-LIGAND FREE ENERGY PREDICTED BY IDOCK:   -0.48 KCAL/MOL
REMARK 927      BINDING AFFINITY PREDICTED BY RF-SCORE:    0.00 PKD
ROOT
HETATM    1  O   UNL     1      -8.456  14.242  69.228  1.00  0.00    -0.361 OA 
HETATM    2  C   UNL     1      -8.574  14.477  67.822  1.00  0.00    -0.175 C  
HETATM    3  H   UNL     1      -7.601  14.545  69.511  1.00  0.00     0.000 HD 
ENDROOT
BRANCH   2   4
HETATM    4  C   UNL     1      -9.952  13.988  67.366  1.00  0.00    -0.243 C  
HETATM    5  H   UNL     1     -11.398  12.918  68.146  1.00  0.00     0.000 HD 
HETATM    6  O   UNL     1     -10.543  13.221  68.429  1.00  0.00    -0.240 OA 
BRANCH   4   7
HETATM    7  C   UNL     1     -10.902  15.129  66.935  1.00  0.00    -0.317 C  
HETATM    8  O   UNL     1     -12.204  14.899  67.506  1.00  0.00    -0.494 OA 
HETATM    9  H   UNL     1     -12.789  15.600  67.240  1.00  0.00     0.000 HD 
BRANCH   7  10
HETATM   10  C   UNL     1     -10.420  16.536  67.370  1.00  0.00    -0.310 C  
HETATM   11  H   UNL     1     -10.845  17.867  68.784  1.00  0.00     0.000 HD 
HETATM   12  O   UNL     1     -11.141  17.004  68.517  1.00  0.00    -0.300 OA 
BRANCH  10  13
HETATM   13  C   UNL     1     -10.528  17.575  66.241  1.00  0.00    -0.283 C  
HETATM   14  H   UNL     1     -10.531  17.548  64.275  1.00  0.00     0.000 HD 
HETATM   15  O   UNL     1     -10.464  16.906  64.972  1.00  0.00    -0.675 OA 
BRANCH  13  16
HETATM   16  C   UNL     1      -9.414  18.639  66.330  1.00  0.00    -0.260 C  
HETATM   17  O   UNL     1      -9.381  19.261  67.615  1.00  0.00    -0.297 OA 
HETATM   18  H   UNL     1      -8.695  19.916  67.671  1.00  0.00     0.000 HD 
ENDBRANCH  13  16
ENDBRANCH  10  13
ENDBRANCH   7  10
ENDBRANCH   4   7
ENDBRANCH   2   4
TORSDOF 5
ENDMDL
MODEL      169
REMARK 921   NORMALIZED FREE ENERGY PREDICTED BY IDOCK:   -3.19 KCAL/MOL
REMARK 922        TOTAL FREE ENERGY PREDICTED BY IDOCK:   -4.43 KCAL/MOL
REMARK 923 INTER-LIGAND FREE ENERGY PREDICTED BY IDOCK:   -4.23 KCAL/MOL
REMARK 924 INTRA-LIGAND FREE ENERGY PREDICTED BY IDOCK:   -0.21 KCAL/MOL
REMARK 927      BINDING AFFINITY PREDICTED BY RF-SCORE:    0.00 PKD
ROOT
HETATM    1  O   UNL     1      -8.809  10.862  69.514  1.00  0.00    -0.391 OA 
HETATM    2  C   UNL     1      -9.667  11.427  68.518  1.00  0.00    -0.197 C  
HETATM    3  H   UNL     1      -8.923  11.353  70.319  1.00  0.00     0.000 HD 
ENDROOT
BRANCH   2   4
HETATM    4  C   UNL     1      -9.484  10.635  67.220  1.00  0.00    -0.158 C  
HETATM    5  H   UNL     1     -10.556   9.365  66.178  1.00  0.00     0.000 HD 
HETATM    6  O   UNL     1     -10.670   9.856  66.984  1.00  0.00    -0.231 OA 
BRANCH   4   7
HETATM    7  C   UNL     1      -9.171  11.522  65.992  1.00  0.00    -0.217 C  
HETATM    8  O   UNL     1      -7.992  11.019  65.335  1.00  0.00    -0.357 OA 
HETATM    9  H   UNL     1      -7.800  11.564  64.581  1.00  0.00     0.000 HD 
BRANCH   7  10
HETATM   10  C   UNL     1     -10.322  11.575  64.956  1.00  0.00    -0.281 C  
HETATM   11  H   UNL     1     -10.755  10.767  63.192  1.00  0.00     0.000 HD 
HETATM   12  O   UNL     1     -10.049  10.735  63.828  1.00  0.00    -0.322 OA 
BRANCH  10  13
HETATM   13  C   UNL     1     -10.616  13.004  64.469  1.00  0.00    -0.393 C  
HETATM   14  H   UNL     1     -10.030  14.820  64.944  1.00  0.00     0.000 HD 
HETATM   15  O   UNL     1      -9.849  13.937  65.245  1.00  0.00    -0.252 OA 
BRANCH  13  16
HETATM   16  C   UNL     1     -12.117  13.348  64.565  1.00  0.00    -0.409 C  
HETATM   17  O   UNL     1     -12.608  13.911  63.348  1.00  0.00    -1.018 OA 
HETATM   18  H   UNL     1     -13.532  14.123  63.407  1.00  0.00     0.000 HD 
ENDBRANCH  13  16
ENDBRANCH  10  13
ENDBRANCH   7  10
ENDBRANCH   4   7
ENDBRANCH   2   4
TORSDOF 5
ENDMDL
MODEL      170
REMARK 921   NORMALIZED FREE ENERGY PREDICTED BY IDOCK:   -3.17 KCAL/MOL
REMARK 922        TOTAL FREE ENERGY PREDICTED BY IDOCK:   -4.41 KCAL/MOL
REMARK 923 INTER-LIGAND FREE ENERGY PREDICTED BY IDOCK:   -3.63 KCAL/MOL
REMARK 924 INTRA-LIGAND FREE ENERGY PREDICTED BY IDOCK:   -0.78 KCAL/MOL
REMARK 927      BINDING AFFINITY PREDICTED BY RF-SCORE:    0.00 PKD
ROOT
HETATM    1  O   UNL     1      -7.901   8.612  73.842  1.00  0.00    -0.406 OA 
HETATM    2  C   UNL     1      -8.907   7.610  74.016  1.00  0.00    -0.252 C  
HETATM    3  H   UNL     1      -7.444   8.723  74.668  1.00  0.00     0.000 HD 
ENDROOT
BRANCH   2   4
HETATM    4  C   UNL     1      -9.642   7.430  72.685  1.00  0.00    -0.160 C  
HETATM    5  H   UNL     1     -11.101   6.300  72.019  1.00  0.00     0.000 HD 
HETATM    6  O   UNL     1     -10.645   6.412  72.845  1.00  0.00    -0.212 OA 
BRANCH   4   7
HETATM    7  C   UNL     1     -10.281   8.733  72.150  1.00  0.00    -0.301 C  
HETATM    8  O   UNL     1      -9.286   9.485  71.430  1.00  0.00    -0.302 OA 
HETATM    9  H   UNL     1      -9.679  10.286  71.101  1.00  0.00     0.000 HD 
BRANCH   7  10
HETATM   10  C   UNL     1     -11.487   8.490  71.207  1.00  0.00    -0.277 C  
HETATM   11  H   UNL     1     -11.847   8.467  69.252  1.00  0.00     0.000 HD 
HETATM   12  O   UNL     1     -11.108   8.616  69.831  1.00  0.00    -0.218 OA 
BRANCH  10  13
HETATM   13  C   UNL     1     -12.667   9.433  71.499  1.00  0.00    -0.361 C  
HETATM   14  H   UNL     1     -14.619   9.265  71.664  1.00  0.00     0.000 HD 
HETATM   15  O   UNL     1     -13.891   8.682  71.483  1.00  0.00    -0.371 OA 
BRANCH  13  16
HETATM   16  C   UNL     1     -12.746  10.589  70.480  1.00  0.00    -0.305 C  
HETATM   17  O   UNL     1     -11.578  11.410  70.522  1.00  0.00    -0.467 OA 
HETATM   18  H   UNL     1     -11.626  12.121  69.895  1.00  0.00     0.000 HD 
ENDBRANCH  13  16
ENDBRANCH  10  13
ENDBRANCH   7  10
ENDBRANCH   4   7
ENDBRANCH   2   4
TORSDOF 5
ENDMDL
MODEL      171
REMARK 921   NORMALIZED FREE ENERGY PREDICTED BY IDOCK:   -3.17 KCAL/MOL
REMARK 922        TOTAL FREE ENERGY PREDICTED BY IDOCK:   -4.41 KCAL/MOL
REMARK 923 INTER-LIGAND FREE ENERGY PREDICTED BY IDOCK:   -4.12 KCAL/MOL
REMARK 924 INTRA-LIGAND FREE ENERGY PREDICTED BY IDOCK:   -0.29 KCAL/MOL
REMARK 927      BINDING AFFINITY PREDICTED BY RF-SCORE:    0.00 PKD
ROOT
HETATM    1  O   UNL     1     -10.078  14.548  64.385  1.00  0.00    -0.560 OA 
HETATM    2  C   UNL     1     -11.335  14.020  64.817  1.00  0.00    -0.366 C  
HETATM    3  H   UNL     1     -10.230  15.408  64.009  1.00  0.00     0.000 HD 
ENDROOT
BRANCH   2   4
HETATM    4  C   UNL     1     -11.091  12.634  65.423  1.00  0.00    -0.292 C  
HETATM    5  H   UNL     1     -12.018  11.469  66.700  1.00  0.00     0.000 HD 
HETATM    6  O   UNL     1     -12.169  12.329  66.324  1.00  0.00    -0.628 OA 
BRANCH   4   7
HETATM    7  C   UNL     1     -10.942  11.514  64.366  1.00  0.00    -0.324 C  
HETATM    8  O   UNL     1     -11.638  11.902  63.167  1.00  0.00    -0.685 OA 
HETATM    9  H   UNL     1     -11.547  11.214  62.518  1.00  0.00     0.000 HD 
BRANCH   7  10
HETATM   10  C   UNL     1      -9.469  11.203  63.997  1.00  0.00    -0.214 C  
HETATM   11  H   UNL     1      -8.430  10.704  62.378  1.00  0.00     0.000 HD 
HETATM   12  O   UNL     1      -9.333  10.896  62.605  1.00  0.00    -0.293 OA 
BRANCH  10  13
HETATM   13  C   UNL     1      -8.880  10.053  64.833  1.00  0.00    -0.192 C  
HETATM   14  H   UNL     1      -9.563   8.725  66.112  1.00  0.00     0.000 HD 
HETATM   15  O   UNL     1      -9.927   9.435  65.596  1.00  0.00    -0.304 OA 
BRANCH  13  16
HETATM   16  C   UNL     1      -7.762  10.543  65.777  1.00  0.00    -0.145 C  
HETATM   17  O   UNL     1      -8.192  10.562  67.139  1.00  0.00    -0.121 OA 
HETATM   18  H   UNL     1      -7.503  10.863  67.720  1.00  0.00     0.000 HD 
ENDBRANCH  13  16
ENDBRANCH  10  13
ENDBRANCH   7  10
ENDBRANCH   4   7
ENDBRANCH   2   4
TORSDOF 5
ENDMDL
MODEL      172
REMARK 921   NORMALIZED FREE ENERGY PREDICTED BY IDOCK:   -3.16 KCAL/MOL
REMARK 922        TOTAL FREE ENERGY PREDICTED BY IDOCK:   -4.40 KCAL/MOL
REMARK 923 INTER-LIGAND FREE ENERGY PREDICTED BY IDOCK:   -3.53 KCAL/MOL
REMARK 924 INTRA-LIGAND FREE ENERGY PREDICTED BY IDOCK:   -0.87 KCAL/MOL
REMARK 927      BINDING AFFINITY PREDICTED BY RF-SCORE:    0.00 PKD
ROOT
HETATM    1  O   UNL     1     -11.249  16.976  64.697  1.00  0.00    -0.968 OA 
HETATM    2  C   UNL     1     -11.101  17.765  65.881  1.00  0.00     0.493 C  
HETATM    3  H   UNL     1     -12.147  17.053  64.397  1.00  0.00     0.000 HD 
ENDROOT
BRANCH   2   4
HETATM    4  C   UNL     1      -9.653  17.640  66.365  1.00  0.00    -0.274 C  
HETATM    5  H   UNL     1      -8.174  18.877  66.727  1.00  0.00     0.000 HD 
HETATM    6  O   UNL     1      -9.072  18.955  66.427  1.00  0.00    -0.317 OA 
BRANCH   4   7
HETATM    7  C   UNL     1      -9.516  16.928  67.731  1.00  0.00    -0.237 C  
HETATM    8  O   UNL     1     -10.465  17.495  68.655  1.00  0.00    -0.356 OA 
HETATM    9  H   UNL     1     -10.380  17.058  69.494  1.00  0.00     0.000 HD 
BRANCH   7  10
HETATM   10  C   UNL     1      -9.757  15.399  67.660  1.00  0.00    -0.211 C  
HETATM   11  H   UNL     1      -9.540  13.933  66.335  1.00  0.00     0.000 HD 
HETATM   12  O   UNL     1      -9.392  14.871  66.379  1.00  0.00    -0.269 OA 
BRANCH  10  13
HETATM   13  C   UNL     1     -11.213  15.013  67.975  1.00  0.00    -0.316 C  
HETATM   14  H   UNL     1     -12.223  14.437  69.561  1.00  0.00     0.000 HD 
HETATM   15  O   UNL     1     -11.324  14.674  69.366  1.00  0.00    -0.257 OA 
BRANCH  13  16
HETATM   16  C   UNL     1     -11.697  13.834  67.106  1.00  0.00    -0.385 C  
HETATM   17  O   UNL     1     -12.367  14.287  65.928  1.00  0.00    -0.430 OA 
HETATM   18  H   UNL     1     -12.664  13.561  65.393  1.00  0.00     0.000 HD 
ENDBRANCH  13  16
ENDBRANCH  10  13
ENDBRANCH   7  10
ENDBRANCH   4   7
ENDBRANCH   2   4
TORSDOF 5
ENDMDL
MODEL      173
REMARK 921   NORMALIZED FREE ENERGY PREDICTED BY IDOCK:   -3.14 KCAL/MOL
REMARK 922        TOTAL FREE ENERGY PREDICTED BY IDOCK:   -4.37 KCAL/MOL
REMARK 923 INTER-LIGAND FREE ENERGY PREDICTED BY IDOCK:   -3.82 KCAL/MOL
REMARK 924 INTRA-LIGAND FREE ENERGY PREDICTED BY IDOCK:   -0.55 KCAL/MOL
REMARK 927      BINDING AFFINITY PREDICTED BY RF-SCORE:    0.00 PKD
ROOT
HETATM    1  O   UNL     1     -13.733   9.669  70.974  1.00  0.00    -0.503 OA 
HETATM    2  C   UNL     1     -14.128   8.705  71.953  1.00  0.00    -0.443 C  
HETATM    3  H   UNL     1     -14.417  10.325  70.907  1.00  0.00     0.000 HD 
ENDROOT
BRANCH   2   4
HETATM    4  C   UNL     1     -13.025   7.648  72.060  1.00  0.00    -0.197 C  
HETATM    5  H   UNL     1     -12.205   6.337  70.854  1.00  0.00     0.000 HD 
HETATM    6  O   UNL     1     -12.890   6.992  70.787  1.00  0.00    -0.246 OA 
BRANCH   4   7
HETATM    7  C   UNL     1     -11.662   8.220  72.516  1.00  0.00    -0.383 C  
HETATM    8  O   UNL     1     -11.232   7.524  73.702  1.00  0.00    -0.583 OA 
HETATM    9  H   UNL     1     -10.395   7.875  73.983  1.00  0.00     0.000 HD 
BRANCH   7  10
HETATM   10  C   UNL     1     -10.548   8.095  71.446  1.00  0.00    -0.220 C  
HETATM   11  H   UNL     1      -8.737   7.292  71.293  1.00  0.00     0.000 HD 
HETATM   12  O   UNL     1      -9.420   7.368  71.948  1.00  0.00    -0.144 OA 
BRANCH  10  13
HETATM   13  C   UNL     1     -10.080   9.462  70.917  1.00  0.00    -0.296 C  
HETATM   14  H   UNL     1     -10.781  10.831  69.692  1.00  0.00     0.000 HD 
HETATM   15  O   UNL     1     -11.070   9.988  70.019  1.00  0.00    -0.256 OA 
BRANCH  13  16
HETATM   16  C   UNL     1      -8.718   9.365  70.199  1.00  0.00    -0.221 C  
HETATM   17  O   UNL     1      -7.720  10.150  70.853  1.00  0.00    -0.331 OA 
HETATM   18  H   UNL     1      -6.881  10.090  70.412  1.00  0.00     0.000 HD 
ENDBRANCH  13  16
ENDBRANCH  10  13
ENDBRANCH   7  10
ENDBRANCH   4   7
ENDBRANCH   2   4
TORSDOF 5
ENDMDL
MODEL      174
REMARK 921   NORMALIZED FREE ENERGY PREDICTED BY IDOCK:   -3.13 KCAL/MOL
REMARK 922        TOTAL FREE ENERGY PREDICTED BY IDOCK:   -4.36 KCAL/MOL
REMARK 923 INTER-LIGAND FREE ENERGY PREDICTED BY IDOCK:   -3.43 KCAL/MOL
REMARK 924 INTRA-LIGAND FREE ENERGY PREDICTED BY IDOCK:   -0.93 KCAL/MOL
REMARK 927      BINDING AFFINITY PREDICTED BY RF-SCORE:    0.00 PKD
ROOT
HETATM    1  O   UNL     1      -8.791  14.911  67.688  1.00  0.00    -0.170 OA 
HETATM    2  C   UNL     1      -7.459  15.148  67.222  1.00  0.00    -0.194 C  
HETATM    3  H   UNL     1      -8.990  13.990  67.566  1.00  0.00     0.000 HD 
ENDROOT
BRANCH   2   4
HETATM    4  C   UNL     1      -7.138  16.633  67.418  1.00  0.00    -0.160 C  
HETATM    5  H   UNL     1      -5.510  17.712  67.598  1.00  0.00     0.000 HD 
HETATM    6  O   UNL     1      -5.709  16.791  67.477  1.00  0.00    -0.126 OA 
BRANCH   4   7
HETATM    7  C   UNL     1      -7.734  17.546  66.322  1.00  0.00    -0.298 C  
HETATM    8  O   UNL     1      -8.733  16.811  65.589  1.00  0.00    -0.441 OA 
HETATM    9  H   UNL     1      -9.100  17.372  64.915  1.00  0.00     0.000 HD 
BRANCH   7  10
HETATM   10  C   UNL     1      -8.388  18.836  66.878  1.00  0.00    -0.270 C  
HETATM   11  H   UNL     1      -8.431  19.846  68.589  1.00  0.00     0.000 HD 
HETATM   12  O   UNL     1      -8.030  19.055  68.248  1.00  0.00    -0.290 OA 
BRANCH  10  13
HETATM   13  C   UNL     1      -9.921  18.829  66.745  1.00  0.00    -0.358 C  
HETATM   14  H   UNL     1     -11.335  20.170  66.486  1.00  0.00     0.000 HD 
HETATM   15  O   UNL     1     -10.389  20.174  66.568  1.00  0.00    -0.440 OA 
BRANCH  13  16
HETATM   16  C   UNL     1     -10.601  18.192  67.975  1.00  0.00    -0.341 C  
HETATM   17  O   UNL     1     -10.906  16.814  67.755  1.00  0.00    -0.341 OA 
HETATM   18  H   UNL     1     -11.324  16.422  68.512  1.00  0.00     0.000 HD 
ENDBRANCH  13  16
ENDBRANCH  10  13
ENDBRANCH   7  10
ENDBRANCH   4   7
ENDBRANCH   2   4
TORSDOF 5
ENDMDL
MODEL      175
REMARK 921   NORMALIZED FREE ENERGY PREDICTED BY IDOCK:   -3.13 KCAL/MOL
REMARK 922        TOTAL FREE ENERGY PREDICTED BY IDOCK:   -4.36 KCAL/MOL
REMARK 923 INTER-LIGAND FREE ENERGY PREDICTED BY IDOCK:   -3.44 KCAL/MOL
REMARK 924 INTRA-LIGAND FREE ENERGY PREDICTED BY IDOCK:   -0.92 KCAL/MOL
REMARK 927      BINDING AFFINITY PREDICTED BY RF-SCORE:    0.00 PKD
ROOT
HETATM    1  O   UNL     1      -9.140   9.009  72.288  1.00  0.00    -0.351 OA 
HETATM    2  C   UNL     1     -10.243   9.282  71.418  1.00  0.00    -0.301 C  
HETATM    3  H   UNL     1      -8.354   9.373  71.898  1.00  0.00     0.000 HD 
ENDROOT
BRANCH   2   4
HETATM    4  C   UNL     1     -11.509   8.695  72.049  1.00  0.00    -0.367 C  
HETATM    5  H   UNL     1     -13.324   9.337  72.427  1.00  0.00     0.000 HD 
HETATM    6  O   UNL     1     -12.538   9.700  72.036  1.00  0.00    -0.379 OA 
BRANCH   4   7
HETATM    7  C   UNL     1     -12.009   7.408  71.353  1.00  0.00    -0.310 C  
HETATM    8  O   UNL     1     -11.745   7.504  69.939  1.00  0.00    -0.483 OA 
HETATM    9  H   UNL     1     -12.052   6.713  69.512  1.00  0.00     0.000 HD 
BRANCH   7  10
HETATM   10  C   UNL     1     -11.341   6.115  71.887  1.00  0.00    -0.296 C  
HETATM   11  H   UNL     1     -10.661   5.416  73.619  1.00  0.00     0.000 HD 
HETATM   12  O   UNL     1     -11.071   6.209  73.291  1.00  0.00    -0.234 OA 
BRANCH  10  13
HETATM   13  C   UNL     1     -10.043   5.766  71.139  1.00  0.00    -0.203 C  
HETATM   14  H   UNL     1      -9.538   4.629  69.616  1.00  0.00     0.000 HD 
HETATM   15  O   UNL     1     -10.339   4.845  70.078  1.00  0.00    -0.268 OA 
BRANCH  13  16
HETATM   16  C   UNL     1      -8.982   5.160  72.081  1.00  0.00    -0.129 C  
HETATM   17  O   UNL     1      -8.276   6.172  72.801  1.00  0.00    -0.116 OA 
HETATM   18  H   UNL     1      -7.623   5.800  73.381  1.00  0.00     0.000 HD 
ENDBRANCH  13  16
ENDBRANCH  10  13
ENDBRANCH   7  10
ENDBRANCH   4   7
ENDBRANCH   2   4
TORSDOF 5
ENDMDL
MODEL      176
REMARK 921   NORMALIZED FREE ENERGY PREDICTED BY IDOCK:   -3.10 KCAL/MOL
REMARK 922        TOTAL FREE ENERGY PREDICTED BY IDOCK:   -4.31 KCAL/MOL
REMARK 923 INTER-LIGAND FREE ENERGY PREDICTED BY IDOCK:   -3.92 KCAL/MOL
REMARK 924 INTRA-LIGAND FREE ENERGY PREDICTED BY IDOCK:   -0.39 KCAL/MOL
REMARK 927      BINDING AFFINITY PREDICTED BY RF-SCORE:    0.00 PKD
ROOT
HETATM    1  O   UNL     1     -11.616   7.655  70.805  1.00  0.00    -0.287 OA 
HETATM    2  C   UNL     1     -11.215   8.861  71.461  1.00  0.00    -0.326 C  
HETATM    3  H   UNL     1     -11.811   7.005  71.470  1.00  0.00     0.000 HD 
ENDROOT
BRANCH   2   4
HETATM    4  C   UNL     1     -10.899   9.909  70.390  1.00  0.00    -0.319 C  
HETATM    5  H   UNL     1     -10.286   9.882  68.526  1.00  0.00     0.000 HD 
HETATM    6  O   UNL     1     -10.481   9.232  69.191  1.00  0.00    -0.210 OA 
BRANCH   4   7
HETATM    7  C   UNL     1     -12.082  10.858  70.084  1.00  0.00    -0.349 C  
HETATM    8  O   UNL     1     -12.935  10.935  71.242  1.00  0.00    -0.384 OA 
HETATM    9  H   UNL     1     -13.662  11.518  71.055  1.00  0.00     0.000 HD 
BRANCH   7  10
HETATM   10  C   UNL     1     -11.642  12.295  69.705  1.00  0.00    -0.278 C  
HETATM   11  H   UNL     1     -11.909  14.144  70.382  1.00  0.00     0.000 HD 
HETATM   12  O   UNL     1     -12.178  13.263  70.615  1.00  0.00    -0.360 OA 
BRANCH  10  13
HETATM   13  C   UNL     1     -12.034  12.674  68.266  1.00  0.00    -0.222 C  
HETATM   14  H   UNL     1     -12.247  11.733  66.553  1.00  0.00     0.000 HD 
HETATM   15  O   UNL     1     -12.005  11.499  67.441  1.00  0.00    -0.623 OA 
BRANCH  13  16
HETATM   16  C   UNL     1     -11.099  13.752  67.680  1.00  0.00    -0.273 C  
HETATM   17  O   UNL     1     -11.325  15.028  68.280  1.00  0.00    -0.290 OA 
HETATM   18  H   UNL     1     -10.749  15.692  67.920  1.00  0.00     0.000 HD 
ENDBRANCH  13  16
ENDBRANCH  10  13
ENDBRANCH   7  10
ENDBRANCH   4   7
ENDBRANCH   2   4
TORSDOF 5
ENDMDL
MODEL      177
REMARK 921   NORMALIZED FREE ENERGY PREDICTED BY IDOCK:   -3.09 KCAL/MOL
REMARK 922        TOTAL FREE ENERGY PREDICTED BY IDOCK:   -4.31 KCAL/MOL
REMARK 923 INTER-LIGAND FREE ENERGY PREDICTED BY IDOCK:   -3.58 KCAL/MOL
REMARK 924 INTRA-LIGAND FREE ENERGY PREDICTED BY IDOCK:   -0.74 KCAL/MOL
REMARK 927      BINDING AFFINITY PREDICTED BY RF-SCORE:    0.00 PKD
ROOT
HETATM    1  O   UNL     1      -8.391  16.441  68.406  1.00  0.00    -0.176 OA 
HETATM    2  C   UNL     1      -8.052  16.219  67.034  1.00  0.00    -0.209 C  
HETATM    3  H   UNL     1      -7.800  17.098  68.757  1.00  0.00     0.000 HD 
ENDROOT
BRANCH   2   4
HETATM    4  C   UNL     1      -9.004  15.161  66.469  1.00  0.00    -0.291 C  
HETATM    5  H   UNL     1      -9.409  13.280  66.849  1.00  0.00     0.000 HD 
HETATM    6  O   UNL     1      -8.818  13.936  67.199  1.00  0.00    -0.209 OA 
BRANCH   4   7
HETATM    7  C   UNL     1     -10.491  15.585  66.503  1.00  0.00    -0.300 C  
HETATM    8  O   UNL     1     -10.975  15.719  65.153  1.00  0.00    -0.387 OA 
HETATM    9  H   UNL     1     -11.888  15.979  65.174  1.00  0.00     0.000 HD 
BRANCH   7  10
HETATM   10  C   UNL     1     -11.405  14.581  67.252  1.00  0.00    -0.350 C  
HETATM   11  H   UNL     1     -13.012  13.478  66.862  1.00  0.00     0.000 HD 
HETATM   12  O   UNL     1     -12.451  14.094  66.403  1.00  0.00    -0.461 OA 
BRANCH  10  13
HETATM   13  C   UNL     1     -12.020  15.179  68.529  1.00  0.00    -0.214 C  
HETATM   14  H   UNL     1     -11.627  16.685  69.730  1.00  0.00     0.000 HD 
HETATM   15  O   UNL     1     -11.247  16.316  68.941  1.00  0.00    -0.331 OA 
BRANCH  13  16
HETATM   16  C   UNL     1     -12.086  14.146  69.673  1.00  0.00    -0.349 C  
HETATM   17  O   UNL     1     -11.884  12.815  69.195  1.00  0.00    -0.298 OA 
HETATM   18  H   UNL     1     -11.924  12.179  69.899  1.00  0.00     0.000 HD 
ENDBRANCH  13  16
ENDBRANCH  10  13
ENDBRANCH   7  10
ENDBRANCH   4   7
ENDBRANCH   2   4
TORSDOF 5
ENDMDL
MODEL      178
REMARK 921   NORMALIZED FREE ENERGY PREDICTED BY IDOCK:   -3.09 KCAL/MOL
REMARK 922        TOTAL FREE ENERGY PREDICTED BY IDOCK:   -4.31 KCAL/MOL
REMARK 923 INTER-LIGAND FREE ENERGY PREDICTED BY IDOCK:   -3.29 KCAL/MOL
REMARK 924 INTRA-LIGAND FREE ENERGY PREDICTED BY IDOCK:   -1.02 KCAL/MOL
REMARK 927      BINDING AFFINITY PREDICTED BY RF-SCORE:    0.00 PKD
ROOT
HETATM    1  O   UNL     1      -8.711   6.388  71.203  1.00  0.00    -0.133 OA 
HETATM    2  C   UNL     1      -9.803   6.312  72.124  1.00  0.00    -0.156 C  
HETATM    3  H   UNL     1      -7.931   6.061  71.637  1.00  0.00     0.000 HD 
ENDROOT
BRANCH   2   4
HETATM    4  C   UNL     1     -11.059   6.839  71.425  1.00  0.00    -0.254 C  
HETATM    5  H   UNL     1     -12.996   6.621  71.649  1.00  0.00     0.000 HD 
HETATM    6  O   UNL     1     -12.216   6.293  72.083  1.00  0.00    -0.328 OA 
BRANCH   4   7
HETATM    7  C   UNL     1     -11.144   8.383  71.384  1.00  0.00    -0.255 C  
HETATM    8  O   UNL     1     -10.122   8.933  72.238  1.00  0.00    -0.294 OA 
HETATM    9  H   UNL     1     -10.174   9.882  72.213  1.00  0.00     0.000 HD 
BRANCH   7  10
HETATM   10  C   UNL     1     -10.966   8.977  69.964  1.00  0.00    -0.214 C  
HETATM   11  H   UNL     1      -9.604   8.950  68.516  1.00  0.00     0.000 HD 
HETATM   12  O   UNL     1      -9.714   8.586  69.387  1.00  0.00    -0.172 OA 
BRANCH  10  13
HETATM   13  C   UNL     1     -11.081  10.511  69.945  1.00  0.00    -0.307 C  
HETATM   14  H   UNL     1     -11.983  11.886  71.022  1.00  0.00     0.000 HD 
HETATM   15  O   UNL     1     -11.912  10.938  71.034  1.00  0.00    -0.326 OA 
BRANCH  13  16
HETATM   16  C   UNL     1     -11.657  11.027  68.610  1.00  0.00    -0.316 C  
HETATM   17  O   UNL     1     -11.659  10.010  67.607  1.00  0.00    -0.535 OA 
HETATM   18  H   UNL     1     -12.014  10.328  66.785  1.00  0.00     0.000 HD 
ENDBRANCH  13  16
ENDBRANCH  10  13
ENDBRANCH   7  10
ENDBRANCH   4   7
ENDBRANCH   2   4
TORSDOF 5
ENDMDL
MODEL      179
REMARK 921   NORMALIZED FREE ENERGY PREDICTED BY IDOCK:   -3.08 KCAL/MOL
REMARK 922        TOTAL FREE ENERGY PREDICTED BY IDOCK:   -4.30 KCAL/MOL
REMARK 923 INTER-LIGAND FREE ENERGY PREDICTED BY IDOCK:   -4.42 KCAL/MOL
REMARK 924 INTRA-LIGAND FREE ENERGY PREDICTED BY IDOCK:    0.12 KCAL/MOL
REMARK 927      BINDING AFFINITY PREDICTED BY RF-SCORE:    0.00 PKD
ROOT
HETATM    1  O   UNL     1     -11.644  15.764  63.852  1.00  0.00    -0.981 OA 
HETATM    2  C   UNL     1     -12.281  14.506  64.091  1.00  0.00    -0.342 C  
HETATM    3  H   UNL     1     -11.978  16.117  63.035  1.00  0.00     0.000 HD 
ENDROOT
BRANCH   2   4
HETATM    4  C   UNL     1     -11.743  13.937  65.408  1.00  0.00    -0.340 C  
HETATM    5  H   UNL     1     -10.087  13.065  65.997  1.00  0.00     0.000 HD 
HETATM    6  O   UNL     1     -10.421  13.418  65.180  1.00  0.00    -0.315 OA 
BRANCH   4   7
HETATM    7  C   UNL     1     -11.724  14.965  66.564  1.00  0.00    -0.199 C  
HETATM    8  O   UNL     1     -12.334  14.375  67.728  1.00  0.00    -0.620 OA 
HETATM    9  H   UNL     1     -12.323  15.007  68.438  1.00  0.00     0.000 HD 
BRANCH   7  10
HETATM   10  C   UNL     1     -10.299  15.440  66.947  1.00  0.00    -0.277 C  
HETATM   11  H   UNL     1      -8.650  16.047  66.020  1.00  0.00     0.000 HD 
HETATM   12  O   UNL     1      -9.523  15.755  65.785  1.00  0.00    -0.335 OA 
BRANCH  10  13
HETATM   13  C   UNL     1      -9.542  14.410  67.803  1.00  0.00    -0.216 C  
HETATM   14  H   UNL     1      -9.174  14.140  69.715  1.00  0.00     0.000 HD 
HETATM   15  O   UNL     1      -9.642  14.777  69.187  1.00  0.00    -0.199 OA 
BRANCH  13  16
HETATM   16  C   UNL     1      -8.058  14.302  67.393  1.00  0.00    -0.196 C  
HETATM   17  O   UNL     1      -7.788  13.079  66.705  1.00  0.00    -0.398 OA 
HETATM   18  H   UNL     1      -6.875  13.013  66.452  1.00  0.00     0.000 HD 
ENDBRANCH  13  16
ENDBRANCH  10  13
ENDBRANCH   7  10
ENDBRANCH   4   7
ENDBRANCH   2   4
TORSDOF 5
ENDMDL
MODEL      180
REMARK 921   NORMALIZED FREE ENERGY PREDICTED BY IDOCK:   -3.06 KCAL/MOL
REMARK 922        TOTAL FREE ENERGY PREDICTED BY IDOCK:   -4.26 KCAL/MOL
REMARK 923 INTER-LIGAND FREE ENERGY PREDICTED BY IDOCK:   -3.69 KCAL/MOL
REMARK 924 INTRA-LIGAND FREE ENERGY PREDICTED BY IDOCK:   -0.57 KCAL/MOL
REMARK 927      BINDING AFFINITY PREDICTED BY RF-SCORE:    0.00 PKD
ROOT
HETATM    1  O   UNL     1     -10.132   8.975  65.827  1.00  0.00    -0.421 OA 
HETATM    2  C   UNL     1      -9.642   8.133  66.875  1.00  0.00    -0.208 C  
HETATM    3  H   UNL     1     -10.201   8.455  65.034  1.00  0.00     0.000 HD 
ENDROOT
BRANCH   2   4
HETATM    4  C   UNL     1      -9.530   8.971  68.152  1.00  0.00    -0.142 C  
HETATM    5  H   UNL     1      -8.869  10.760  68.613  1.00  0.00     0.000 HD 
HETATM    6  O   UNL     1      -8.938  10.240  67.821  1.00  0.00    -0.134 OA 
BRANCH   4   7
HETATM    7  C   UNL     1     -10.881   9.182  68.874  1.00  0.00    -0.070 C  
HETATM    8  O   UNL     1     -11.300   7.937  69.464  1.00  0.00    -0.442 OA 
HETATM    9  H   UNL     1     -12.130   8.066  69.908  1.00  0.00     0.000 HD 
BRANCH   7  10
HETATM   10  C   UNL     1     -10.828  10.258  69.989  1.00  0.00    -0.307 C  
HETATM   11  H   UNL     1     -10.487  10.335  71.945  1.00  0.00     0.000 HD 
HETATM   12  O   UNL     1     -10.521   9.676  71.261  1.00  0.00    -0.301 OA 
BRANCH  10  13
HETATM   13  C   UNL     1     -12.134  11.064  70.098  1.00  0.00    -0.356 C  
HETATM   14  H   UNL     1     -12.627  12.947  70.375  1.00  0.00     0.000 HD 
HETATM   15  O   UNL     1     -11.821  12.449  70.308  1.00  0.00    -0.322 OA 
BRANCH  13  16
HETATM   16  C   UNL     1     -13.034  10.549  71.240  1.00  0.00    -0.433 C  
HETATM   17  O   UNL     1     -13.475   9.211  71.001  1.00  0.00    -0.555 OA 
HETATM   18  H   UNL     1     -14.029   8.894  71.705  1.00  0.00     0.000 HD 
ENDBRANCH  13  16
ENDBRANCH  10  13
ENDBRANCH   7  10
ENDBRANCH   4   7
ENDBRANCH   2   4
TORSDOF 5
ENDMDL
MODEL      181
REMARK 921   NORMALIZED FREE ENERGY PREDICTED BY IDOCK:   -3.06 KCAL/MOL
REMARK 922        TOTAL FREE ENERGY PREDICTED BY IDOCK:   -4.26 KCAL/MOL
REMARK 923 INTER-LIGAND FREE ENERGY PREDICTED BY IDOCK:   -4.09 KCAL/MOL
REMARK 924 INTRA-LIGAND FREE ENERGY PREDICTED BY IDOCK:   -0.17 KCAL/MOL
REMARK 927      BINDING AFFINITY PREDICTED BY RF-SCORE:    0.00 PKD
ROOT
HETATM    1  O   UNL     1      -8.545  12.560  68.559  1.00  0.00    -0.292 OA 
HETATM    2  C   UNL     1      -8.388  13.972  68.386  1.00  0.00    -0.162 C  
HETATM    3  H   UNL     1      -7.738  12.213  68.921  1.00  0.00     0.000 HD 
ENDROOT
BRANCH   2   4
HETATM    4  C   UNL     1      -9.688  14.531  67.801  1.00  0.00    -0.216 C  
HETATM    5  H   UNL     1     -11.061  15.809  68.379  1.00  0.00     0.000 HD 
HETATM    6  O   UNL     1     -10.254  15.461  68.742  1.00  0.00    -0.205 OA 
BRANCH   4   7
HETATM    7  C   UNL     1      -9.507  15.207  66.422  1.00  0.00    -0.296 C  
HETATM    8  O   UNL     1      -9.696  14.224  65.387  1.00  0.00    -0.533 OA 
HETATM    9  H   UNL     1      -9.584  14.639  64.539  1.00  0.00     0.000 HD 
BRANCH   7  10
HETATM   10  C   UNL     1     -10.491  16.377  66.170  1.00  0.00    -0.314 C  
HETATM   11  H   UNL     1     -11.460  17.182  64.633  1.00  0.00     0.000 HD 
HETATM   12  O   UNL     1     -10.857  16.464  64.788  1.00  0.00    -0.697 OA 
BRANCH  10  13
HETATM   13  C   UNL     1      -9.932  17.733  66.637  1.00  0.00    -0.338 C  
HETATM   14  H   UNL     1      -9.968  19.588  65.989  1.00  0.00     0.000 HD 
HETATM   15  O   UNL     1     -10.313  18.752  65.700  1.00  0.00    -0.551 OA 
BRANCH  13  16
HETATM   16  C   UNL     1      -8.396  17.701  66.783  1.00  0.00    -0.251 C  
HETATM   17  O   UNL     1      -7.997  17.707  68.155  1.00  0.00    -0.238 OA 
HETATM   18  H   UNL     1      -7.052  17.688  68.245  1.00  0.00     0.000 HD 
ENDBRANCH  13  16
ENDBRANCH  10  13
ENDBRANCH   7  10
ENDBRANCH   4   7
ENDBRANCH   2   4
TORSDOF 5
ENDMDL
MODEL      182
REMARK 921   NORMALIZED FREE ENERGY PREDICTED BY IDOCK:   -3.05 KCAL/MOL
REMARK 922        TOTAL FREE ENERGY PREDICTED BY IDOCK:   -4.26 KCAL/MOL
REMARK 923 INTER-LIGAND FREE ENERGY PREDICTED BY IDOCK:   -3.35 KCAL/MOL
REMARK 924 INTRA-LIGAND FREE ENERGY PREDICTED BY IDOCK:   -0.91 KCAL/MOL
REMARK 927      BINDING AFFINITY PREDICTED BY RF-SCORE:    0.00 PKD
ROOT
HETATM    1  O   UNL     1      -7.447  11.183  65.727  1.00  0.00    -0.361 OA 
HETATM    2  C   UNL     1      -8.059  10.033  66.318  1.00  0.00    -0.117 C  
HETATM    3  H   UNL     1      -6.521  11.004  65.615  1.00  0.00     0.000 HD 
ENDROOT
BRANCH   2   4
HETATM    4  C   UNL     1      -9.552  10.323  66.499  1.00  0.00    -0.181 C  
HETATM    5  H   UNL     1     -11.203   9.263  66.526  1.00  0.00     0.000 HD 
HETATM    6  O   UNL     1     -10.276   9.083  66.414  1.00  0.00    -0.288 OA 
BRANCH   4   7
HETATM    7  C   UNL     1      -9.886  11.049  67.823  1.00  0.00    -0.173 C  
HETATM    8  O   UNL     1      -8.666  11.534  68.415  1.00  0.00    -0.153 OA 
HETATM    9  H   UNL     1      -8.871  11.980  69.229  1.00  0.00     0.000 HD 
BRANCH   7  10
HETATM   10  C   UNL     1     -10.853  12.247  67.647  1.00  0.00    -0.225 C  
HETATM   11  H   UNL     1     -12.793  12.540  67.328  1.00  0.00     0.000 HD 
HETATM   12  O   UNL     1     -12.199  11.806  67.436  1.00  0.00    -0.501 OA 
BRANCH  10  13
HETATM   13  C   UNL     1     -10.436  13.180  66.496  1.00  0.00    -0.279 C  
HETATM   14  H   UNL     1      -8.783  14.068  65.910  1.00  0.00     0.000 HD 
HETATM   15  O   UNL     1      -9.040  13.492  66.620  1.00  0.00    -0.234 OA 
BRANCH  13  16
HETATM   16  C   UNL     1     -11.266  14.481  66.482  1.00  0.00    -0.344 C  
HETATM   17  O   UNL     1     -12.653  14.219  66.264  1.00  0.00    -0.488 OA 
HETATM   18  H   UNL     1     -13.164  15.020  66.255  1.00  0.00     0.000 HD 
ENDBRANCH  13  16
ENDBRANCH  10  13
ENDBRANCH   7  10
ENDBRANCH   4   7
ENDBRANCH   2   4
TORSDOF 5
ENDMDL
MODEL      183
REMARK 921   NORMALIZED FREE ENERGY PREDICTED BY IDOCK:   -3.05 KCAL/MOL
REMARK 922        TOTAL FREE ENERGY PREDICTED BY IDOCK:   -4.25 KCAL/MOL
REMARK 923 INTER-LIGAND FREE ENERGY PREDICTED BY IDOCK:   -3.71 KCAL/MOL
REMARK 924 INTRA-LIGAND FREE ENERGY PREDICTED BY IDOCK:   -0.54 KCAL/MOL
REMARK 927      BINDING AFFINITY PREDICTED BY RF-SCORE:    0.00 PKD
ROOT
HETATM    1  O   UNL     1     -10.160  14.456  64.426  1.00  0.00    -0.610 OA 
HETATM    2  C   UNL     1     -11.415  14.233  65.075  1.00  0.00    -0.364 C  
HETATM    3  H   UNL     1     -10.297  15.070  63.714  1.00  0.00     0.000 HD 
ENDROOT
BRANCH   2   4
HETATM    4  C   UNL     1     -11.193  13.243  66.222  1.00  0.00    -0.299 C  
HETATM    5  H   UNL     1     -12.059  12.857  67.940  1.00  0.00     0.000 HD 
HETATM    6  O   UNL     1     -12.196  13.472  67.228  1.00  0.00    -0.351 OA 
BRANCH   4   7
HETATM    7  C   UNL     1     -11.211  11.762  65.775  1.00  0.00    -0.281 C  
HETATM    8  O   UNL     1     -11.439  11.702  64.354  1.00  0.00    -0.304 OA 
HETATM    9  H   UNL     1     -11.450  10.792  64.079  1.00  0.00     0.000 HD 
BRANCH   7  10
HETATM   10  C   UNL     1      -9.897  11.004  66.091  1.00  0.00    -0.225 C  
HETATM   11  H   UNL     1      -8.770   9.597  65.253  1.00  0.00     0.000 HD 
HETATM   12  O   UNL     1      -9.576  10.062  65.060  1.00  0.00    -0.258 OA 
BRANCH  10  13
HETATM   13  C   UNL     1      -9.943  10.279  67.447  1.00  0.00    -0.189 C  
HETATM   14  H   UNL     1     -11.336   9.536  68.619  1.00  0.00     0.000 HD 
HETATM   15  O   UNL     1     -11.307   9.983  67.782  1.00  0.00    -0.209 OA 
BRANCH  13  16
HETATM   16  C   UNL     1      -9.296  11.118  68.570  1.00  0.00    -0.190 C  
HETATM   17  O   UNL     1     -10.280  11.703  69.424  1.00  0.00    -0.425 OA 
HETATM   18  H   UNL     1      -9.883  12.219  70.115  1.00  0.00     0.000 HD 
ENDBRANCH  13  16
ENDBRANCH  10  13
ENDBRANCH   7  10
ENDBRANCH   4   7
ENDBRANCH   2   4
TORSDOF 5
ENDMDL
MODEL      184
REMARK 921   NORMALIZED FREE ENERGY PREDICTED BY IDOCK:   -3.05 KCAL/MOL
REMARK 922        TOTAL FREE ENERGY PREDICTED BY IDOCK:   -4.25 KCAL/MOL
REMARK 923 INTER-LIGAND FREE ENERGY PREDICTED BY IDOCK:   -3.46 KCAL/MOL
REMARK 924 INTRA-LIGAND FREE ENERGY PREDICTED BY IDOCK:   -0.79 KCAL/MOL
REMARK 927      BINDING AFFINITY PREDICTED BY RF-SCORE:    0.00 PKD
ROOT
HETATM    1  O   UNL     1     -13.684   9.774  70.493  1.00  0.00    -0.547 OA 
HETATM    2  C   UNL     1     -13.506   9.363  71.852  1.00  0.00    -0.426 C  
HETATM    3  H   UNL     1     -14.168  10.592  70.490  1.00  0.00     0.000 HD 
ENDROOT
BRANCH   2   4
HETATM    4  C   UNL     1     -12.726   8.045  71.856  1.00  0.00    -0.327 C  
HETATM    5  H   UNL     1     -13.073   6.197  71.297  1.00  0.00     0.000 HD 
HETATM    6  O   UNL     1     -13.557   7.015  71.294  1.00  0.00    -0.319 OA 
BRANCH   4   7
HETATM    7  C   UNL     1     -11.379   8.120  71.099  1.00  0.00    -0.269 C  
HETATM    8  O   UNL     1     -10.783   9.412  71.325  1.00  0.00    -0.316 OA 
HETATM    9  H   UNL     1      -9.956   9.458  70.859  1.00  0.00     0.000 HD 
BRANCH   7  10
HETATM   10  C   UNL     1     -10.364   7.031  71.530  1.00  0.00    -0.203 C  
HETATM   11  H   UNL     1     -10.043   5.099  71.192  1.00  0.00     0.000 HD 
HETATM   12  O   UNL     1     -10.665   5.767  70.928  1.00  0.00    -0.251 OA 
BRANCH  10  13
HETATM   13  C   UNL     1     -10.289   6.863  73.058  1.00  0.00    -0.244 C  
HETATM   14  H   UNL     1      -9.585   7.901  74.573  1.00  0.00     0.000 HD 
HETATM   15  O   UNL     1      -9.631   8.005  73.630  1.00  0.00    -0.238 OA 
BRANCH  13  16
HETATM   16  C   UNL     1      -9.545   5.573  73.459  1.00  0.00    -0.139 C  
HETATM   17  O   UNL     1     -10.450   4.489  73.679  1.00  0.00    -0.177 OA 
HETATM   18  H   UNL     1      -9.992   3.694  73.925  1.00  0.00     0.000 HD 
ENDBRANCH  13  16
ENDBRANCH  10  13
ENDBRANCH   7  10
ENDBRANCH   4   7
ENDBRANCH   2   4
TORSDOF 5
ENDMDL
MODEL      185
REMARK 921   NORMALIZED FREE ENERGY PREDICTED BY IDOCK:   -3.05 KCAL/MOL
REMARK 922        TOTAL FREE ENERGY PREDICTED BY IDOCK:   -4.25 KCAL/MOL
REMARK 923 INTER-LIGAND FREE ENERGY PREDICTED BY IDOCK:   -3.62 KCAL/MOL
REMARK 924 INTRA-LIGAND FREE ENERGY PREDICTED BY IDOCK:   -0.62 KCAL/MOL
REMARK 927      BINDING AFFINITY PREDICTED BY RF-SCORE:    0.00 PKD
ROOT
HETATM    1  O   UNL     1     -13.380  12.148  64.229  1.00  0.00    -0.761 OA 
HETATM    2  C   UNL     1     -12.246  12.865  63.734  1.00  0.00    -0.476 C  
HETATM    3  H   UNL     1     -14.153  12.686  64.101  1.00  0.00     0.000 HD 
ENDROOT
BRANCH   2   4
HETATM    4  C   UNL     1     -11.001  11.999  63.940  1.00  0.00    -0.401 C  
HETATM    5  H   UNL     1      -9.309  11.710  62.990  1.00  0.00     0.000 HD 
HETATM    6  O   UNL     1     -10.082  12.247  62.862  1.00  0.00    -0.168 OA 
BRANCH   4   7
HETATM    7  C   UNL     1     -10.305  12.229  65.302  1.00  0.00    -0.281 C  
HETATM    8  O   UNL     1     -11.281  12.683  66.259  1.00  0.00    -0.285 OA 
HETATM    9  H   UNL     1     -10.854  12.825  67.096  1.00  0.00     0.000 HD 
BRANCH   7  10
HETATM   10  C   UNL     1      -9.618  10.961  65.870  1.00  0.00    -0.216 C  
HETATM   11  H   UNL     1      -9.436   9.042  65.385  1.00  0.00     0.000 HD 
HETATM   12  O   UNL     1      -9.858   9.820  65.038  1.00  0.00    -0.306 OA 
BRANCH  10  13
HETATM   13  C   UNL     1     -10.057  10.644  67.310  1.00  0.00    -0.199 C  
HETATM   14  H   UNL     1      -9.200  10.575  69.078  1.00  0.00     0.000 HD 
HETATM   15  O   UNL     1      -8.929  10.770  68.189  1.00  0.00    -0.132 OA 
BRANCH  13  16
HETATM   16  C   UNL     1     -10.661   9.230  67.429  1.00  0.00    -0.255 C  
HETATM   17  O   UNL     1      -9.645   8.229  67.527  1.00  0.00    -0.145 OA 
HETATM   18  H   UNL     1     -10.017   7.358  67.601  1.00  0.00     0.000 HD 
ENDBRANCH  13  16
ENDBRANCH  10  13
ENDBRANCH   7  10
ENDBRANCH   4   7
ENDBRANCH   2   4
TORSDOF 5
ENDMDL
MODEL      186
REMARK 921   NORMALIZED FREE ENERGY PREDICTED BY IDOCK:   -3.04 KCAL/MOL
REMARK 922        TOTAL FREE ENERGY PREDICTED BY IDOCK:   -4.25 KCAL/MOL
REMARK 923 INTER-LIGAND FREE ENERGY PREDICTED BY IDOCK:   -3.76 KCAL/MOL
REMARK 924 INTRA-LIGAND FREE ENERGY PREDICTED BY IDOCK:   -0.49 KCAL/MOL
REMARK 927      BINDING AFFINITY PREDICTED BY RF-SCORE:    0.00 PKD
ROOT
HETATM    1  O   UNL     1     -11.507   8.140  70.017  1.00  0.00    -0.464 OA 
HETATM    2  C   UNL     1     -11.344   9.064  71.097  1.00  0.00    -0.307 C  
HETATM    3  H   UNL     1     -11.966   7.375  70.345  1.00  0.00     0.000 HD 
ENDROOT
BRANCH   2   4
HETATM    4  C   UNL     1     -10.604  10.296  70.568  1.00  0.00    -0.067 C  
HETATM    5  H   UNL     1      -9.242  10.645  69.199  1.00  0.00     0.000 HD 
HETATM    6  O   UNL     1      -9.701   9.880  69.528  1.00  0.00    -0.195 OA 
BRANCH   4   7
HETATM    7  C   UNL     1     -11.545  11.408  70.048  1.00  0.00    -0.299 C  
HETATM    8  O   UNL     1     -12.584  10.811  69.248  1.00  0.00    -0.681 OA 
HETATM    9  H   UNL     1     -13.162  11.494  68.928  1.00  0.00     0.000 HD 
BRANCH   7  10
HETATM   10  C   UNL     1     -12.212  12.234  71.177  1.00  0.00     0.004 C  
HETATM   11  H   UNL     1     -13.462  11.919  72.690  1.00  0.00     0.000 HD 
HETATM   12  O   UNL     1     -13.053  11.413  71.998  1.00  0.00    -0.487 OA 
BRANCH  10  13
HETATM   13  C   UNL     1     -13.027  13.422  70.639  1.00  0.00     0.013 C  
HETATM   14  H   UNL     1     -12.942  14.621  69.082  1.00  0.00     0.000 HD 
HETATM   15  O   UNL     1     -12.439  13.887  69.415  1.00  0.00    -0.273 OA 
BRANCH  13  16
HETATM   16  C   UNL     1     -13.101  14.578  71.659  1.00  0.00    -0.343 C  
HETATM   17  O   UNL     1     -13.688  14.157  72.891  1.00  0.00    -0.658 OA 
HETATM   18  H   UNL     1     -13.733  14.868  73.519  1.00  0.00     0.000 HD 
ENDBRANCH  13  16
ENDBRANCH  10  13
ENDBRANCH   7  10
ENDBRANCH   4   7
ENDBRANCH   2   4
TORSDOF 5
ENDMDL
MODEL      187
REMARK 921   NORMALIZED FREE ENERGY PREDICTED BY IDOCK:   -3.03 KCAL/MOL
REMARK 922        TOTAL FREE ENERGY PREDICTED BY IDOCK:   -4.23 KCAL/MOL
REMARK 923 INTER-LIGAND FREE ENERGY PREDICTED BY IDOCK:   -3.76 KCAL/MOL
REMARK 924 INTRA-LIGAND FREE ENERGY PREDICTED BY IDOCK:   -0.47 KCAL/MOL
REMARK 927      BINDING AFFINITY PREDICTED BY RF-SCORE:    0.00 PKD
ROOT
HETATM    1  O   UNL     1     -12.473  10.711  68.675  1.00  0.00    -0.788 OA 
HETATM    2  C   UNL     1     -11.549  11.781  68.894  1.00  0.00    -0.309 C  
HETATM    3  H   UNL     1     -12.104   9.917  69.045  1.00  0.00     0.000 HD 
ENDROOT
BRANCH   2   4
HETATM    4  C   UNL     1     -12.144  13.059  68.297  1.00  0.00    -0.156 C  
HETATM    5  H   UNL     1     -12.681  14.818  68.979  1.00  0.00     0.000 HD 
HETATM    6  O   UNL     1     -12.312  14.025  69.349  1.00  0.00    -0.333 OA 
BRANCH   4   7
HETATM    7  C   UNL     1     -11.298  13.659  67.149  1.00  0.00    -0.319 C  
HETATM    8  O   UNL     1     -10.926  15.007  67.493  1.00  0.00    -0.289 OA 
HETATM    9  H   UNL     1     -10.406  15.376  66.788  1.00  0.00     0.000 HD 
BRANCH   7  10
HETATM   10  C   UNL     1     -10.006  12.857  66.847  1.00  0.00    -0.238 C  
HETATM   11  H   UNL     1      -8.050  13.195  66.761  1.00  0.00     0.000 HD 
HETATM   12  O   UNL     1      -8.842  13.686  66.946  1.00  0.00    -0.231 OA 
BRANCH  10  13
HETATM   13  C   UNL     1     -10.037  12.183  65.465  1.00  0.00    -0.248 C  
HETATM   14  H   UNL     1     -11.413  11.439  64.272  1.00  0.00     0.000 HD 
HETATM   15  O   UNL     1     -11.394  11.856  65.126  1.00  0.00    -0.315 OA 
BRANCH  13  16
HETATM   16  C   UNL     1      -9.164  10.912  65.425  1.00  0.00    -0.207 C  
HETATM   17  O   UNL     1      -7.840  11.166  65.898  1.00  0.00    -0.326 OA 
HETATM   18  H   UNL     1      -7.302  10.384  65.874  1.00  0.00     0.000 HD 
ENDBRANCH  13  16
ENDBRANCH  10  13
ENDBRANCH   7  10
ENDBRANCH   4   7
ENDBRANCH   2   4
TORSDOF 5
ENDMDL
MODEL      188
REMARK 921   NORMALIZED FREE ENERGY PREDICTED BY IDOCK:   -3.03 KCAL/MOL
REMARK 922        TOTAL FREE ENERGY PREDICTED BY IDOCK:   -4.23 KCAL/MOL
REMARK 923 INTER-LIGAND FREE ENERGY PREDICTED BY IDOCK:   -3.92 KCAL/MOL
REMARK 924 INTRA-LIGAND FREE ENERGY PREDICTED BY IDOCK:   -0.31 KCAL/MOL
REMARK 927      BINDING AFFINITY PREDICTED BY RF-SCORE:    0.00 PKD
ROOT
HETATM    1  O   UNL     1     -10.748  18.787  68.770  1.00  0.00    -0.298 OA 
HETATM    2  C   UNL     1     -10.727  19.706  67.674  1.00  0.00    -0.367 C  
HETATM    3  H   UNL     1     -11.244  19.178  69.479  1.00  0.00     0.000 HD 
ENDROOT
BRANCH   2   4
HETATM    4  C   UNL     1      -9.927  19.075  66.531  1.00  0.00    -0.385 C  
HETATM    5  H   UNL     1     -10.284  18.569  64.670  1.00  0.00     0.000 HD 
HETATM    6  O   UNL     1     -10.780  18.961  65.379  1.00  0.00    -0.536 OA 
BRANCH   4   7
HETATM    7  C   UNL     1      -8.641  19.855  66.171  1.00  0.00    -0.312 C  
HETATM    8  O   UNL     1      -8.536  21.011  67.025  1.00  0.00    -0.574 OA 
HETATM    9  H   UNL     1      -7.746  21.490  66.803  1.00  0.00     0.000 HD 
BRANCH   7  10
HETATM   10  C   UNL     1      -7.345  19.017  66.322  1.00  0.00    -0.260 C  
HETATM   11  H   UNL     1      -6.364  17.625  65.298  1.00  0.00     0.000 HD 
HETATM   12  O   UNL     1      -7.158  18.139  65.206  1.00  0.00    -0.479 OA 
BRANCH  10  13
HETATM   13  C   UNL     1      -7.317  18.200  67.625  1.00  0.00    -0.213 C  
HETATM   14  H   UNL     1      -6.356  18.284  69.339  1.00  0.00     0.000 HD 
HETATM   15  O   UNL     1      -6.374  18.789  68.534  1.00  0.00    -0.217 OA 
BRANCH  13  16
HETATM   16  C   UNL     1      -6.950  16.724  67.371  1.00  0.00    -0.153 C  
HETATM   17  O   UNL     1      -7.838  15.835  68.049  1.00  0.00    -0.128 OA 
HETATM   18  H   UNL     1      -7.613  14.925  67.892  1.00  0.00     0.000 HD 
ENDBRANCH  13  16
ENDBRANCH  10  13
ENDBRANCH   7  10
ENDBRANCH   4   7
ENDBRANCH   2   4
TORSDOF 5
ENDMDL
MODEL      189
REMARK 921   NORMALIZED FREE ENERGY PREDICTED BY IDOCK:   -3.01 KCAL/MOL
REMARK 922        TOTAL FREE ENERGY PREDICTED BY IDOCK:   -4.21 KCAL/MOL
REMARK 923 INTER-LIGAND FREE ENERGY PREDICTED BY IDOCK:   -3.67 KCAL/MOL
REMARK 924 INTRA-LIGAND FREE ENERGY PREDICTED BY IDOCK:   -0.53 KCAL/MOL
REMARK 927      BINDING AFFINITY PREDICTED BY RF-SCORE:    0.00 PKD
ROOT
HETATM    1  O   UNL     1     -11.179   5.708  65.943  1.00  0.00    -0.672 OA 
HETATM    2  C   UNL     1     -10.884   6.268  67.225  1.00  0.00    -0.375 C  
HETATM    3  H   UNL     1     -11.396   4.790  66.061  1.00  0.00     0.000 HD 
ENDROOT
BRANCH   2   4
HETATM    4  C   UNL     1     -10.534   7.747  67.035  1.00  0.00    -0.349 C  
HETATM    5  H   UNL     1     -10.460   9.339  68.179  1.00  0.00     0.000 HD 
HETATM    6  O   UNL     1     -10.677   8.421  68.297  1.00  0.00    -0.148 OA 
BRANCH   4   7
HETATM    7  C   UNL     1      -9.118   7.979  66.460  1.00  0.00    -0.173 C  
HETATM    8  O   UNL     1      -8.882   7.039  65.394  1.00  0.00    -0.352 OA 
HETATM    9  H   UNL     1      -8.011   7.182  65.041  1.00  0.00     0.000 HD 
BRANCH   7  10
HETATM   10  C   UNL     1      -8.900   9.410  65.906  1.00  0.00    -0.162 C  
HETATM   11  H   UNL     1      -8.009  11.092  66.480  1.00  0.00     0.000 HD 
HETATM   12  O   UNL     1      -8.143  10.214  66.819  1.00  0.00    -0.116 OA 
BRANCH  10  13
HETATM   13  C   UNL     1     -10.221  10.124  65.573  1.00  0.00    -0.218 C  
HETATM   14  H   UNL     1     -11.014  10.992  63.996  1.00  0.00     0.000 HD 
HETATM   15  O   UNL     1     -10.198  10.552  64.202  1.00  0.00    -0.342 OA 
BRANCH  13  16
HETATM   16  C   UNL     1     -10.471  11.334  66.497  1.00  0.00    -0.253 C  
HETATM   17  O   UNL     1     -11.640  11.153  67.298  1.00  0.00    -0.514 OA 
HETATM   18  H   UNL     1     -11.793  11.898  67.868  1.00  0.00     0.000 HD 
ENDBRANCH  13  16
ENDBRANCH  10  13
ENDBRANCH   7  10
ENDBRANCH   4   7
ENDBRANCH   2   4
TORSDOF 5
ENDMDL
MODEL      190
REMARK 921   NORMALIZED FREE ENERGY PREDICTED BY IDOCK:   -3.01 KCAL/MOL
REMARK 922        TOTAL FREE ENERGY PREDICTED BY IDOCK:   -4.20 KCAL/MOL
REMARK 923 INTER-LIGAND FREE ENERGY PREDICTED BY IDOCK:   -3.62 KCAL/MOL
REMARK 924 INTRA-LIGAND FREE ENERGY PREDICTED BY IDOCK:   -0.58 KCAL/MOL
REMARK 927      BINDING AFFINITY PREDICTED BY RF-SCORE:    0.00 PKD
ROOT
HETATM    1  O   UNL     1     -11.520   6.638  66.856  1.00  0.00    -0.777 OA 
HETATM    2  C   UNL     1     -10.543   5.660  67.223  1.00  0.00    -0.254 C  
HETATM    3  H   UNL     1     -11.939   6.354  66.052  1.00  0.00     0.000 HD 
ENDROOT
BRANCH   2   4
HETATM    4  C   UNL     1      -9.867   6.118  68.518  1.00  0.00    -0.137 C  
HETATM    5  H   UNL     1      -8.120   6.862  69.012  1.00  0.00     0.000 HD 
HETATM    6  O   UNL     1      -8.539   6.577  68.208  1.00  0.00    -0.116 OA 
BRANCH   4   7
HETATM    7  C   UNL     1     -10.652   7.217  69.271  1.00  0.00    -0.221 C  
HETATM    8  O   UNL     1     -11.924   6.686  69.689  1.00  0.00    -0.653 OA 
HETATM    9  H   UNL     1     -12.407   7.361  70.151  1.00  0.00     0.000 HD 
BRANCH   7  10
HETATM   10  C   UNL     1      -9.915   7.759  70.522  1.00  0.00    -0.187 C  
HETATM   11  H   UNL     1      -9.919   7.446  72.485  1.00  0.00     0.000 HD 
HETATM   12  O   UNL     1     -10.370   7.114  71.717  1.00  0.00    -0.197 OA 
BRANCH  10  13
HETATM   13  C   UNL     1     -10.057   9.283  70.679  1.00  0.00    -0.276 C  
HETATM   14  H   UNL     1     -11.466  10.622  70.381  1.00  0.00     0.000 HD 
HETATM   15  O   UNL     1     -11.379   9.681  70.284  1.00  0.00    -0.249 OA 
BRANCH  13  16
HETATM   16  C   UNL     1      -9.007  10.047  69.845  1.00  0.00    -0.146 C  
HETATM   17  O   UNL     1      -9.555  11.231  69.264  1.00  0.00    -0.410 OA 
HETATM   18  H   UNL     1      -8.909  11.702  68.751  1.00  0.00     0.000 HD 
ENDBRANCH  13  16
ENDBRANCH  10  13
ENDBRANCH   7  10
ENDBRANCH   4   7
ENDBRANCH   2   4
TORSDOF 5
ENDMDL
MODEL      191
REMARK 921   NORMALIZED FREE ENERGY PREDICTED BY IDOCK:   -3.00 KCAL/MOL
REMARK 922        TOTAL FREE ENERGY PREDICTED BY IDOCK:   -4.19 KCAL/MOL
REMARK 923 INTER-LIGAND FREE ENERGY PREDICTED BY IDOCK:   -3.75 KCAL/MOL
REMARK 924 INTRA-LIGAND FREE ENERGY PREDICTED BY IDOCK:   -0.43 KCAL/MOL
REMARK 927      BINDING AFFINITY PREDICTED BY RF-SCORE:    0.00 PKD
ROOT
HETATM    1  O   UNL     1     -11.516   6.557  67.193  1.00  0.00    -0.768 OA 
HETATM    2  C   UNL     1     -10.531   7.588  67.301  1.00  0.00    -0.321 C  
HETATM    3  H   UNL     1     -12.164   6.829  66.554  1.00  0.00     0.000 HD 
ENDROOT
BRANCH   2   4
HETATM    4  C   UNL     1      -9.486   7.149  68.331  1.00  0.00    -0.138 C  
HETATM    5  H   UNL     1      -7.615   7.592  68.722  1.00  0.00     0.000 HD 
HETATM    6  O   UNL     1      -8.263   7.864  68.083  1.00  0.00    -0.121 OA 
BRANCH   4   7
HETATM    7  C   UNL     1      -9.938   7.352  69.796  1.00  0.00    -0.188 C  
HETATM    8  O   UNL     1      -8.774   7.457  70.638  1.00  0.00    -0.140 OA 
HETATM    9  H   UNL     1      -9.051   7.581  71.539  1.00  0.00     0.000 HD 
BRANCH   7  10
HETATM   10  C   UNL     1     -10.808   8.617  70.007  1.00  0.00    -0.221 C  
HETATM   11  H   UNL     1     -10.545  10.583  70.121  1.00  0.00     0.000 HD 
HETATM   12  O   UNL     1     -10.012   9.808  69.992  1.00  0.00    -0.227 OA 
BRANCH  10  13
HETATM   13  C   UNL     1     -11.623   8.564  71.311  1.00  0.00    -0.283 C  
HETATM   14  H   UNL     1     -11.237   8.653  73.237  1.00  0.00     0.000 HD 
HETATM   15  O   UNL     1     -10.734   8.686  72.432  1.00  0.00    -0.339 OA 
BRANCH  13  16
HETATM   16  C   UNL     1     -12.440   7.261  71.427  1.00  0.00    -0.383 C  
HETATM   17  O   UNL     1     -13.799   7.454  71.030  1.00  0.00    -0.625 OA 
HETATM   18  H   UNL     1     -14.302   6.651  71.101  1.00  0.00     0.000 HD 
ENDBRANCH  13  16
ENDBRANCH  10  13
ENDBRANCH   7  10
ENDBRANCH   4   7
ENDBRANCH   2   4
TORSDOF 5
ENDMDL
MODEL      192
REMARK 921   NORMALIZED FREE ENERGY PREDICTED BY IDOCK:   -3.00 KCAL/MOL
REMARK 922        TOTAL FREE ENERGY PREDICTED BY IDOCK:   -4.19 KCAL/MOL
REMARK 923 INTER-LIGAND FREE ENERGY PREDICTED BY IDOCK:   -3.44 KCAL/MOL
REMARK 924 INTRA-LIGAND FREE ENERGY PREDICTED BY IDOCK:   -0.74 KCAL/MOL
REMARK 927      BINDING AFFINITY PREDICTED BY RF-SCORE:    0.00 PKD
ROOT
HETATM    1  O   UNL     1     -11.697  10.540  71.166  1.00  0.00    -0.329 OA 
HETATM    2  C   UNL     1     -10.849   9.571  70.543  1.00  0.00    -0.292 C  
HETATM    3  H   UNL     1     -12.139  10.124  71.897  1.00  0.00     0.000 HD 
ENDROOT
BRANCH   2   4
HETATM    4  C   UNL     1     -10.137  10.241  69.365  1.00  0.00    -0.235 C  
HETATM    5  H   UNL     1      -8.462   9.960  68.383  1.00  0.00     0.000 HD 
HETATM    6  O   UNL     1      -8.904   9.544  69.114  1.00  0.00    -0.135 OA 
BRANCH   4   7
HETATM    7  C   UNL     1     -10.991  10.300  68.077  1.00  0.00    -0.289 C  
HETATM    8  O   UNL     1     -12.351  10.620  68.428  1.00  0.00    -0.776 OA 
HETATM    9  H   UNL     1     -12.876  10.656  67.637  1.00  0.00     0.000 HD 
BRANCH   7  10
HETATM   10  C   UNL     1     -10.492  11.347  67.050  1.00  0.00    -0.236 C  
HETATM   11  H   UNL     1     -11.252  12.844  65.986  1.00  0.00     0.000 HD 
HETATM   12  O   UNL     1     -11.557  12.202  66.616  1.00  0.00    -0.394 OA 
BRANCH  10  13
HETATM   13  C   UNL     1      -9.824  10.702  65.823  1.00  0.00    -0.241 C  
HETATM   14  H   UNL     1      -9.723   8.902  65.037  1.00  0.00     0.000 HD 
HETATM   15  O   UNL     1     -10.136   9.301  65.795  1.00  0.00    -0.268 OA 
BRANCH  13  16
HETATM   16  C   UNL     1      -8.294  10.900  65.831  1.00  0.00    -0.149 C  
HETATM   17  O   UNL     1      -7.637   9.900  66.611  1.00  0.00    -0.100 OA 
HETATM   18  H   UNL     1      -6.695  10.022  66.616  1.00  0.00     0.000 HD 
ENDBRANCH  13  16
ENDBRANCH  10  13
ENDBRANCH   7  10
ENDBRANCH   4   7
ENDBRANCH   2   4
TORSDOF 5
ENDMDL
MODEL      193
REMARK 921   NORMALIZED FREE ENERGY PREDICTED BY IDOCK:   -3.00 KCAL/MOL
REMARK 922        TOTAL FREE ENERGY PREDICTED BY IDOCK:   -4.18 KCAL/MOL
REMARK 923 INTER-LIGAND FREE ENERGY PREDICTED BY IDOCK:   -3.95 KCAL/MOL
REMARK 924 INTRA-LIGAND FREE ENERGY PREDICTED BY IDOCK:   -0.23 KCAL/MOL
REMARK 927      BINDING AFFINITY PREDICTED BY RF-SCORE:    0.00 PKD
ROOT
HETATM    1  O   UNL     1     -12.319  15.201  63.785  1.00  0.00    -0.988 OA 
HETATM    2  C   UNL     1     -11.470  14.238  64.414  1.00  0.00    -0.310 C  
HETATM    3  H   UNL     1     -12.412  14.964  62.869  1.00  0.00     0.000 HD 
ENDROOT
BRANCH   2   4
HETATM    4  C   UNL     1     -11.319  14.621  65.889  1.00  0.00    -0.338 C  
HETATM    5  H   UNL     1     -11.458  13.690  67.611  1.00  0.00     0.000 HD 
HETATM    6  O   UNL     1     -11.552  13.452  66.695  1.00  0.00    -0.329 OA 
BRANCH   4   7
HETATM    7  C   UNL     1      -9.944  15.241  66.231  1.00  0.00    -0.284 C  
HETATM    8  O   UNL     1      -9.841  16.533  65.602  1.00  0.00    -0.511 OA 
HETATM    9  H   UNL     1      -8.996  16.915  65.811  1.00  0.00     0.000 HD 
BRANCH   7  10
HETATM   10  C   UNL     1      -9.704  15.418  67.751  1.00  0.00    -0.211 C  
HETATM   11  H   UNL     1      -9.768  16.884  69.092  1.00  0.00     0.000 HD 
HETATM   12  O   UNL     1      -9.915  16.775  68.160  1.00  0.00    -0.252 OA 
BRANCH  10  13
HETATM   13  C   UNL     1      -8.297  14.968  68.185  1.00  0.00    -0.142 C  
HETATM   14  H   UNL     1      -7.392  13.257  68.527  1.00  0.00     0.000 HD 
HETATM   15  O   UNL     1      -8.260  13.535  68.260  1.00  0.00    -0.146 OA 
BRANCH  13  16
HETATM   16  C   UNL     1      -7.892  15.577  69.543  1.00  0.00    -0.194 C  
HETATM   17  O   UNL     1      -6.850  14.825  70.168  1.00  0.00    -0.247 OA 
HETATM   18  H   UNL     1      -6.600  15.200  71.004  1.00  0.00     0.000 HD 
ENDBRANCH  13  16
ENDBRANCH  10  13
ENDBRANCH   7  10
ENDBRANCH   4   7
ENDBRANCH   2   4
TORSDOF 5
ENDMDL
MODEL      194
REMARK 921   NORMALIZED FREE ENERGY PREDICTED BY IDOCK:   -2.99 KCAL/MOL
REMARK 922        TOTAL FREE ENERGY PREDICTED BY IDOCK:   -4.17 KCAL/MOL
REMARK 923 INTER-LIGAND FREE ENERGY PREDICTED BY IDOCK:   -3.59 KCAL/MOL
REMARK 924 INTRA-LIGAND FREE ENERGY PREDICTED BY IDOCK:   -0.58 KCAL/MOL
REMARK 927      BINDING AFFINITY PREDICTED BY RF-SCORE:    0.00 PKD
ROOT
HETATM    1  O   UNL     1      -9.433   7.990  65.550  1.00  0.00    -0.410 OA 
HETATM    2  C   UNL     1      -8.836   9.027  66.333  1.00  0.00    -0.146 C  
HETATM    3  H   UNL     1      -8.879   7.220  65.602  1.00  0.00     0.000 HD 
ENDROOT
BRANCH   2   4
HETATM    4  C   UNL     1      -9.729  10.268  66.249  1.00  0.00    -0.209 C  
HETATM    5  H   UNL     1     -10.792  11.150  64.856  1.00  0.00     0.000 HD 
HETATM    6  O   UNL     1     -10.237  10.380  64.908  1.00  0.00    -0.338 OA 
BRANCH   4   7
HETATM    7  C   UNL     1     -10.894  10.263  67.266  1.00  0.00    -0.250 C  
HETATM    8  O   UNL     1     -11.025   8.943  67.826  1.00  0.00    -0.494 OA 
HETATM    9  H   UNL     1     -11.741   8.939  68.451  1.00  0.00     0.000 HD 
BRANCH   7  10
HETATM   10  C   UNL     1     -10.707  11.271  68.429  1.00  0.00    -0.203 C  
HETATM   11  H   UNL     1     -11.550  11.668  70.184  1.00  0.00     0.000 HD 
HETATM   12  O   UNL     1     -11.664  11.050  69.471  1.00  0.00    -0.271 OA 
BRANCH  10  13
HETATM   13  C   UNL     1     -10.787  12.735  67.963  1.00  0.00    -0.233 C  
HETATM   14  H   UNL     1      -9.538  14.241  67.774  1.00  0.00     0.000 HD 
HETATM   15  O   UNL     1      -9.488  13.337  68.062  1.00  0.00    -0.206 OA 
BRANCH  13  16
HETATM   16  C   UNL     1     -11.807  13.546  68.789  1.00  0.00    -0.355 C  
HETATM   17  O   UNL     1     -11.329  13.806  70.109  1.00  0.00    -0.477 OA 
HETATM   18  H   UNL     1     -11.957  14.306  70.618  1.00  0.00     0.000 HD 
ENDBRANCH  13  16
ENDBRANCH  10  13
ENDBRANCH   7  10
ENDBRANCH   4   7
ENDBRANCH   2   4
TORSDOF 5
ENDMDL
MODEL      195
REMARK 921   NORMALIZED FREE ENERGY PREDICTED BY IDOCK:   -2.98 KCAL/MOL
REMARK 922        TOTAL FREE ENERGY PREDICTED BY IDOCK:   -4.16 KCAL/MOL
REMARK 923 INTER-LIGAND FREE ENERGY PREDICTED BY IDOCK:   -3.82 KCAL/MOL
REMARK 924 INTRA-LIGAND FREE ENERGY PREDICTED BY IDOCK:   -0.34 KCAL/MOL
REMARK 927      BINDING AFFINITY PREDICTED BY RF-SCORE:    0.00 PKD
ROOT
HETATM    1  O   UNL     1     -13.937  15.194  72.745  1.00  0.00    -0.451 OA 
HETATM    2  C   UNL     1     -13.811  14.691  71.412  1.00  0.00    -0.403 C  
HETATM    3  H   UNL     1     -14.668  14.753  73.163  1.00  0.00     0.000 HD 
ENDROOT
BRANCH   2   4
HETATM    4  C   UNL     1     -12.634  15.402  70.738  1.00  0.00    -0.442 C  
HETATM    5  H   UNL     1     -10.762  15.774  71.193  1.00  0.00     0.000 HD 
HETATM    6  O   UNL     1     -11.492  15.333  71.611  1.00  0.00    -0.370 OA 
BRANCH   4   7
HETATM    7  C   UNL     1     -12.280  14.832  69.346  1.00  0.00    -0.216 C  
HETATM    8  O   UNL     1     -12.252  15.908  68.388  1.00  0.00    -0.382 OA 
HETATM    9  H   UNL     1     -12.035  15.557  67.532  1.00  0.00     0.000 HD 
BRANCH   7  10
HETATM   10  C   UNL     1     -10.912  14.105  69.303  1.00  0.00    -0.220 C  
HETATM   11  H   UNL     1      -9.045  14.511  68.756  1.00  0.00     0.000 HD 
HETATM   12  O   UNL     1      -9.884  14.956  68.782  1.00  0.00    -0.213 OA 
BRANCH  10  13
HETATM   13  C   UNL     1     -10.958  12.802  68.485  1.00  0.00    -0.258 C  
HETATM   14  H   UNL     1     -11.852  12.178  66.849  1.00  0.00     0.000 HD 
HETATM   15  O   UNL     1     -11.824  12.983  67.353  1.00  0.00    -0.358 OA 
BRANCH  13  16
HETATM   16  C   UNL     1     -11.444  11.608  69.333  1.00  0.00    -0.307 C  
HETATM   17  O   UNL     1     -10.583  10.477  69.192  1.00  0.00    -0.201 OA 
HETATM   18  H   UNL     1     -10.881   9.742  69.714  1.00  0.00     0.000 HD 
ENDBRANCH  13  16
ENDBRANCH  10  13
ENDBRANCH   7  10
ENDBRANCH   4   7
ENDBRANCH   2   4
TORSDOF 5
ENDMDL
MODEL      196
REMARK 921   NORMALIZED FREE ENERGY PREDICTED BY IDOCK:   -2.97 KCAL/MOL
REMARK 922        TOTAL FREE ENERGY PREDICTED BY IDOCK:   -4.14 KCAL/MOL
REMARK 923 INTER-LIGAND FREE ENERGY PREDICTED BY IDOCK:   -3.42 KCAL/MOL
REMARK 924 INTRA-LIGAND FREE ENERGY PREDICTED BY IDOCK:   -0.72 KCAL/MOL
REMARK 927      BINDING AFFINITY PREDICTED BY RF-SCORE:    0.00 PKD
ROOT
HETATM    1  O   UNL     1      -9.793  10.959  69.367  1.00  0.00    -0.399 OA 
HETATM    2  C   UNL     1     -10.269   9.610  69.347  1.00  0.00    -0.209 C  
HETATM    3  H   UNL     1      -9.962  11.347  68.516  1.00  0.00     0.000 HD 
ENDROOT
BRANCH   2   4
HETATM    4  C   UNL     1      -9.998   8.984  70.718  1.00  0.00    -0.245 C  
HETATM    5  H   UNL     1      -8.477   8.900  71.955  1.00  0.00     0.000 HD 
HETATM    6  O   UNL     1      -8.646   9.289  71.104  1.00  0.00    -0.281 OA 
BRANCH   4   7
HETATM    7  C   UNL     1     -10.986   9.443  71.816  1.00  0.00    -0.217 C  
HETATM    8  O   UNL     1     -11.974  10.311  71.227  1.00  0.00    -0.364 OA 
HETATM    9  H   UNL     1     -12.580  10.594  71.901  1.00  0.00     0.000 HD 
BRANCH   7  10
HETATM   10  C   UNL     1     -11.720   8.274  72.519  1.00  0.00    -0.383 C  
HETATM   11  H   UNL     1     -11.433   7.084  74.084  1.00  0.00     0.000 HD 
HETATM   12  O   UNL     1     -10.984   7.801  73.653  1.00  0.00    -0.239 OA 
BRANCH  10  13
HETATM   13  C   UNL     1     -12.005   7.097  71.569  1.00  0.00    -0.326 C  
HETATM   14  H   UNL     1     -13.597   6.262  70.773  1.00  0.00     0.000 HD 
HETATM   15  O   UNL     1     -13.421   6.988  71.360  1.00  0.00    -0.345 OA 
BRANCH  13  16
HETATM   16  C   UNL     1     -11.450   5.767  72.119  1.00  0.00    -0.235 C  
HETATM   17  O   UNL     1     -10.050   5.635  71.869  1.00  0.00    -0.179 OA 
HETATM   18  H   UNL     1      -9.708   4.817  72.208  1.00  0.00     0.000 HD 
ENDBRANCH  13  16
ENDBRANCH  10  13
ENDBRANCH   7  10
ENDBRANCH   4   7
ENDBRANCH   2   4
TORSDOF 5
ENDMDL
MODEL      197
REMARK 921   NORMALIZED FREE ENERGY PREDICTED BY IDOCK:   -2.96 KCAL/MOL
REMARK 922        TOTAL FREE ENERGY PREDICTED BY IDOCK:   -4.13 KCAL/MOL
REMARK 923 INTER-LIGAND FREE ENERGY PREDICTED BY IDOCK:   -3.51 KCAL/MOL
REMARK 924 INTRA-LIGAND FREE ENERGY PREDICTED BY IDOCK:   -0.62 KCAL/MOL
REMARK 927      BINDING AFFINITY PREDICTED BY RF-SCORE:    0.00 PKD
ROOT
HETATM    1  O   UNL     1     -13.590   9.354  70.759  1.00  0.00    -0.591 OA 
HETATM    2  C   UNL     1     -13.224   8.428  71.787  1.00  0.00    -0.355 C  
HETATM    3  H   UNL     1     -14.538   9.419  70.740  1.00  0.00     0.000 HD 
ENDROOT
BRANCH   2   4
HETATM    4  C   UNL     1     -11.696   8.323  71.817  1.00  0.00    -0.302 C  
HETATM    5  H   UNL     1     -10.351   7.685  73.094  1.00  0.00     0.000 HD 
HETATM    6  O   UNL     1     -11.298   7.751  73.076  1.00  0.00    -0.399 OA 
BRANCH   4   7
HETATM    7  C   UNL     1     -11.109   7.501  70.645  1.00  0.00    -0.265 C  
HETATM    8  O   UNL     1     -12.185   6.860  69.933  1.00  0.00    -0.626 OA 
HETATM    9  H   UNL     1     -11.825   6.355  69.214  1.00  0.00     0.000 HD 
BRANCH   7  10
HETATM   10  C   UNL     1     -10.296   8.352  69.638  1.00  0.00    -0.218 C  
HETATM   11  H   UNL     1      -9.969   8.402  67.678  1.00  0.00     0.000 HD 
HETATM   12  O   UNL     1     -10.468   7.880  68.296  1.00  0.00    -0.202 OA 
BRANCH  10  13
HETATM   13  C   UNL     1      -8.795   8.394  69.975  1.00  0.00    -0.137 C  
HETATM   14  H   UNL     1      -7.522   9.736  70.643  1.00  0.00     0.000 HD 
HETATM   15  O   UNL     1      -8.448   9.710  70.435  1.00  0.00    -0.191 OA 
BRANCH  13  16
HETATM   16  C   UNL     1      -7.922   8.015  68.761  1.00  0.00    -0.119 C  
HETATM   17  O   UNL     1      -7.832   6.598  68.598  1.00  0.00    -0.110 OA 
HETATM   18  H   UNL     1      -7.295   6.364  67.850  1.00  0.00     0.000 HD 
ENDBRANCH  13  16
ENDBRANCH  10  13
ENDBRANCH   7  10
ENDBRANCH   4   7
ENDBRANCH   2   4
TORSDOF 5
ENDMDL
MODEL      198
REMARK 921   NORMALIZED FREE ENERGY PREDICTED BY IDOCK:   -2.95 KCAL/MOL
REMARK 922        TOTAL FREE ENERGY PREDICTED BY IDOCK:   -4.13 KCAL/MOL
REMARK 923 INTER-LIGAND FREE ENERGY PREDICTED BY IDOCK:   -3.81 KCAL/MOL
REMARK 924 INTRA-LIGAND FREE ENERGY PREDICTED BY IDOCK:   -0.32 KCAL/MOL
REMARK 927      BINDING AFFINITY PREDICTED BY RF-SCORE:    0.00 PKD
ROOT
HETATM    1  O   UNL     1     -10.367  10.360  70.401  1.00  0.00    -0.420 OA 
HETATM    2  C   UNL     1     -10.809  10.838  69.128  1.00  0.00    -0.237 C  
HETATM    3  H   UNL     1     -11.123  10.043  70.881  1.00  0.00     0.000 HD 
ENDROOT
BRANCH   2   4
HETATM    4  C   UNL     1      -9.588  11.348  68.355  1.00  0.00    -0.197 C  
HETATM    5  H   UNL     1      -8.296  10.583  67.093  1.00  0.00     0.000 HD 
HETATM    6  O   UNL     1      -9.053  10.266  67.572  1.00  0.00    -0.137 OA 
BRANCH   4   7
HETATM    7  C   UNL     1      -9.892  12.565  67.452  1.00  0.00    -0.201 C  
HETATM    8  O   UNL     1      -8.868  12.672  66.444  1.00  0.00    -0.403 OA 
HETATM    9  H   UNL     1      -9.054  13.420  65.889  1.00  0.00     0.000 HD 
BRANCH   7  10
HETATM   10  C   UNL     1     -11.268  12.484  66.743  1.00  0.00    -0.296 C  
HETATM   11  H   UNL     1     -11.978  11.960  64.962  1.00  0.00     0.000 HD 
HETATM   12  O   UNL     1     -11.135  12.010  65.397  1.00  0.00    -0.304 OA 
BRANCH  10  13
HETATM   13  C   UNL     1     -12.013  13.830  66.739  1.00  0.00    -0.426 C  
HETATM   14  H   UNL     1     -12.110  15.401  65.560  1.00  0.00     0.000 HD 
HETATM   15  O   UNL     1     -11.650  14.570  65.563  1.00  0.00    -0.343 OA 
BRANCH  13  16
HETATM   16  C   UNL     1     -11.703  14.662  68.000  1.00  0.00    -0.342 C  
HETATM   17  O   UNL     1     -12.695  14.477  69.011  1.00  0.00    -0.501 OA 
HETATM   18  H   UNL     1     -12.505  14.989  69.788  1.00  0.00     0.000 HD 
ENDBRANCH  13  16
ENDBRANCH  10  13
ENDBRANCH   7  10
ENDBRANCH   4   7
ENDBRANCH   2   4
TORSDOF 5
ENDMDL
MODEL      199
REMARK 921   NORMALIZED FREE ENERGY PREDICTED BY IDOCK:   -2.95 KCAL/MOL
REMARK 922        TOTAL FREE ENERGY PREDICTED BY IDOCK:   -4.12 KCAL/MOL
REMARK 923 INTER-LIGAND FREE ENERGY PREDICTED BY IDOCK:   -3.59 KCAL/MOL
REMARK 924 INTRA-LIGAND FREE ENERGY PREDICTED BY IDOCK:   -0.53 KCAL/MOL
REMARK 927      BINDING AFFINITY PREDICTED BY RF-SCORE:    0.00 PKD
ROOT
HETATM    1  O   UNL     1      -9.209   7.737  71.355  1.00  0.00    -0.132 OA 
HETATM    2  C   UNL     1      -8.808   8.961  70.734  1.00  0.00    -0.208 C  
HETATM    3  H   UNL     1      -8.818   7.700  72.221  1.00  0.00     0.000 HD 
ENDROOT
BRANCH   2   4
HETATM    4  C   UNL     1      -9.438   9.021  69.339  1.00  0.00    -0.159 C  
HETATM    5  H   UNL     1      -9.571   7.814  67.798  1.00  0.00     0.000 HD 
HETATM    6  O   UNL     1      -9.180   7.778  68.663  1.00  0.00    -0.139 OA 
BRANCH   4   7
HETATM    7  C   UNL     1     -10.955   9.317  69.357  1.00  0.00    -0.120 C  
HETATM    8  O   UNL     1     -11.641   8.225  70.000  1.00  0.00    -0.465 OA 
HETATM    9  H   UNL     1     -12.573   8.407  70.011  1.00  0.00     0.000 HD 
BRANCH   7  10
HETATM   10  C   UNL     1     -11.323  10.628  70.097  1.00  0.00    -0.323 C  
HETATM   11  H   UNL     1     -12.307  11.168  71.737  1.00  0.00     0.000 HD 
HETATM   12  O   UNL     1     -12.081  10.364  71.283  1.00  0.00    -0.360 OA 
BRANCH  10  13
HETATM   13  C   UNL     1     -12.098  11.614  69.205  1.00  0.00    -0.251 C  
HETATM   14  H   UNL     1     -12.557  11.753  67.298  1.00  0.00     0.000 HD 
HETATM   15  O   UNL     1     -12.078  11.144  67.848  1.00  0.00    -0.627 OA 
BRANCH  13  16
HETATM   16  C   UNL     1     -11.509  13.038  69.276  1.00  0.00    -0.289 C  
HETATM   17  O   UNL     1     -11.547  13.559  70.606  1.00  0.00    -0.519 OA 
HETATM   18  H   UNL     1     -11.184  14.436  70.650  1.00  0.00     0.000 HD 
ENDBRANCH  13  16
ENDBRANCH  10  13
ENDBRANCH   7  10
ENDBRANCH   4   7
ENDBRANCH   2   4
TORSDOF 5
ENDMDL
MODEL      200
REMARK 921   NORMALIZED FREE ENERGY PREDICTED BY IDOCK:   -2.95 KCAL/MOL
REMARK 922        TOTAL FREE ENERGY PREDICTED BY IDOCK:   -4.12 KCAL/MOL
REMARK 923 INTER-LIGAND FREE ENERGY PREDICTED BY IDOCK:   -3.57 KCAL/MOL
REMARK 924 INTRA-LIGAND FREE ENERGY PREDICTED BY IDOCK:   -0.55 KCAL/MOL
REMARK 927      BINDING AFFINITY PREDICTED BY RF-SCORE:    0.00 PKD
ROOT
HETATM    1  O   UNL     1     -12.827   8.259  72.955  1.00  0.00    -0.633 OA 
HETATM    2  C   UNL     1     -13.056   9.523  72.326  1.00  0.00    -0.408 C  
HETATM    3  H   UNL     1     -13.239   8.272  73.811  1.00  0.00     0.000 HD 
ENDROOT
BRANCH   2   4
HETATM    4  C   UNL     1     -12.392   9.501  70.946  1.00  0.00    -0.228 C  
HETATM    5  H   UNL     1     -11.314  10.745  69.879  1.00  0.00     0.000 HD 
HETATM    6  O   UNL     1     -11.727  10.759  70.734  1.00  0.00    -0.328 OA 
BRANCH   4   7
HETATM    7  C   UNL     1     -11.399   8.331  70.756  1.00  0.00    -0.266 C  
HETATM    8  O   UNL     1     -12.123   7.164  70.320  1.00  0.00    -0.568 OA 
HETATM    9  H   UNL     1     -11.513   6.445  70.203  1.00  0.00     0.000 HD 
BRANCH   7  10
HETATM   10  C   UNL     1     -10.282   8.627  69.722  1.00  0.00    -0.206 C  
HETATM   11  H   UNL     1      -9.918   8.263  67.803  1.00  0.00     0.000 HD 
HETATM   12  O   UNL     1     -10.602   8.081  68.437  1.00  0.00    -0.186 OA 
BRANCH  10  13
HETATM   13  C   UNL     1      -8.907   8.103  70.171  1.00  0.00    -0.145 C  
HETATM   14  H   UNL     1      -8.228   6.885  71.557  1.00  0.00     0.000 HD 
HETATM   15  O   UNL     1      -9.078   7.208  71.280  1.00  0.00    -0.150 OA 
BRANCH  13  16
HETATM   16  C   UNL     1      -7.955   9.252  70.564  1.00  0.00    -0.167 C  
HETATM   17  O   UNL     1      -7.271   8.975  71.787  1.00  0.00    -0.286 OA 
HETATM   18  H   UNL     1      -6.684   9.681  72.029  1.00  0.00     0.000 HD 
ENDBRANCH  13  16
ENDBRANCH  10  13
ENDBRANCH   7  10
ENDBRANCH   4   7
ENDBRANCH   2   4
TORSDOF 5
ENDMDL
MODEL      201
REMARK 921   NORMALIZED FREE ENERGY PREDICTED BY IDOCK:   -2.94 KCAL/MOL
REMARK 922        TOTAL FREE ENERGY PREDICTED BY IDOCK:   -4.11 KCAL/MOL
REMARK 923 INTER-LIGAND FREE ENERGY PREDICTED BY IDOCK:   -3.25 KCAL/MOL
REMARK 924 INTRA-LIGAND FREE ENERGY PREDICTED BY IDOCK:   -0.86 KCAL/MOL
REMARK 927      BINDING AFFINITY PREDICTED BY RF-SCORE:    0.00 PKD
ROOT
HETATM    1  O   UNL     1     -10.108   9.932  70.809  1.00  0.00    -0.351 OA 
HETATM    2  C   UNL     1     -11.328   9.280  71.173  1.00  0.00    -0.342 C  
HETATM    3  H   UNL     1     -10.203  10.861  70.983  1.00  0.00     0.000 HD 
ENDROOT
BRANCH   2   4
HETATM    4  C   UNL     1     -11.174   7.782  70.893  1.00  0.00    -0.271 C  
HETATM    5  H   UNL     1     -12.259   6.173  71.183  1.00  0.00     0.000 HD 
HETATM    6  O   UNL     1     -12.354   7.103  71.357  1.00  0.00    -0.337 OA 
BRANCH   4   7
HETATM    7  C   UNL     1     -10.918   7.454  69.403  1.00  0.00    -0.108 C  
HETATM    8  O   UNL     1     -11.134   8.640  68.615  1.00  0.00    -0.433 OA 
HETATM    9  H   UNL     1     -10.977   8.439  67.700  1.00  0.00     0.000 HD 
BRANCH   7  10
HETATM   10  C   UNL     1      -9.485   6.935  69.120  1.00  0.00    -0.142 C  
HETATM   11  H   UNL     1      -7.640   7.669  69.048  1.00  0.00     0.000 HD 
HETATM   12  O   UNL     1      -8.518   7.987  69.222  1.00  0.00    -0.132 OA 
BRANCH  10  13
HETATM   13  C   UNL     1      -9.361   6.258  67.744  1.00  0.00    -0.113 C  
HETATM   14  H   UNL     1      -9.276   6.846  65.870  1.00  0.00     0.000 HD 
HETATM   15  O   UNL     1      -9.353   7.264  66.720  1.00  0.00    -0.149 OA 
BRANCH  13  16
HETATM   16  C   UNL     1     -10.508   5.258  67.490  1.00  0.00    -0.126 C  
HETATM   17  O   UNL     1     -11.231   5.576  66.300  1.00  0.00    -0.746 OA 
HETATM   18  H   UNL     1     -11.937   4.960  66.142  1.00  0.00     0.000 HD 
ENDBRANCH  13  16
ENDBRANCH  10  13
ENDBRANCH   7  10
ENDBRANCH   4   7
ENDBRANCH   2   4
TORSDOF 5
ENDMDL
MODEL      202
REMARK 921   NORMALIZED FREE ENERGY PREDICTED BY IDOCK:   -2.93 KCAL/MOL
REMARK 922        TOTAL FREE ENERGY PREDICTED BY IDOCK:   -4.09 KCAL/MOL
REMARK 923 INTER-LIGAND FREE ENERGY PREDICTED BY IDOCK:   -3.88 KCAL/MOL
REMARK 924 INTRA-LIGAND FREE ENERGY PREDICTED BY IDOCK:   -0.21 KCAL/MOL
REMARK 927      BINDING AFFINITY PREDICTED BY RF-SCORE:    0.00 PKD
ROOT
HETATM    1  O   UNL     1     -12.226  11.728  68.587  1.00  0.00    -0.405 OA 
HETATM    2  C   UNL     1     -10.798  11.647  68.547  1.00  0.00    -0.219 C  
HETATM    3  H   UNL     1     -12.560  10.926  68.971  1.00  0.00     0.000 HD 
ENDROOT
BRANCH   2   4
HETATM    4  C   UNL     1     -10.260  12.940  67.927  1.00  0.00    -0.233 C  
HETATM    5  H   UNL     1      -9.031  14.366  68.480  1.00  0.00     0.000 HD 
HETATM    6  O   UNL     1      -9.365  13.564  68.865  1.00  0.00     0.005 OA 
BRANCH   4   7
HETATM    7  C   UNL     1      -9.551  12.727  66.569  1.00  0.00    -0.257 C  
HETATM    8  O   UNL     1      -8.399  11.885  66.766  1.00  0.00    -0.178 OA 
HETATM    9  H   UNL     1      -7.964  11.754  65.932  1.00  0.00     0.000 HD 
BRANCH   7  10
HETATM   10  C   UNL     1     -10.456  12.075  65.493  1.00  0.00    -0.269 C  
HETATM   11  H   UNL     1     -10.449  10.447  64.353  1.00  0.00     0.000 HD 
HETATM   12  O   UNL     1      -9.894  10.847  65.013  1.00  0.00    -0.239 OA 
BRANCH  10  13
HETATM   13  C   UNL     1     -10.729  13.011  64.303  1.00  0.00    -0.407 C  
HETATM   14  H   UNL     1     -10.350  14.886  63.848  1.00  0.00     0.000 HD 
HETATM   15  O   UNL     1     -10.181  14.308  64.583  1.00  0.00    -0.387 OA 
BRANCH  13  16
HETATM   16  C   UNL     1     -12.237  13.132  64.001  1.00  0.00    -0.414 C  
HETATM   17  O   UNL     1     -12.476  13.828  62.777  1.00  0.00    -0.879 OA 
HETATM   18  H   UNL     1     -13.405  13.903  62.591  1.00  0.00     0.000 HD 
ENDBRANCH  13  16
ENDBRANCH  10  13
ENDBRANCH   7  10
ENDBRANCH   4   7
ENDBRANCH   2   4
TORSDOF 5
ENDMDL
MODEL      203
REMARK 921   NORMALIZED FREE ENERGY PREDICTED BY IDOCK:   -2.92 KCAL/MOL
REMARK 922        TOTAL FREE ENERGY PREDICTED BY IDOCK:   -4.08 KCAL/MOL
REMARK 923 INTER-LIGAND FREE ENERGY PREDICTED BY IDOCK:   -3.51 KCAL/MOL
REMARK 924 INTRA-LIGAND FREE ENERGY PREDICTED BY IDOCK:   -0.58 KCAL/MOL
REMARK 927      BINDING AFFINITY PREDICTED BY RF-SCORE:    0.00 PKD
ROOT
HETATM    1  O   UNL     1     -10.270  10.401  70.394  1.00  0.00    -0.402 OA 
HETATM    2  C   UNL     1     -10.993   9.975  69.236  1.00  0.00    -0.228 C  
HETATM    3  H   UNL     1      -9.758   9.667  70.713  1.00  0.00     0.000 HD 
ENDROOT
BRANCH   2   4
HETATM    4  C   UNL     1     -11.819  11.158  68.722  1.00  0.00    -0.320 C  
HETATM    5  H   UNL     1     -12.493  12.840  69.474  1.00  0.00     0.000 HD 
HETATM    6  O   UNL     1     -11.981  12.106  69.792  1.00  0.00    -0.315 OA 
BRANCH   4   7
HETATM    7  C   UNL     1     -11.207  11.849  67.482  1.00  0.00    -0.296 C  
HETATM    8  O   UNL     1     -12.270  12.307  66.625  1.00  0.00    -0.574 OA 
HETATM    9  H   UNL     1     -11.894  12.732  65.863  1.00  0.00     0.000 HD 
BRANCH   7  10
HETATM   10  C   UNL     1     -10.303  13.059  67.829  1.00  0.00    -0.226 C  
HETATM   11  H   UNL     1     -10.330  15.033  67.596  1.00  0.00     0.000 HD 
HETATM   12  O   UNL     1     -10.884  14.290  67.384  1.00  0.00    -0.278 OA 
BRANCH  10  13
HETATM   13  C   UNL     1      -8.884  12.925  67.249  1.00  0.00    -0.206 C  
HETATM   14  H   UNL     1      -7.908  11.609  66.161  1.00  0.00     0.000 HD 
HETATM   15  O   UNL     1      -8.784  11.692  66.520  1.00  0.00    -0.184 OA 
BRANCH  13  16
HETATM   16  C   UNL     1      -7.805  12.974  68.350  1.00  0.00    -0.134 C  
HETATM   17  O   UNL     1      -7.899  11.853  69.231  1.00  0.00    -0.345 OA 
HETATM   18  H   UNL     1      -7.235  11.883  69.909  1.00  0.00     0.000 HD 
ENDBRANCH  13  16
ENDBRANCH  10  13
ENDBRANCH   7  10
ENDBRANCH   4   7
ENDBRANCH   2   4
TORSDOF 5
ENDMDL
MODEL      204
REMARK 921   NORMALIZED FREE ENERGY PREDICTED BY IDOCK:   -2.92 KCAL/MOL
REMARK 922        TOTAL FREE ENERGY PREDICTED BY IDOCK:   -4.08 KCAL/MOL
REMARK 923 INTER-LIGAND FREE ENERGY PREDICTED BY IDOCK:   -3.28 KCAL/MOL
REMARK 924 INTRA-LIGAND FREE ENERGY PREDICTED BY IDOCK:   -0.81 KCAL/MOL
REMARK 927      BINDING AFFINITY PREDICTED BY RF-SCORE:    0.00 PKD
ROOT
HETATM    1  O   UNL     1      -8.209   8.831  66.623  1.00  0.00    -0.105 OA 
HETATM    2  C   UNL     1      -8.896   9.710  67.518  1.00  0.00    -0.125 C  
HETATM    3  H   UNL     1      -8.225   7.956  66.993  1.00  0.00     0.000 HD 
ENDROOT
BRANCH   2   4
HETATM    4  C   UNL     1      -8.870  11.120  66.921  1.00  0.00    -0.157 C  
HETATM    5  H   UNL     1      -7.491  12.343  66.248  1.00  0.00     0.000 HD 
HETATM    6  O   UNL     1      -7.508  11.468  66.618  1.00  0.00    -0.138 OA 
BRANCH   4   7
HETATM    7  C   UNL     1      -9.756  11.277  65.663  1.00  0.00    -0.230 C  
HETATM    8  O   UNL     1     -10.482  10.052  65.442  1.00  0.00    -0.162 OA 
HETATM    9  H   UNL     1     -11.026  10.148  64.669  1.00  0.00     0.000 HD 
BRANCH   7  10
HETATM   10  C   UNL     1     -10.777  12.439  65.764  1.00  0.00    -0.267 C  
HETATM   11  H   UNL     1     -10.844  14.381  65.347  1.00  0.00     0.000 HD 
HETATM   12  O   UNL     1     -10.218  13.668  65.285  1.00  0.00    -0.326 OA 
BRANCH  10  13
HETATM   13  C   UNL     1     -11.304  12.641  67.195  1.00  0.00    -0.319 C  
HETATM   14  H   UNL     1     -12.471  11.658  68.436  1.00  0.00     0.000 HD 
HETATM   15  O   UNL     1     -12.145  11.533  67.552  1.00  0.00    -0.614 OA 
BRANCH  13  16
HETATM   16  C   UNL     1     -12.087  13.963  67.338  1.00  0.00    -0.345 C  
HETATM   17  O   UNL     1     -12.852  14.252  66.167  1.00  0.00    -0.489 OA 
HETATM   18  H   UNL     1     -13.334  15.066  66.255  1.00  0.00     0.000 HD 
ENDBRANCH  13  16
ENDBRANCH  10  13
ENDBRANCH   7  10
ENDBRANCH   4   7
ENDBRANCH   2   4
TORSDOF 5
ENDMDL
MODEL      205
REMARK 921   NORMALIZED FREE ENERGY PREDICTED BY IDOCK:   -2.89 KCAL/MOL
REMARK 922        TOTAL FREE ENERGY PREDICTED BY IDOCK:   -4.05 KCAL/MOL
REMARK 923 INTER-LIGAND FREE ENERGY PREDICTED BY IDOCK:   -3.55 KCAL/MOL
REMARK 924 INTRA-LIGAND FREE ENERGY PREDICTED BY IDOCK:   -0.50 KCAL/MOL
REMARK 927      BINDING AFFINITY PREDICTED BY RF-SCORE:    0.00 PKD
ROOT
HETATM    1  O   UNL     1      -6.711  18.768  64.668  1.00  0.00    -0.359 OA 
HETATM    2  C   UNL     1      -5.807  18.254  65.649  1.00  0.00    -0.219 C  
HETATM    3  H   UNL     1      -6.559  18.308  63.851  1.00  0.00     0.000 HD 
ENDROOT
BRANCH   2   4
HETATM    4  C   UNL     1      -6.053  18.997  66.966  1.00  0.00    -0.173 C  
HETATM    5  H   UNL     1      -6.330  20.863  67.502  1.00  0.00     0.000 HD 
HETATM    6  O   UNL     1      -6.178  20.402  66.686  1.00  0.00    -0.174 OA 
BRANCH   4   7
HETATM    7  C   UNL     1      -7.293  18.492  67.739  1.00  0.00    -0.229 C  
HETATM    8  O   UNL     1      -6.961  18.376  69.136  1.00  0.00    -0.274 OA 
HETATM    9  H   UNL     1      -7.723  18.065  69.612  1.00  0.00     0.000 HD 
BRANCH   7  10
HETATM   10  C   UNL     1      -8.527  19.419  67.605  1.00  0.00    -0.304 C  
HETATM   11  H   UNL     1      -9.897  20.229  68.796  1.00  0.00     0.000 HD 
HETATM   12  O   UNL     1      -9.140  19.661  68.878  1.00  0.00    -0.336 OA 
BRANCH  10  13
HETATM   13  C   UNL     1      -9.580  18.866  66.629  1.00  0.00    -0.336 C  
HETATM   14  H   UNL     1     -11.408  19.343  66.083  1.00  0.00     0.000 HD 
HETATM   15  O   UNL     1     -10.758  19.684  66.686  1.00  0.00    -0.465 OA 
BRANCH  13  16
HETATM   16  C   UNL     1      -9.943  17.400  66.944  1.00  0.00    -0.300 C  
HETATM   17  O   UNL     1     -10.883  17.308  68.016  1.00  0.00    -0.381 OA 
HETATM   18  H   UNL     1     -11.107  16.405  68.210  1.00  0.00     0.000 HD 
ENDBRANCH  13  16
ENDBRANCH  10  13
ENDBRANCH   7  10
ENDBRANCH   4   7
ENDBRANCH   2   4
TORSDOF 5
ENDMDL
MODEL      206
REMARK 921   NORMALIZED FREE ENERGY PREDICTED BY IDOCK:   -2.89 KCAL/MOL
REMARK 922        TOTAL FREE ENERGY PREDICTED BY IDOCK:   -4.04 KCAL/MOL
REMARK 923 INTER-LIGAND FREE ENERGY PREDICTED BY IDOCK:   -3.79 KCAL/MOL
REMARK 924 INTRA-LIGAND FREE ENERGY PREDICTED BY IDOCK:   -0.25 KCAL/MOL
REMARK 927      BINDING AFFINITY PREDICTED BY RF-SCORE:    0.00 PKD
ROOT
HETATM    1  O   UNL     1      -7.254  10.404  70.747  1.00  0.00    -0.421 OA 
HETATM    2  C   UNL     1      -8.333   9.818  70.012  1.00  0.00    -0.192 C  
HETATM    3  H   UNL     1      -6.900  11.122  70.236  1.00  0.00     0.000 HD 
ENDROOT
BRANCH   2   4
HETATM    4  C   UNL     1      -8.904   8.661  70.836  1.00  0.00    -0.183 C  
HETATM    5  H   UNL     1      -9.070   8.234  72.744  1.00  0.00     0.000 HD 
HETATM    6  O   UNL     1      -8.715   8.952  72.232  1.00  0.00    -0.395 OA 
BRANCH   4   7
HETATM    7  C   UNL     1     -10.395   8.371  70.546  1.00  0.00    -0.199 C  
HETATM    8  O   UNL     1     -10.508   7.716  69.268  1.00  0.00    -0.215 OA 
HETATM    9  H   UNL     1     -11.424   7.538  69.089  1.00  0.00     0.000 HD 
BRANCH   7  10
HETATM   10  C   UNL     1     -11.073   7.477  71.615  1.00  0.00    -0.239 C  
HETATM   11  H   UNL     1     -11.703   5.599  71.780  1.00  0.00     0.000 HD 
HETATM   12  O   UNL     1     -11.287   6.148  71.125  1.00  0.00    -0.299 OA 
BRANCH  10  13
HETATM   13  C   UNL     1     -12.406   8.058  72.115  1.00  0.00    -0.315 C  
HETATM   14  H   UNL     1     -14.312   7.609  71.937  1.00  0.00     0.000 HD 
HETATM   15  O   UNL     1     -13.489   7.250  71.629  1.00  0.00    -0.375 OA 
BRANCH  13  16
HETATM   16  C   UNL     1     -12.600   9.522  71.666  1.00  0.00    -0.388 C  
HETATM   17  O   UNL     1     -13.679   9.651  70.739  1.00  0.00    -0.567 OA 
HETATM   18  H   UNL     1     -13.799  10.552  70.463  1.00  0.00     0.000 HD 
ENDBRANCH  13  16
ENDBRANCH  10  13
ENDBRANCH   7  10
ENDBRANCH   4   7
ENDBRANCH   2   4
TORSDOF 5
ENDMDL
MODEL      207
REMARK 921   NORMALIZED FREE ENERGY PREDICTED BY IDOCK:   -2.85 KCAL/MOL
REMARK 922        TOTAL FREE ENERGY PREDICTED BY IDOCK:   -3.99 KCAL/MOL
REMARK 923 INTER-LIGAND FREE ENERGY PREDICTED BY IDOCK:   -3.51 KCAL/MOL
REMARK 924 INTRA-LIGAND FREE ENERGY PREDICTED BY IDOCK:   -0.49 KCAL/MOL
REMARK 927      BINDING AFFINITY PREDICTED BY RF-SCORE:    0.00 PKD
ROOT
HETATM    1  O   UNL     1     -11.535   6.780  67.215  1.00  0.00    -0.752 OA 
HETATM    2  C   UNL     1     -10.190   7.158  66.910  1.00  0.00    -0.260 C  
HETATM    3  H   UNL     1     -11.849   6.208  66.524  1.00  0.00     0.000 HD 
ENDROOT
BRANCH   2   4
HETATM    4  C   UNL     1      -9.686   8.080  68.024  1.00  0.00    -0.160 C  
HETATM    5  H   UNL     1      -8.597   9.710  68.123  1.00  0.00     0.000 HD 
HETATM    6  O   UNL     1      -8.910   9.137  67.432  1.00  0.00    -0.118 OA 
BRANCH   4   7
HETATM    7  C   UNL     1     -10.816   8.670  68.899  1.00  0.00     0.008 C  
HETATM    8  O   UNL     1     -11.367   7.626  69.725  1.00  0.00    -0.449 OA 
HETATM    9  H   UNL     1     -12.062   7.988  70.262  1.00  0.00     0.000 HD 
BRANCH   7  10
HETATM   10  C   UNL     1     -10.349   9.826  69.820  1.00  0.00    -0.246 C  
HETATM   11  H   UNL     1      -9.614  10.042  71.654  1.00  0.00     0.000 HD 
HETATM   12  O   UNL     1      -9.901   9.334  71.089  1.00  0.00    -0.285 OA 
BRANCH  10  13
HETATM   13  C   UNL     1     -11.441  10.887  70.041  1.00  0.00    -0.329 C  
HETATM   14  H   UNL     1     -13.389  10.891  70.313  1.00  0.00     0.000 HD 
HETATM   15  O   UNL     1     -12.714  10.236  70.177  1.00  0.00    -0.197 OA 
BRANCH  13  16
HETATM   16  C   UNL     1     -11.493  11.907  68.885  1.00  0.00    -0.301 C  
HETATM   17  O   UNL     1     -10.850  13.134  69.235  1.00  0.00    -0.417 OA 
HETATM   18  H   UNL     1     -10.882  13.762  68.524  1.00  0.00     0.000 HD 
ENDBRANCH  13  16
ENDBRANCH  10  13
ENDBRANCH   7  10
ENDBRANCH   4   7
ENDBRANCH   2   4
TORSDOF 5
ENDMDL
MODEL      208
REMARK 921   NORMALIZED FREE ENERGY PREDICTED BY IDOCK:   -2.84 KCAL/MOL
REMARK 922        TOTAL FREE ENERGY PREDICTED BY IDOCK:   -3.99 KCAL/MOL
REMARK 923 INTER-LIGAND FREE ENERGY PREDICTED BY IDOCK:   -3.56 KCAL/MOL
REMARK 924 INTRA-LIGAND FREE ENERGY PREDICTED BY IDOCK:   -0.42 KCAL/MOL
REMARK 927      BINDING AFFINITY PREDICTED BY RF-SCORE:    0.00 PKD
ROOT
HETATM    1  O   UNL     1     -11.134   6.290  73.371  1.00  0.00    -0.443 OA 
HETATM    2  C   UNL     1     -11.154   7.688  73.069  1.00  0.00    -0.381 C  
HETATM    3  H   UNL     1     -10.435   6.129  73.994  1.00  0.00     0.000 HD 
ENDROOT
BRANCH   2   4
HETATM    4  C   UNL     1     -12.279   7.947  72.063  1.00  0.00    -0.317 C  
HETATM    5  H   UNL     1     -13.831   9.143  71.959  1.00  0.00     0.000 HD 
HETATM    6  O   UNL     1     -13.133   8.982  72.583  1.00  0.00    -0.426 OA 
BRANCH   4   7
HETATM    7  C   UNL     1     -11.773   8.328  70.652  1.00  0.00    -0.147 C  
HETATM    8  O   UNL     1     -12.288   9.627  70.301  1.00  0.00    -0.475 OA 
HETATM    9  H   UNL     1     -11.978   9.860  69.434  1.00  0.00     0.000 HD 
BRANCH   7  10
HETATM   10  C   UNL     1     -10.228   8.367  70.536  1.00  0.00    -0.196 C  
HETATM   11  H   UNL     1      -8.813   9.711  70.162  1.00  0.00     0.000 HD 
HETATM   12  O   UNL     1      -9.760   9.686  70.233  1.00  0.00    -0.240 OA 
BRANCH  10  13
HETATM   13  C   UNL     1      -9.688   7.379  69.488  1.00  0.00    -0.159 C  
HETATM   14  H   UNL     1      -8.036   7.174  68.442  1.00  0.00     0.000 HD 
HETATM   15  O   UNL     1      -8.369   7.784  69.089  1.00  0.00    -0.130 OA 
BRANCH  13  16
HETATM   16  C   UNL     1     -10.607   7.292  68.252  1.00  0.00    -0.172 C  
HETATM   17  O   UNL     1     -10.877   8.583  67.703  1.00  0.00    -0.477 OA 
HETATM   18  H   UNL     1     -11.443   8.529  66.942  1.00  0.00     0.000 HD 
ENDBRANCH  13  16
ENDBRANCH  10  13
ENDBRANCH   7  10
ENDBRANCH   4   7
ENDBRANCH   2   4
TORSDOF 5
ENDMDL
MODEL      209
REMARK 921   NORMALIZED FREE ENERGY PREDICTED BY IDOCK:   -2.84 KCAL/MOL
REMARK 922        TOTAL FREE ENERGY PREDICTED BY IDOCK:   -3.98 KCAL/MOL
REMARK 923 INTER-LIGAND FREE ENERGY PREDICTED BY IDOCK:   -3.49 KCAL/MOL
REMARK 924 INTRA-LIGAND FREE ENERGY PREDICTED BY IDOCK:   -0.49 KCAL/MOL
REMARK 927      BINDING AFFINITY PREDICTED BY RF-SCORE:    0.00 PKD
ROOT
HETATM    1  O   UNL     1     -11.521   6.710  67.238  1.00  0.00    -0.766 OA 
HETATM    2  C   UNL     1     -10.332   7.356  67.701  1.00  0.00    -0.231 C  
HETATM    3  H   UNL     1     -11.487   6.666  66.290  1.00  0.00     0.000 HD 
ENDROOT
BRANCH   2   4
HETATM    4  C   UNL     1     -10.387   7.428  69.230  1.00  0.00    -0.204 C  
HETATM    5  H   UNL     1     -10.999   8.733  70.561  1.00  0.00     0.000 HD 
HETATM    6  O   UNL     1     -10.964   8.689  69.612  1.00  0.00    -0.198 OA 
BRANCH   4   7
HETATM    7  C   UNL     1     -11.171   6.261  69.876  1.00  0.00    -0.429 C  
HETATM    8  O   UNL     1     -10.641   5.012  69.393  1.00  0.00    -0.161 OA 
HETATM    9  H   UNL     1     -11.122   4.296  69.790  1.00  0.00     0.000 HD 
BRANCH   7  10
HETATM   10  C   UNL     1     -11.106   6.253  71.425  1.00  0.00    -0.284 C  
HETATM   11  H   UNL     1     -12.043   7.129  72.943  1.00  0.00     0.000 HD 
HETATM   12  O   UNL     1     -12.082   7.134  71.993  1.00  0.00    -0.299 OA 
BRANCH  10  13
HETATM   13  C   UNL     1      -9.712   6.623  71.961  1.00  0.00    -0.151 C  
HETATM   14  H   UNL     1      -8.295   5.723  72.985  1.00  0.00     0.000 HD 
HETATM   15  O   UNL     1      -9.156   5.495  72.655  1.00  0.00    -0.138 OA 
BRANCH  13  16
HETATM   16  C   UNL     1      -9.762   7.846  72.899  1.00  0.00    -0.273 C  
HETATM   17  O   UNL     1      -9.112   8.980  72.323  1.00  0.00    -0.351 OA 
HETATM   18  H   UNL     1      -9.143   9.733  72.901  1.00  0.00     0.000 HD 
ENDBRANCH  13  16
ENDBRANCH  10  13
ENDBRANCH   7  10
ENDBRANCH   4   7
ENDBRANCH   2   4
TORSDOF 5
ENDMDL
MODEL      210
REMARK 921   NORMALIZED FREE ENERGY PREDICTED BY IDOCK:   -2.82 KCAL/MOL
REMARK 922        TOTAL FREE ENERGY PREDICTED BY IDOCK:   -3.95 KCAL/MOL
REMARK 923 INTER-LIGAND FREE ENERGY PREDICTED BY IDOCK:   -3.73 KCAL/MOL
REMARK 924 INTRA-LIGAND FREE ENERGY PREDICTED BY IDOCK:   -0.22 KCAL/MOL
REMARK 927      BINDING AFFINITY PREDICTED BY RF-SCORE:    0.00 PKD
ROOT
HETATM    1  O   UNL     1      -7.130  18.668  68.298  1.00  0.00    -0.239 OA 
HETATM    2  C   UNL     1      -8.523  18.737  67.980  1.00  0.00    -0.292 C  
HETATM    3  H   UNL     1      -6.992  19.100  69.133  1.00  0.00     0.000 HD 
ENDROOT
BRANCH   2   4
HETATM    4  C   UNL     1      -8.745  18.040  66.635  1.00  0.00    -0.259 C  
HETATM    5  H   UNL     1      -7.660  16.956  65.411  1.00  0.00     0.000 HD 
HETATM    6  O   UNL     1      -7.522  17.389  66.246  1.00  0.00    -0.271 OA 
BRANCH   4   7
HETATM    7  C   UNL     1      -9.912  17.026  66.647  1.00  0.00    -0.302 C  
HETATM    8  O   UNL     1     -10.217  16.642  65.292  1.00  0.00    -0.600 OA 
HETATM    9  H   UNL     1     -10.934  16.019  65.300  1.00  0.00     0.000 HD 
BRANCH   7  10
HETATM   10  C   UNL     1      -9.612  15.744  67.463  1.00  0.00    -0.224 C  
HETATM   11  H   UNL     1      -9.240  13.824  67.106  1.00  0.00     0.000 HD 
HETATM   12  O   UNL     1      -9.424  14.611  66.606  1.00  0.00    -0.251 OA 
BRANCH  10  13
HETATM   13  C   UNL     1     -10.708  15.428  68.495  1.00  0.00    -0.256 C  
HETATM   14  H   UNL     1     -11.097  15.921  70.358  1.00  0.00     0.000 HD 
HETATM   15  O   UNL     1     -10.419  16.116  69.721  1.00  0.00    -0.282 OA 
BRANCH  13  16
HETATM   16  C   UNL     1     -10.830  13.912  68.759  1.00  0.00    -0.263 C  
HETATM   17  O   UNL     1     -11.298  13.643  70.082  1.00  0.00    -0.491 OA 
HETATM   18  H   UNL     1     -11.373  12.711  70.244  1.00  0.00     0.000 HD 
ENDBRANCH  13  16
ENDBRANCH  10  13
ENDBRANCH   7  10
ENDBRANCH   4   7
ENDBRANCH   2   4
TORSDOF 5
ENDMDL
MODEL      211
REMARK 921   NORMALIZED FREE ENERGY PREDICTED BY IDOCK:   -2.81 KCAL/MOL
REMARK 922        TOTAL FREE ENERGY PREDICTED BY IDOCK:   -3.95 KCAL/MOL
REMARK 923 INTER-LIGAND FREE ENERGY PREDICTED BY IDOCK:   -3.48 KCAL/MOL
REMARK 924 INTRA-LIGAND FREE ENERGY PREDICTED BY IDOCK:   -0.47 KCAL/MOL
REMARK 927      BINDING AFFINITY PREDICTED BY RF-SCORE:    0.00 PKD
ROOT
HETATM    1  O   UNL     1     -10.706  17.964  65.231  1.00  0.00    -0.640 OA 
HETATM    2  C   UNL     1      -9.769  17.921  66.311  1.00  0.00    -0.269 C  
HETATM    3  H   UNL     1     -11.349  18.637  65.421  1.00  0.00     0.000 HD 
ENDROOT
BRANCH   2   4
HETATM    4  C   UNL     1      -8.731  16.837  66.003  1.00  0.00    -0.183 C  
HETATM    5  H   UNL     1      -6.773  16.719  65.996  1.00  0.00     0.000 HD 
HETATM    6  O   UNL     1      -7.416  17.392  66.186  1.00  0.00    -0.294 OA 
BRANCH   4   7
HETATM    7  C   UNL     1      -8.898  15.560  66.859  1.00  0.00    -0.255 C  
HETATM    8  O   UNL     1      -7.616  14.917  67.002  1.00  0.00    -0.276 OA 
HETATM    9  H   UNL     1      -7.718  14.132  67.527  1.00  0.00     0.000 HD 
BRANCH   7  10
HETATM   10  C   UNL     1      -9.469  15.831  68.274  1.00  0.00    -0.200 C  
HETATM   11  H   UNL     1      -8.791  16.416  70.048  1.00  0.00     0.000 HD 
HETATM   12  O   UNL     1      -8.441  16.250  69.181  1.00  0.00    -0.251 OA 
BRANCH  10  13
HETATM   13  C   UNL     1     -10.201  14.612  68.861  1.00  0.00    -0.241 C  
HETATM   14  H   UNL     1     -11.025  12.971  68.159  1.00  0.00     0.000 HD 
HETATM   15  O   UNL     1     -10.573  13.723  67.796  1.00  0.00    -0.242 OA 
BRANCH  13  16
HETATM   16  C   UNL     1     -11.454  15.025  69.662  1.00  0.00    -0.294 C  
HETATM   17  O   UNL     1     -11.107  15.700  70.873  1.00  0.00    -0.329 OA 
HETATM   18  H   UNL     1     -11.877  15.954  71.366  1.00  0.00     0.000 HD 
ENDBRANCH  13  16
ENDBRANCH  10  13
ENDBRANCH   7  10
ENDBRANCH   4   7
ENDBRANCH   2   4
TORSDOF 5
ENDMDL
MODEL      212
REMARK 921   NORMALIZED FREE ENERGY PREDICTED BY IDOCK:   -2.81 KCAL/MOL
REMARK 922        TOTAL FREE ENERGY PREDICTED BY IDOCK:   -3.95 KCAL/MOL
REMARK 923 INTER-LIGAND FREE ENERGY PREDICTED BY IDOCK:   -4.50 KCAL/MOL
REMARK 924 INTRA-LIGAND FREE ENERGY PREDICTED BY IDOCK:    0.55 KCAL/MOL
REMARK 927      BINDING AFFINITY PREDICTED BY RF-SCORE:    0.00 PKD
ROOT
HETATM    1  O   UNL     1     -12.704  14.712  69.382  1.00  0.00    -0.569 OA 
HETATM    2  C   UNL     1     -11.291  14.772  69.163  1.00  0.00    -0.282 C  
HETATM    3  H   UNL     1     -12.898  15.154  70.200  1.00  0.00     0.000 HD 
ENDROOT
BRANCH   2   4
HETATM    4  C   UNL     1     -10.978  14.059  67.844  1.00  0.00    -0.247 C  
HETATM    5  H   UNL     1     -10.010  12.438  67.311  1.00  0.00     0.000 HD 
HETATM    6  O   UNL     1     -10.204  12.880  68.129  1.00  0.00    -0.226 OA 
BRANCH   4   7
HETATM    7  C   UNL     1     -12.237  13.689  67.026  1.00  0.00    -0.329 C  
HETATM    8  O   UNL     1     -12.651  14.833  66.255  1.00  0.00    -0.196 OA 
HETATM    9  H   UNL     1     -13.425  14.606  65.752  1.00  0.00     0.000 HD 
BRANCH   7  10
HETATM   10  C   UNL     1     -12.020  12.499  66.057  1.00  0.00    -0.392 C  
HETATM   11  H   UNL     1     -10.738  10.997  65.833  1.00  0.00     0.000 HD 
HETATM   12  O   UNL     1     -10.871  11.727  66.427  1.00  0.00    -0.259 OA 
BRANCH  10  13
HETATM   13  C   UNL     1     -11.883  12.947  64.591  1.00  0.00    -0.372 C  
HETATM   14  H   UNL     1     -13.067  13.089  63.028  1.00  0.00     0.000 HD 
HETATM   15  O   UNL     1     -13.152  12.812  63.933  1.00  0.00    -0.572 OA 
BRANCH  13  16
HETATM   16  C   UNL     1     -10.811  12.131  63.839  1.00  0.00    -0.406 C  
HETATM   17  O   UNL     1      -9.542  12.787  63.854  1.00  0.00    -0.651 OA 
HETATM   18  H   UNL     1      -8.882  12.285  63.391  1.00  0.00     0.000 HD 
ENDBRANCH  13  16
ENDBRANCH  10  13
ENDBRANCH   7  10
ENDBRANCH   4   7
ENDBRANCH   2   4
TORSDOF 5
ENDMDL
MODEL      213
REMARK 921   NORMALIZED FREE ENERGY PREDICTED BY IDOCK:   -2.81 KCAL/MOL
REMARK 922        TOTAL FREE ENERGY PREDICTED BY IDOCK:   -3.94 KCAL/MOL
REMARK 923 INTER-LIGAND FREE ENERGY PREDICTED BY IDOCK:   -3.48 KCAL/MOL
REMARK 924 INTRA-LIGAND FREE ENERGY PREDICTED BY IDOCK:   -0.47 KCAL/MOL
REMARK 927      BINDING AFFINITY PREDICTED BY RF-SCORE:    0.00 PKD
ROOT
HETATM    1  O   UNL     1      -9.646  16.503  68.322  1.00  0.00    -0.214 OA 
HETATM    2  C   UNL     1     -10.649  16.202  67.348  1.00  0.00    -0.311 C  
HETATM    3  H   UNL     1      -9.026  17.110  67.933  1.00  0.00     0.000 HD 
ENDROOT
BRANCH   2   4
HETATM    4  C   UNL     1     -11.648  15.224  67.974  1.00  0.00    -0.312 C  
HETATM    5  H   UNL     1     -12.928  13.895  67.308  1.00  0.00     0.000 HD 
HETATM    6  O   UNL     1     -12.309  14.502  66.920  1.00  0.00    -0.319 OA 
BRANCH   4   7
HETATM    7  C   UNL     1     -11.005  14.239  68.978  1.00  0.00    -0.260 C  
HETATM    8  O   UNL     1     -11.134  14.773  70.310  1.00  0.00    -0.379 OA 
HETATM    9  H   UNL     1     -10.738  14.168  70.926  1.00  0.00     0.000 HD 
BRANCH   7  10
HETATM   10  C   UNL     1     -11.640  12.826  68.954  1.00  0.00    -0.316 C  
HETATM   11  H   UNL     1     -12.609  11.625  70.206  1.00  0.00     0.000 HD 
HETATM   12  O   UNL     1     -12.220  12.492  70.221  1.00  0.00    -0.329 OA 
BRANCH  10  13
HETATM   13  C   UNL     1     -10.637  11.733  68.547  1.00  0.00    -0.217 C  
HETATM   14  H   UNL     1      -9.179  11.552  67.241  1.00  0.00     0.000 HD 
HETATM   15  O   UNL     1      -9.798  12.227  67.492  1.00  0.00    -0.189 OA 
BRANCH  13  16
HETATM   16  C   UNL     1     -11.348  10.441  68.092  1.00  0.00    -0.213 C  
HETATM   17  O   UNL     1     -11.141   9.372  69.017  1.00  0.00    -0.417 OA 
HETATM   18  H   UNL     1     -11.579   8.577  68.737  1.00  0.00     0.000 HD 
ENDBRANCH  13  16
ENDBRANCH  10  13
ENDBRANCH   7  10
ENDBRANCH   4   7
ENDBRANCH   2   4
TORSDOF 5
ENDMDL
MODEL      214
REMARK 921   NORMALIZED FREE ENERGY PREDICTED BY IDOCK:   -2.81 KCAL/MOL
REMARK 922        TOTAL FREE ENERGY PREDICTED BY IDOCK:   -3.94 KCAL/MOL
REMARK 923 INTER-LIGAND FREE ENERGY PREDICTED BY IDOCK:   -3.79 KCAL/MOL
REMARK 924 INTRA-LIGAND FREE ENERGY PREDICTED BY IDOCK:   -0.14 KCAL/MOL
REMARK 927      BINDING AFFINITY PREDICTED BY RF-SCORE:    0.00 PKD
ROOT
HETATM    1  O   UNL     1     -13.930   8.897  73.334  1.00  0.00    -1.236 OA 
HETATM    2  C   UNL     1     -13.517   8.436  72.045  1.00  0.00    -0.350 C  
HETATM    3  H   UNL     1     -14.878   8.949  73.343  1.00  0.00     0.000 HD 
ENDROOT
BRANCH   2   4
HETATM    4  C   UNL     1     -11.987   8.354  72.031  1.00  0.00    -0.357 C  
HETATM    5  H   UNL     1     -10.596   7.734  73.267  1.00  0.00     0.000 HD 
HETATM    6  O   UNL     1     -11.545   7.786  73.276  1.00  0.00    -0.248 OA 
BRANCH   4   7
HETATM    7  C   UNL     1     -11.422   7.546  70.840  1.00  0.00    -0.281 C  
HETATM    8  O   UNL     1     -11.280   8.418  69.703  1.00  0.00    -0.444 OA 
HETATM    9  H   UNL     1     -10.932   7.921  68.971  1.00  0.00     0.000 HD 
BRANCH   7  10
HETATM   10  C   UNL     1     -10.046   6.894  71.131  1.00  0.00    -0.191 C  
HETATM   11  H   UNL     1      -8.146   7.462  71.262  1.00  0.00     0.000 HD 
HETATM   12  O   UNL     1      -8.989   7.861  71.084  1.00  0.00    -0.134 OA 
BRANCH  10  13
HETATM   13  C   UNL     1      -9.722   5.738  70.168  1.00  0.00    -0.170 C  
HETATM   14  H   UNL     1     -10.038   3.798  70.114  1.00  0.00     0.000 HD 
HETATM   15  O   UNL     1     -10.238   4.512  70.709  1.00  0.00    -0.194 OA 
BRANCH  13  16
HETATM   16  C   UNL     1      -8.206   5.606  69.917  1.00  0.00    -0.109 C  
HETATM   17  O   UNL     1      -7.931   4.857  68.732  1.00  0.00    -0.080 OA 
HETATM   18  H   UNL     1      -6.997   4.776  68.577  1.00  0.00     0.000 HD 
ENDBRANCH  13  16
ENDBRANCH  10  13
ENDBRANCH   7  10
ENDBRANCH   4   7
ENDBRANCH   2   4
TORSDOF 5
ENDMDL
MODEL      215
REMARK 921   NORMALIZED FREE ENERGY PREDICTED BY IDOCK:   -2.80 KCAL/MOL
REMARK 922        TOTAL FREE ENERGY PREDICTED BY IDOCK:   -3.93 KCAL/MOL
REMARK 923 INTER-LIGAND FREE ENERGY PREDICTED BY IDOCK:   -3.30 KCAL/MOL
REMARK 924 INTRA-LIGAND FREE ENERGY PREDICTED BY IDOCK:   -0.63 KCAL/MOL
REMARK 927      BINDING AFFINITY PREDICTED BY RF-SCORE:    0.00 PKD
ROOT
HETATM    1  O   UNL     1      -7.995  10.681  66.890  1.00  0.00    -0.117 OA 
HETATM    2  C   UNL     1      -8.565   9.371  66.974  1.00  0.00    -0.128 C  
HETATM    3  H   UNL     1      -7.171  10.619  66.421  1.00  0.00     0.000 HD 
ENDROOT
BRANCH   2   4
HETATM    4  C   UNL     1      -9.892   9.472  67.730  1.00  0.00    -0.160 C  
HETATM    5  H   UNL     1     -11.508   8.372  67.897  1.00  0.00     0.000 HD 
HETATM    6  O   UNL     1     -10.685   8.310  67.428  1.00  0.00    -0.270 OA 
BRANCH   4   7
HETATM    7  C   UNL     1      -9.724   9.622  69.260  1.00  0.00    -0.185 C  
HETATM    8  O   UNL     1      -8.929  10.792  69.534  1.00  0.00    -0.398 OA 
HETATM    9  H   UNL     1      -8.825  10.884  70.474  1.00  0.00     0.000 HD 
BRANCH   7  10
HETATM   10  C   UNL     1     -11.067   9.755  70.022  1.00  0.00    -0.267 C  
HETATM   11  H   UNL     1     -12.356  11.191  70.495  1.00  0.00     0.000 HD 
HETATM   12  O   UNL     1     -11.532  11.110  70.028  1.00  0.00    -0.285 OA 
BRANCH  10  13
HETATM   13  C   UNL     1     -10.980   9.238  71.469  1.00  0.00    -0.375 C  
HETATM   14  H   UNL     1      -9.550   8.861  72.764  1.00  0.00     0.000 HD 
HETATM   15  O   UNL     1      -9.603   9.180  71.871  1.00  0.00    -0.310 OA 
BRANCH  13  16
HETATM   16  C   UNL     1     -11.633   7.849  71.623  1.00  0.00    -0.272 C  
HETATM   17  O   UNL     1     -12.257   7.422  70.412  1.00  0.00    -0.533 OA 
HETATM   18  H   UNL     1     -12.659   6.566  70.506  1.00  0.00     0.000 HD 
ENDBRANCH  13  16
ENDBRANCH  10  13
ENDBRANCH   7  10
ENDBRANCH   4   7
ENDBRANCH   2   4
TORSDOF 5
ENDMDL
MODEL      216
REMARK 921   NORMALIZED FREE ENERGY PREDICTED BY IDOCK:   -2.80 KCAL/MOL
REMARK 922        TOTAL FREE ENERGY PREDICTED BY IDOCK:   -3.93 KCAL/MOL
REMARK 923 INTER-LIGAND FREE ENERGY PREDICTED BY IDOCK:   -3.81 KCAL/MOL
REMARK 924 INTRA-LIGAND FREE ENERGY PREDICTED BY IDOCK:   -0.12 KCAL/MOL
REMARK 927      BINDING AFFINITY PREDICTED BY RF-SCORE:    0.00 PKD
ROOT
HETATM    1  O   UNL     1      -8.035  10.414  70.173  1.00  0.00    -0.359 OA 
HETATM    2  C   UNL     1      -8.794  10.629  68.980  1.00  0.00    -0.148 C  
HETATM    3  H   UNL     1      -7.119  10.576  69.978  1.00  0.00     0.000 HD 
ENDROOT
BRANCH   2   4
HETATM    4  C   UNL     1     -10.270  10.367  69.296  1.00  0.00    -0.230 C  
HETATM    5  H   UNL     1     -11.292   9.753  70.854  1.00  0.00     0.000 HD 
HETATM    6  O   UNL     1     -10.377   9.915  70.658  1.00  0.00    -0.286 OA 
BRANCH   4   7
HETATM    7  C   UNL     1     -11.179  11.597  69.066  1.00  0.00    -0.262 C  
HETATM    8  O   UNL     1     -12.116  11.299  68.013  1.00  0.00    -0.638 OA 
HETATM    9  H   UNL     1     -12.675  12.055  67.871  1.00  0.00     0.000 HD 
BRANCH   7  10
HETATM   10  C   UNL     1     -11.979  12.021  70.325  1.00  0.00    -0.314 C  
HETATM   11  H   UNL     1     -13.507  11.340  71.398  1.00  0.00     0.000 HD 
HETATM   12  O   UNL     1     -13.016  11.080  70.626  1.00  0.00    -0.254 OA 
BRANCH  10  13
HETATM   13  C   UNL     1     -12.587  13.428  70.193  1.00  0.00    -0.077 C  
HETATM   14  H   UNL     1     -12.385  14.960  68.977  1.00  0.00     0.000 HD 
HETATM   15  O   UNL     1     -12.009  14.091  69.059  1.00  0.00    -0.332 OA 
BRANCH  13  16
HETATM   16  C   UNL     1     -12.365  14.272  71.465  1.00  0.00    -0.339 C  
HETATM   17  O   UNL     1     -11.058  14.849  71.494  1.00  0.00    -0.567 OA 
HETATM   18  H   UNL     1     -10.921  15.369  72.277  1.00  0.00     0.000 HD 
ENDBRANCH  13  16
ENDBRANCH  10  13
ENDBRANCH   7  10
ENDBRANCH   4   7
ENDBRANCH   2   4
TORSDOF 5
ENDMDL
MODEL      217
REMARK 921   NORMALIZED FREE ENERGY PREDICTED BY IDOCK:   -2.78 KCAL/MOL
REMARK 922        TOTAL FREE ENERGY PREDICTED BY IDOCK:   -3.91 KCAL/MOL
REMARK 923 INTER-LIGAND FREE ENERGY PREDICTED BY IDOCK:   -3.29 KCAL/MOL
REMARK 924 INTRA-LIGAND FREE ENERGY PREDICTED BY IDOCK:   -0.62 KCAL/MOL
REMARK 927      BINDING AFFINITY PREDICTED BY RF-SCORE:    0.00 PKD
ROOT
HETATM    1  O   UNL     1      -8.901   8.738  63.466  1.00  0.00    -0.434 OA 
HETATM    2  C   UNL     1      -8.453  10.097  63.475  1.00  0.00    -0.186 C  
HETATM    3  H   UNL     1      -8.237   8.207  63.042  1.00  0.00     0.000 HD 
ENDROOT
BRANCH   2   4
HETATM    4  C   UNL     1      -9.524  10.952  64.158  1.00  0.00    -0.257 C  
HETATM    5  H   UNL     1     -11.207  11.802  63.617  1.00  0.00     0.000 HD 
HETATM    6  O   UNL     1     -10.543  11.271  63.194  1.00  0.00    -0.310 OA 
BRANCH   4   7
HETATM    7  C   UNL     1     -10.153  10.281  65.401  1.00  0.00    -0.284 C  
HETATM    8  O   UNL     1      -9.118   9.623  66.156  1.00  0.00    -0.147 OA 
HETATM    9  H   UNL     1      -9.504   9.211  66.920  1.00  0.00     0.000 HD 
BRANCH   7  10
HETATM   10  C   UNL     1     -10.886  11.274  66.338  1.00  0.00    -0.251 C  
HETATM   11  H   UNL     1     -12.451  12.496  66.254  1.00  0.00     0.000 HD 
HETATM   12  O   UNL     1     -12.002  11.887  65.680  1.00  0.00    -0.429 OA 
BRANCH  10  13
HETATM   13  C   UNL     1      -9.954  12.367  66.887  1.00  0.00    -0.215 C  
HETATM   14  H   UNL     1      -8.991  12.707  68.568  1.00  0.00     0.000 HD 
HETATM   15  O   UNL     1      -9.567  12.032  68.229  1.00  0.00    -0.197 OA 
BRANCH  13  16
HETATM   16  C   UNL     1     -10.622  13.758  66.865  1.00  0.00    -0.276 C  
HETATM   17  O   UNL     1     -10.419  14.421  65.616  1.00  0.00    -0.300 OA 
HETATM   18  H   UNL     1     -10.831  15.276  65.602  1.00  0.00     0.000 HD 
ENDBRANCH  13  16
ENDBRANCH  10  13
ENDBRANCH   7  10
ENDBRANCH   4   7
ENDBRANCH   2   4
TORSDOF 5
ENDMDL
MODEL      218
REMARK 921   NORMALIZED FREE ENERGY PREDICTED BY IDOCK:   -2.78 KCAL/MOL
REMARK 922        TOTAL FREE ENERGY PREDICTED BY IDOCK:   -3.91 KCAL/MOL
REMARK 923 INTER-LIGAND FREE ENERGY PREDICTED BY IDOCK:   -3.32 KCAL/MOL
REMARK 924 INTRA-LIGAND FREE ENERGY PREDICTED BY IDOCK:   -0.59 KCAL/MOL
REMARK 927      BINDING AFFINITY PREDICTED BY RF-SCORE:    0.00 PKD
ROOT
HETATM    1  O   UNL     1      -9.704   8.927  69.221  1.00  0.00    -0.161 OA 
HETATM    2  C   UNL     1      -9.318  10.212  68.724  1.00  0.00    -0.168 C  
HETATM    3  H   UNL     1      -9.409   8.855  70.122  1.00  0.00     0.000 HD 
ENDROOT
BRANCH   2   4
HETATM    4  C   UNL     1      -9.792  10.328  67.273  1.00  0.00    -0.182 C  
HETATM    5  H   UNL     1     -10.015   9.101  65.758  1.00  0.00     0.000 HD 
HETATM    6  O   UNL     1      -9.720   9.029  66.659  1.00  0.00    -0.189 OA 
BRANCH   4   7
HETATM    7  C   UNL     1     -11.217  10.910  67.131  1.00  0.00    -0.184 C  
HETATM    8  O   UNL     1     -11.832  10.973  68.433  1.00  0.00    -0.515 OA 
HETATM    9  H   UNL     1     -12.708  11.330  68.346  1.00  0.00     0.000 HD 
BRANCH   7  10
HETATM   10  C   UNL     1     -11.249  12.328  66.508  1.00  0.00    -0.324 C  
HETATM   11  H   UNL     1     -10.559  13.238  64.881  1.00  0.00     0.000 HD 
HETATM   12  O   UNL     1     -10.540  12.368  65.263  1.00  0.00    -0.274 OA 
BRANCH  10  13
HETATM   13  C   UNL     1     -10.683  13.403  67.452  1.00  0.00    -0.262 C  
HETATM   14  H   UNL     1     -11.220  15.196  68.055  1.00  0.00     0.000 HD 
HETATM   15  O   UNL     1     -11.570  14.533  67.472  1.00  0.00    -0.347 OA 
BRANCH  13  16
HETATM   16  C   UNL     1      -9.269  13.852  67.030  1.00  0.00    -0.250 C  
HETATM   17  O   UNL     1      -9.311  14.772  65.938  1.00  0.00    -0.464 OA 
HETATM   18  H   UNL     1      -8.440  15.049  65.678  1.00  0.00     0.000 HD 
ENDBRANCH  13  16
ENDBRANCH  10  13
ENDBRANCH   7  10
ENDBRANCH   4   7
ENDBRANCH   2   4
TORSDOF 5
ENDMDL
MODEL      219
REMARK 921   NORMALIZED FREE ENERGY PREDICTED BY IDOCK:   -2.78 KCAL/MOL
REMARK 922        TOTAL FREE ENERGY PREDICTED BY IDOCK:   -3.90 KCAL/MOL
REMARK 923 INTER-LIGAND FREE ENERGY PREDICTED BY IDOCK:   -3.46 KCAL/MOL
REMARK 924 INTRA-LIGAND FREE ENERGY PREDICTED BY IDOCK:   -0.44 KCAL/MOL
REMARK 927      BINDING AFFINITY PREDICTED BY RF-SCORE:    0.00 PKD
ROOT
HETATM    1  O   UNL     1     -12.298  10.955  68.645  1.00  0.00    -0.805 OA 
HETATM    2  C   UNL     1     -11.119  11.742  68.835  1.00  0.00    -0.243 C  
HETATM    3  H   UNL     1     -12.107  10.062  68.909  1.00  0.00     0.000 HD 
ENDROOT
BRANCH   2   4
HETATM    4  C   UNL     1     -11.427  13.181  68.411  1.00  0.00    -0.315 C  
HETATM    5  H   UNL     1     -11.404  14.942  69.273  1.00  0.00     0.000 HD 
HETATM    6  O   UNL     1     -11.213  14.050  69.537  1.00  0.00    -0.245 OA 
BRANCH   4   7
HETATM    7  C   UNL     1     -10.596  13.660  67.198  1.00  0.00    -0.272 C  
HETATM    8  O   UNL     1     -11.375  13.495  65.998  1.00  0.00    -0.305 OA 
HETATM    9  H   UNL     1     -10.864  13.789  65.252  1.00  0.00     0.000 HD 
BRANCH   7  10
HETATM   10  C   UNL     1     -10.156  15.143  67.295  1.00  0.00    -0.235 C  
HETATM   11  H   UNL     1     -10.625  16.877  66.444  1.00  0.00     0.000 HD 
HETATM   12  O   UNL     1     -10.895  15.967  66.385  1.00  0.00    -0.269 OA 
BRANCH  10  13
HETATM   13  C   UNL     1      -8.649  15.331  67.046  1.00  0.00    -0.227 C  
HETATM   14  H   UNL     1      -6.993  14.405  67.561  1.00  0.00     0.000 HD 
HETATM   15  O   UNL     1      -7.923  14.289  67.715  1.00  0.00    -0.139 OA 
BRANCH  13  16
HETATM   16  C   UNL     1      -8.155  16.710  67.529  1.00  0.00    -0.168 C  
HETATM   17  O   UNL     1      -8.613  17.763  66.678  1.00  0.00    -0.241 OA 
HETATM   18  H   UNL     1      -8.309  18.612  66.975  1.00  0.00     0.000 HD 
ENDBRANCH  13  16
ENDBRANCH  10  13
ENDBRANCH   7  10
ENDBRANCH   4   7
ENDBRANCH   2   4
TORSDOF 5
ENDMDL
MODEL      220
REMARK 921   NORMALIZED FREE ENERGY PREDICTED BY IDOCK:   -2.77 KCAL/MOL
REMARK 922        TOTAL FREE ENERGY PREDICTED BY IDOCK:   -3.90 KCAL/MOL
REMARK 923 INTER-LIGAND FREE ENERGY PREDICTED BY IDOCK:   -2.91 KCAL/MOL
REMARK 924 INTRA-LIGAND FREE ENERGY PREDICTED BY IDOCK:   -0.98 KCAL/MOL
REMARK 927      BINDING AFFINITY PREDICTED BY RF-SCORE:    0.00 PKD
ROOT
HETATM    1  O   UNL     1     -12.382  10.819  68.619  1.00  0.00    -0.825 OA 
HETATM    2  C   UNL     1     -11.546  11.595  67.756  1.00  0.00    -0.289 C  
HETATM    3  H   UNL     1     -13.030  11.397  69.005  1.00  0.00     0.000 HD 
ENDROOT
BRANCH   2   4
HETATM    4  C   UNL     1     -10.501  10.663  67.134  1.00  0.00    -0.245 C  
HETATM    5  H   UNL     1      -9.251  10.752  65.625  1.00  0.00     0.000 HD 
HETATM    6  O   UNL     1      -9.899  11.330  66.010  1.00  0.00    -0.212 OA 
BRANCH   4   7
HETATM    7  C   UNL     1      -9.411  10.202  68.130  1.00  0.00    -0.142 C  
HETATM    8  O   UNL     1      -9.470  11.029  69.309  1.00  0.00    -0.397 OA 
HETATM    9  H   UNL     1      -8.800  10.745  69.920  1.00  0.00     0.000 HD 
BRANCH   7  10
HETATM   10  C   UNL     1      -9.555   8.721  68.564  1.00  0.00    -0.150 C  
HETATM   11  H   UNL     1     -10.731   7.641  69.747  1.00  0.00     0.000 HD 
HETATM   12  O   UNL     1     -10.643   8.548  69.480  1.00  0.00    -0.224 OA 
BRANCH  10  13
HETATM   13  C   UNL     1      -8.266   8.160  69.190  1.00  0.00    -0.123 C  
HETATM   14  H   UNL     1      -6.355   8.620  69.169  1.00  0.00     0.000 HD 
HETATM   15  O   UNL     1      -7.150   8.967  68.783  1.00  0.00    -0.065 OA 
BRANCH  13  16
HETATM   16  C   UNL     1      -8.026   6.690  68.790  1.00  0.00    -0.118 C  
HETATM   17  O   UNL     1      -9.202   5.897  68.964  1.00  0.00    -0.123 OA 
HETATM   18  H   UNL     1      -9.054   4.992  68.718  1.00  0.00     0.000 HD 
ENDBRANCH  13  16
ENDBRANCH  10  13
ENDBRANCH   7  10
ENDBRANCH   4   7
ENDBRANCH   2   4
TORSDOF 5
ENDMDL
MODEL      221
REMARK 921   NORMALIZED FREE ENERGY PREDICTED BY IDOCK:   -2.77 KCAL/MOL
REMARK 922        TOTAL FREE ENERGY PREDICTED BY IDOCK:   -3.89 KCAL/MOL
REMARK 923 INTER-LIGAND FREE ENERGY PREDICTED BY IDOCK:   -3.30 KCAL/MOL
REMARK 924 INTRA-LIGAND FREE ENERGY PREDICTED BY IDOCK:   -0.59 KCAL/MOL
REMARK 927      BINDING AFFINITY PREDICTED BY RF-SCORE:    0.00 PKD
ROOT
HETATM    1  O   UNL     1     -10.582   9.732  71.182  1.00  0.00    -0.297 OA 
HETATM    2  C   UNL     1     -10.907   9.520  69.805  1.00  0.00    -0.243 C  
HETATM    3  H   UNL     1     -10.975  10.552  71.458  1.00  0.00     0.000 HD 
ENDROOT
BRANCH   2   4
HETATM    4  C   UNL     1     -10.272   8.200  69.359  1.00  0.00    -0.211 C  
HETATM    5  H   UNL     1      -8.532   7.323  69.584  1.00  0.00     0.000 HD 
HETATM    6  O   UNL     1      -8.926   8.142  69.861  1.00  0.00    -0.142 OA 
BRANCH   4   7
HETATM    7  C   UNL     1     -11.066   6.950  69.806  1.00  0.00    -0.271 C  
HETATM    8  O   UNL     1     -11.136   6.019  68.709  1.00  0.00    -0.336 OA 
HETATM    9  H   UNL     1     -11.623   5.251  68.984  1.00  0.00     0.000 HD 
BRANCH   7  10
HETATM   10  C   UNL     1     -10.442   6.223  71.025  1.00  0.00    -0.225 C  
HETATM   11  H   UNL     1      -9.799   4.398  71.481  1.00  0.00     0.000 HD 
HETATM   12  O   UNL     1     -10.181   4.845  70.734  1.00  0.00    -0.232 OA 
BRANCH  10  13
HETATM   13  C   UNL     1     -11.318   6.322  72.285  1.00  0.00    -0.294 C  
HETATM   14  H   UNL     1     -11.974   5.084  73.666  1.00  0.00     0.000 HD 
HETATM   15  O   UNL     1     -11.433   5.023  72.887  1.00  0.00    -0.281 OA 
BRANCH  13  16
HETATM   16  C   UNL     1     -12.721   6.880  71.968  1.00  0.00    -0.193 C  
HETATM   17  O   UNL     1     -12.935   8.151  72.585  1.00  0.00    -0.576 OA 
HETATM   18  H   UNL     1     -13.798   8.496  72.390  1.00  0.00     0.000 HD 
ENDBRANCH  13  16
ENDBRANCH  10  13
ENDBRANCH   7  10
ENDBRANCH   4   7
ENDBRANCH   2   4
TORSDOF 5
ENDMDL
MODEL      222
REMARK 921   NORMALIZED FREE ENERGY PREDICTED BY IDOCK:   -2.77 KCAL/MOL
REMARK 922        TOTAL FREE ENERGY PREDICTED BY IDOCK:   -3.89 KCAL/MOL
REMARK 923 INTER-LIGAND FREE ENERGY PREDICTED BY IDOCK:   -3.28 KCAL/MOL
REMARK 924 INTRA-LIGAND FREE ENERGY PREDICTED BY IDOCK:   -0.61 KCAL/MOL
REMARK 927      BINDING AFFINITY PREDICTED BY RF-SCORE:    0.00 PKD
ROOT
HETATM    1  O   UNL     1     -13.926   8.959  70.832  1.00  0.00    -0.586 OA 
HETATM    2  C   UNL     1     -13.085   8.606  71.934  1.00  0.00    -0.373 C  
HETATM    3  H   UNL     1     -14.725   9.341  71.176  1.00  0.00     0.000 HD 
ENDROOT
BRANCH   2   4
HETATM    4  C   UNL     1     -11.798   7.990  71.380  1.00  0.00    -0.295 C  
HETATM    5  H   UNL     1     -10.554   8.396  69.918  1.00  0.00     0.000 HD 
HETATM    6  O   UNL     1     -11.353   8.779  70.262  1.00  0.00    -0.239 OA 
BRANCH   4   7
HETATM    7  C   UNL     1     -10.670   7.863  72.430  1.00  0.00    -0.305 C  
HETATM    8  O   UNL     1     -11.257   7.699  73.735  1.00  0.00    -0.428 OA 
HETATM    9  H   UNL     1     -10.564   7.621  74.380  1.00  0.00     0.000 HD 
BRANCH   7  10
HETATM   10  C   UNL     1      -9.713   6.671  72.172  1.00  0.00    -0.153 C  
HETATM   11  H   UNL     1      -8.223   6.219  70.937  1.00  0.00     0.000 HD 
HETATM   12  O   UNL     1      -8.810   6.950  71.095  1.00  0.00    -0.141 OA 
BRANCH  10  13
HETATM   13  C   UNL     1     -10.465   5.360  71.880  1.00  0.00    -0.224 C  
HETATM   14  H   UNL     1     -11.637   4.138  72.879  1.00  0.00     0.000 HD 
HETATM   15  O   UNL     1     -11.173   4.947  73.059  1.00  0.00    -0.279 OA 
BRANCH  13  16
HETATM   16  C   UNL     1      -9.511   4.240  71.420  1.00  0.00    -0.158 C  
HETATM   17  O   UNL     1      -8.247   4.318  72.082  1.00  0.00    -0.098 OA 
HETATM   18  H   UNL     1      -7.659   3.628  71.799  1.00  0.00     0.000 HD 
ENDBRANCH  13  16
ENDBRANCH  10  13
ENDBRANCH   7  10
ENDBRANCH   4   7
ENDBRANCH   2   4
TORSDOF 5
ENDMDL
MODEL      223
REMARK 921   NORMALIZED FREE ENERGY PREDICTED BY IDOCK:   -2.77 KCAL/MOL
REMARK 922        TOTAL FREE ENERGY PREDICTED BY IDOCK:   -3.89 KCAL/MOL
REMARK 923 INTER-LIGAND FREE ENERGY PREDICTED BY IDOCK:   -3.86 KCAL/MOL
REMARK 924 INTRA-LIGAND FREE ENERGY PREDICTED BY IDOCK:   -0.03 KCAL/MOL
REMARK 927      BINDING AFFINITY PREDICTED BY RF-SCORE:    0.00 PKD
ROOT
HETATM    1  O   UNL     1     -10.455  11.000  69.899  1.00  0.00    -0.446 OA 
HETATM    2  C   UNL     1     -11.066  11.410  68.672  1.00  0.00    -0.236 C  
HETATM    3  H   UNL     1      -9.882  10.264  69.716  1.00  0.00     0.000 HD 
ENDROOT
BRANCH   2   4
HETATM    4  C   UNL     1     -11.990  12.595  68.968  1.00  0.00    -0.236 C  
HETATM    5  H   UNL     1     -12.779  13.404  70.572  1.00  0.00     0.000 HD 
HETATM    6  O   UNL     1     -12.206  12.668  70.388  1.00  0.00    -0.349 OA 
BRANCH   4   7
HETATM    7  C   UNL     1     -11.455  13.945  68.437  1.00  0.00    -0.311 C  
HETATM    8  O   UNL     1     -12.477  14.577  67.642  1.00  0.00    -0.595 OA 
HETATM    9  H   UNL     1     -12.148  15.407  67.315  1.00  0.00     0.000 HD 
BRANCH   7  10
HETATM   10  C   UNL     1     -11.029  14.928  69.557  1.00  0.00    -0.273 C  
HETATM   11  H   UNL     1     -11.904  16.187  70.822  1.00  0.00     0.000 HD 
HETATM   12  O   UNL     1     -12.164  15.584  70.135  1.00  0.00    -0.357 OA 
BRANCH  10  13
HETATM   13  C   UNL     1     -10.023  15.984  69.068  1.00  0.00    -0.242 C  
HETATM   14  H   UNL     1      -9.614  16.883  67.368  1.00  0.00     0.000 HD 
HETATM   15  O   UNL     1     -10.235  16.231  67.669  1.00  0.00    -0.259 OA 
BRANCH  13  16
HETATM   16  C   UNL     1      -8.564  15.544  69.309  1.00  0.00    -0.263 C  
HETATM   17  O   UNL     1      -8.348  14.191  68.904  1.00  0.00    -0.288 OA 
HETATM   18  H   UNL     1      -7.450  13.920  69.051  1.00  0.00     0.000 HD 
ENDBRANCH  13  16
ENDBRANCH  10  13
ENDBRANCH   7  10
ENDBRANCH   4   7
ENDBRANCH   2   4
TORSDOF 5
ENDMDL
MODEL      224
REMARK 921   NORMALIZED FREE ENERGY PREDICTED BY IDOCK:   -2.75 KCAL/MOL
REMARK 922        TOTAL FREE ENERGY PREDICTED BY IDOCK:   -3.87 KCAL/MOL
REMARK 923 INTER-LIGAND FREE ENERGY PREDICTED BY IDOCK:   -2.79 KCAL/MOL
REMARK 924 INTRA-LIGAND FREE ENERGY PREDICTED BY IDOCK:   -1.08 KCAL/MOL
REMARK 927      BINDING AFFINITY PREDICTED BY RF-SCORE:    0.00 PKD
ROOT
HETATM    1  O   UNL     1     -11.519   6.444  66.656  1.00  0.00    -0.700 OA 
HETATM    2  C   UNL     1     -10.442   5.503  66.664  1.00  0.00    -0.294 C  
HETATM    3  H   UNL     1     -12.240   6.069  66.163  1.00  0.00     0.000 HD 
ENDROOT
BRANCH   2   4
HETATM    4  C   UNL     1      -9.281   6.109  67.458  1.00  0.00    -0.111 C  
HETATM    5  H   UNL     1      -7.669   5.427  68.344  1.00  0.00     0.000 HD 
HETATM    6  O   UNL     1      -8.390   5.051  67.852  1.00  0.00    -0.101 OA 
BRANCH   4   7
HETATM    7  C   UNL     1      -8.507   7.203  66.686  1.00  0.00    -0.121 C  
HETATM    8  O   UNL     1      -9.155   7.434  65.420  1.00  0.00    -0.380 OA 
HETATM    9  H   UNL     1      -8.679   8.106  64.945  1.00  0.00     0.000 HD 
BRANCH   7  10
HETATM   10  C   UNL     1      -8.418   8.552  67.443  1.00  0.00    -0.127 C  
HETATM   11  H   UNL     1      -7.231   9.413  68.784  1.00  0.00     0.000 HD 
HETATM   12  O   UNL     1      -7.285   8.586  68.320  1.00  0.00    -0.083 OA 
BRANCH  10  13
HETATM   13  C   UNL     1      -9.693   8.866  68.244  1.00  0.00    -0.157 C  
HETATM   14  H   UNL     1     -11.523   9.458  67.836  1.00  0.00     0.000 HD 
HETATM   15  O   UNL     1     -10.736   9.264  67.341  1.00  0.00    -0.279 OA 
BRANCH  13  16
HETATM   16  C   UNL     1      -9.456   9.972  69.293  1.00  0.00    -0.217 C  
HETATM   17  O   UNL     1      -8.888   9.447  70.494  1.00  0.00    -0.223 OA 
HETATM   18  H   UNL     1      -8.741  10.128  71.140  1.00  0.00     0.000 HD 
ENDBRANCH  13  16
ENDBRANCH  10  13
ENDBRANCH   7  10
ENDBRANCH   4   7
ENDBRANCH   2   4
TORSDOF 5
ENDMDL
MODEL      225
REMARK 921   NORMALIZED FREE ENERGY PREDICTED BY IDOCK:   -2.74 KCAL/MOL
REMARK 922        TOTAL FREE ENERGY PREDICTED BY IDOCK:   -3.86 KCAL/MOL
REMARK 923 INTER-LIGAND FREE ENERGY PREDICTED BY IDOCK:   -2.85 KCAL/MOL
REMARK 924 INTRA-LIGAND FREE ENERGY PREDICTED BY IDOCK:   -1.01 KCAL/MOL
REMARK 927      BINDING AFFINITY PREDICTED BY RF-SCORE:    0.00 PKD
ROOT
HETATM    1  O   UNL     1     -10.578   3.655  73.540  1.00  0.00    -0.160 OA 
HETATM    2  C   UNL     1     -10.459   4.871  74.284  1.00  0.00    -0.288 C  
HETATM    3  H   UNL     1     -10.664   2.936  74.156  1.00  0.00     0.000 HD 
ENDROOT
BRANCH   2   4
HETATM    4  C   UNL     1     -10.319   6.029  73.291  1.00  0.00    -0.223 C  
HETATM    5  H   UNL     1     -10.439   7.986  73.380  1.00  0.00     0.000 HD 
HETATM    6  O   UNL     1     -10.525   7.267  73.995  1.00  0.00    -0.311 OA 
BRANCH   4   7
HETATM    7  C   UNL     1      -8.961   6.052  72.553  1.00  0.00    -0.132 C  
HETATM    8  O   UNL     1      -8.209   4.878  72.913  1.00  0.00    -0.100 OA 
HETATM    9  H   UNL     1      -7.374   4.892  72.460  1.00  0.00     0.000 HD 
BRANCH   7  10
HETATM   10  C   UNL     1      -9.094   6.092  71.009  1.00  0.00    -0.143 C  
HETATM   11  H   UNL     1      -9.276   7.462  69.581  1.00  0.00     0.000 HD 
HETATM   12  O   UNL     1      -9.193   7.438  70.528  1.00  0.00    -0.157 OA 
BRANCH  10  13
HETATM   13  C   UNL     1     -10.295   5.277  70.498  1.00  0.00    -0.266 C  
HETATM   14  H   UNL     1     -10.678   3.385  70.125  1.00  0.00     0.000 HD 
HETATM   15  O   UNL     1      -9.936   3.888  70.441  1.00  0.00    -0.162 OA 
BRANCH  13  16
HETATM   16  C   UNL     1     -10.765   5.756  69.109  1.00  0.00    -0.300 C  
HETATM   17  O   UNL     1     -11.790   6.747  69.212  1.00  0.00    -0.606 OA 
HETATM   18  H   UNL     1     -12.079   7.042  68.357  1.00  0.00     0.000 HD 
ENDBRANCH  13  16
ENDBRANCH  10  13
ENDBRANCH   7  10
ENDBRANCH   4   7
ENDBRANCH   2   4
TORSDOF 5
ENDMDL
MODEL      226
REMARK 921   NORMALIZED FREE ENERGY PREDICTED BY IDOCK:   -2.73 KCAL/MOL
REMARK 922        TOTAL FREE ENERGY PREDICTED BY IDOCK:   -3.84 KCAL/MOL
REMARK 923 INTER-LIGAND FREE ENERGY PREDICTED BY IDOCK:   -3.11 KCAL/MOL
REMARK 924 INTRA-LIGAND FREE ENERGY PREDICTED BY IDOCK:   -0.73 KCAL/MOL
REMARK 927      BINDING AFFINITY PREDICTED BY RF-SCORE:    0.00 PKD
ROOT
HETATM    1  O   UNL     1     -11.763   6.509  69.446  1.00  0.00    -0.649 OA 
HETATM    2  C   UNL     1     -10.455   6.881  69.002  1.00  0.00    -0.208 C  
HETATM    3  H   UNL     1     -12.036   5.740  68.960  1.00  0.00     0.000 HD 
ENDROOT
BRANCH   2   4
HETATM    4  C   UNL     1     -10.015   8.120  69.787  1.00  0.00    -0.191 C  
HETATM    5  H   UNL     1     -10.912   9.537  70.806  1.00  0.00     0.000 HD 
HETATM    6  O   UNL     1     -11.185   8.768  70.319  1.00  0.00    -0.253 OA 
BRANCH   4   7
HETATM    7  C   UNL     1      -9.011   7.811  70.922  1.00  0.00    -0.147 C  
HETATM    8  O   UNL     1      -7.913   8.740  70.845  1.00  0.00    -0.106 OA 
HETATM    9  H   UNL     1      -7.296   8.550  71.542  1.00  0.00     0.000 HD 
BRANCH   7  10
HETATM   10  C   UNL     1      -9.630   7.902  72.340  1.00  0.00    -0.210 C  
HETATM   11  H   UNL     1      -9.129   8.625  74.122  1.00  0.00     0.000 HD 
HETATM   12  O   UNL     1      -8.750   8.569  73.252  1.00  0.00    -0.337 OA 
BRANCH  10  13
HETATM   13  C   UNL     1     -10.009   6.524  72.910  1.00  0.00    -0.174 C  
HETATM   14  H   UNL     1      -9.492   4.655  72.583  1.00  0.00     0.000 HD 
HETATM   15  O   UNL     1      -9.258   5.506  72.231  1.00  0.00    -0.142 OA 
BRANCH  13  16
HETATM   16  C   UNL     1     -11.520   6.241  72.775  1.00  0.00    -0.164 C  
HETATM   17  O   UNL     1     -12.272   7.448  72.641  1.00  0.00    -0.526 OA 
HETATM   18  H   UNL     1     -13.202   7.274  72.557  1.00  0.00     0.000 HD 
ENDBRANCH  13  16
ENDBRANCH  10  13
ENDBRANCH   7  10
ENDBRANCH   4   7
ENDBRANCH   2   4
TORSDOF 5
ENDMDL
MODEL      227
REMARK 921   NORMALIZED FREE ENERGY PREDICTED BY IDOCK:   -2.73 KCAL/MOL
REMARK 922        TOTAL FREE ENERGY PREDICTED BY IDOCK:   -3.83 KCAL/MOL
REMARK 923 INTER-LIGAND FREE ENERGY PREDICTED BY IDOCK:   -3.27 KCAL/MOL
REMARK 924 INTRA-LIGAND FREE ENERGY PREDICTED BY IDOCK:   -0.56 KCAL/MOL
REMARK 927      BINDING AFFINITY PREDICTED BY RF-SCORE:    0.00 PKD
ROOT
HETATM    1  O   UNL     1      -8.516   5.345  67.525  1.00  0.00    -0.107 OA 
HETATM    2  C   UNL     1      -8.885   6.573  68.159  1.00  0.00    -0.115 C  
HETATM    3  H   UNL     1      -7.568   5.316  67.459  1.00  0.00     0.000 HD 
ENDROOT
BRANCH   2   4
HETATM    4  C   UNL     1     -10.412   6.619  68.264  1.00  0.00    -0.209 C  
HETATM    5  H   UNL     1     -11.922   6.069  67.139  1.00  0.00     0.000 HD 
HETATM    6  O   UNL     1     -10.974   6.041  67.073  1.00  0.00    -0.316 OA 
BRANCH   4   7
HETATM    7  C   UNL     1     -10.968   5.908  69.520  1.00  0.00    -0.368 C  
HETATM    8  O   UNL     1     -10.205   4.710  69.759  1.00  0.00    -0.234 OA 
HETATM    9  H   UNL     1     -10.547   4.273  70.530  1.00  0.00     0.000 HD 
BRANCH   7  10
HETATM   10  C   UNL     1     -10.920   6.782  70.799  1.00  0.00    -0.262 C  
HETATM   11  H   UNL     1     -11.174   6.543  72.756  1.00  0.00     0.000 HD 
HETATM   12  O   UNL     1     -11.204   6.007  71.971  1.00  0.00    -0.263 OA 
BRANCH  10  13
HETATM   13  C   UNL     1     -11.883   7.980  70.734  1.00  0.00    -0.162 C  
HETATM   14  H   UNL     1     -11.750   9.928  70.965  1.00  0.00     0.000 HD 
HETATM   15  O   UNL     1     -11.155   9.188  71.006  1.00  0.00    -0.256 OA 
BRANCH  13  16
HETATM   16  C   UNL     1     -13.051   7.835  71.732  1.00  0.00    -0.322 C  
HETATM   17  O   UNL     1     -12.640   8.119  73.070  1.00  0.00    -0.656 OA 
HETATM   18  H   UNL     1     -13.359   8.030  73.684  1.00  0.00     0.000 HD 
ENDBRANCH  13  16
ENDBRANCH  10  13
ENDBRANCH   7  10
ENDBRANCH   4   7
ENDBRANCH   2   4
TORSDOF 5
ENDMDL
MODEL      228
REMARK 921   NORMALIZED FREE ENERGY PREDICTED BY IDOCK:   -2.72 KCAL/MOL
REMARK 922        TOTAL FREE ENERGY PREDICTED BY IDOCK:   -3.83 KCAL/MOL
REMARK 923 INTER-LIGAND FREE ENERGY PREDICTED BY IDOCK:   -3.48 KCAL/MOL
REMARK 924 INTRA-LIGAND FREE ENERGY PREDICTED BY IDOCK:   -0.35 KCAL/MOL
REMARK 927      BINDING AFFINITY PREDICTED BY RF-SCORE:    0.00 PKD
ROOT
HETATM    1  O   UNL     1      -9.634   9.593  62.864  1.00  0.00    -0.549 OA 
HETATM    2  C   UNL     1      -8.960  10.599  63.626  1.00  0.00    -0.202 C  
HETATM    3  H   UNL     1      -8.981   9.074  62.410  1.00  0.00     0.000 HD 
ENDROOT
BRANCH   2   4
HETATM    4  C   UNL     1     -10.015  11.434  64.358  1.00  0.00    -0.274 C  
HETATM    5  H   UNL     1     -11.705  12.308  63.879  1.00  0.00     0.000 HD 
HETATM    6  O   UNL     1     -11.050  11.790  63.425  1.00  0.00    -0.393 OA 
BRANCH   4   7
HETATM    7  C   UNL     1     -10.623  10.724  65.589  1.00  0.00    -0.129 C  
HETATM    8  O   UNL     1     -10.085   9.390  65.677  1.00  0.00    -0.377 OA 
HETATM    9  H   UNL     1     -10.459   8.953  66.434  1.00  0.00     0.000 HD 
BRANCH   7  10
HETATM   10  C   UNL     1     -10.341  11.453  66.928  1.00  0.00    -0.227 C  
HETATM   11  H   UNL     1      -9.095  11.278  68.466  1.00  0.00     0.000 HD 
HETATM   12  O   UNL     1      -9.268  10.832  67.646  1.00  0.00    -0.146 OA 
BRANCH  10  13
HETATM   13  C   UNL     1     -11.583  11.531  67.832  1.00  0.00    -0.282 C  
HETATM   14  H   UNL     1     -12.483  12.914  68.902  1.00  0.00     0.000 HD 
HETATM   15  O   UNL     1     -11.716  12.866  68.343  1.00  0.00    -0.306 OA 
BRANCH  13  16
HETATM   16  C   UNL     1     -11.508  10.526  69.000  1.00  0.00    -0.237 C  
HETATM   17  O   UNL     1     -12.494  10.801  69.997  1.00  0.00    -0.355 OA 
HETATM   18  H   UNL     1     -12.448  10.182  70.716  1.00  0.00     0.000 HD 
ENDBRANCH  13  16
ENDBRANCH  10  13
ENDBRANCH   7  10
ENDBRANCH   4   7
ENDBRANCH   2   4
TORSDOF 5
ENDMDL
MODEL      229
REMARK 921   NORMALIZED FREE ENERGY PREDICTED BY IDOCK:   -2.72 KCAL/MOL
REMARK 922        TOTAL FREE ENERGY PREDICTED BY IDOCK:   -3.82 KCAL/MOL
REMARK 923 INTER-LIGAND FREE ENERGY PREDICTED BY IDOCK:   -3.20 KCAL/MOL
REMARK 924 INTRA-LIGAND FREE ENERGY PREDICTED BY IDOCK:   -0.62 KCAL/MOL
REMARK 927      BINDING AFFINITY PREDICTED BY RF-SCORE:    0.00 PKD
ROOT
HETATM    1  O   UNL     1      -8.084  12.798  68.829  1.00  0.00    -0.322 OA 
HETATM    2  C   UNL     1      -8.159  13.014  67.417  1.00  0.00    -0.180 C  
HETATM    3  H   UNL     1      -7.243  12.402  69.026  1.00  0.00     0.000 HD 
ENDROOT
BRANCH   2   4
HETATM    4  C   UNL     1      -9.515  13.651  67.099  1.00  0.00    -0.244 C  
HETATM    5  H   UNL     1     -10.255  14.746  65.649  1.00  0.00     0.000 HD 
HETATM    6  O   UNL     1      -9.413  14.351  65.846  1.00  0.00    -0.256 OA 
BRANCH   4   7
HETATM    7  C   UNL     1     -10.681  12.636  67.054  1.00  0.00    -0.245 C  
HETATM    8  O   UNL     1     -10.231  11.377  67.592  1.00  0.00    -0.177 OA 
HETATM    9  H   UNL     1     -10.947  10.754  67.564  1.00  0.00     0.000 HD 
BRANCH   7  10
HETATM   10  C   UNL     1     -11.930  13.090  67.851  1.00  0.00    -0.291 C  
HETATM   11  H   UNL     1     -13.268  14.557  67.781  1.00  0.00     0.000 HD 
HETATM   12  O   UNL     1     -12.502  14.278  67.293  1.00  0.00    -0.235 OA 
BRANCH  10  13
HETATM   13  C   UNL     1     -11.629  13.319  69.342  1.00  0.00    -0.305 C  
HETATM   14  H   UNL     1     -11.837  12.300  71.011  1.00  0.00     0.000 HD 
HETATM   15  O   UNL     1     -12.023  12.158  70.090  1.00  0.00    -0.339 OA 
BRANCH  13  16
HETATM   16  C   UNL     1     -12.353  14.567  69.889  1.00  0.00    -0.298 C  
HETATM   17  O   UNL     1     -12.092  14.761  71.280  1.00  0.00    -0.308 OA 
HETATM   18  H   UNL     1     -12.536  15.529  71.617  1.00  0.00     0.000 HD 
ENDBRANCH  13  16
ENDBRANCH  10  13
ENDBRANCH   7  10
ENDBRANCH   4   7
ENDBRANCH   2   4
TORSDOF 5
ENDMDL
MODEL      230
REMARK 921   NORMALIZED FREE ENERGY PREDICTED BY IDOCK:   -2.72 KCAL/MOL
REMARK 922        TOTAL FREE ENERGY PREDICTED BY IDOCK:   -3.82 KCAL/MOL
REMARK 923 INTER-LIGAND FREE ENERGY PREDICTED BY IDOCK:   -3.41 KCAL/MOL
REMARK 924 INTRA-LIGAND FREE ENERGY PREDICTED BY IDOCK:   -0.41 KCAL/MOL
REMARK 927      BINDING AFFINITY PREDICTED BY RF-SCORE:    0.00 PKD
ROOT
HETATM    1  O   UNL     1     -11.516   6.521  66.708  1.00  0.00    -0.774 OA 
HETATM    2  C   UNL     1     -10.821   5.864  67.772  1.00  0.00    -0.235 C  
HETATM    3  H   UNL     1     -11.456   5.977  65.931  1.00  0.00     0.000 HD 
ENDROOT
BRANCH   2   4
HETATM    4  C   UNL     1     -10.919   6.740  69.024  1.00  0.00    -0.233 C  
HETATM    5  H   UNL     1     -11.182   6.435  70.944  1.00  0.00     0.000 HD 
HETATM    6  O   UNL     1     -11.122   5.891  70.167  1.00  0.00    -0.348 OA 
BRANCH   4   7
HETATM    7  C   UNL     1      -9.686   7.648  69.242  1.00  0.00    -0.164 C  
HETATM    8  O   UNL     1      -8.853   7.603  68.068  1.00  0.00    -0.128 OA 
HETATM    9  H   UNL     1      -8.096   8.160  68.202  1.00  0.00     0.000 HD 
BRANCH   7  10
HETATM   10  C   UNL     1     -10.048   9.128  69.527  1.00  0.00    -0.197 C  
HETATM   11  H   UNL     1      -9.360  10.931  69.051  1.00  0.00     0.000 HD 
HETATM   12  O   UNL     1      -9.138  10.023  68.876  1.00  0.00    -0.142 OA 
BRANCH  10  13
HETATM   13  C   UNL     1     -10.091   9.448  71.031  1.00  0.00    -0.283 C  
HETATM   14  H   UNL     1      -9.113   8.876  72.639  1.00  0.00     0.000 HD 
HETATM   15  O   UNL     1      -9.087   8.678  71.710  1.00  0.00    -0.208 OA 
BRANCH  13  16
HETATM   16  C   UNL     1     -11.478   9.158  71.642  1.00  0.00    -0.381 C  
HETATM   17  O   UNL     1     -12.501   9.936  71.019  1.00  0.00    -0.315 OA 
HETATM   18  H   UNL     1     -13.355   9.757  71.394  1.00  0.00     0.000 HD 
ENDBRANCH  13  16
ENDBRANCH  10  13
ENDBRANCH   7  10
ENDBRANCH   4   7
ENDBRANCH   2   4
TORSDOF 5
ENDMDL
MODEL      231
REMARK 921   NORMALIZED FREE ENERGY PREDICTED BY IDOCK:   -2.71 KCAL/MOL
REMARK 922        TOTAL FREE ENERGY PREDICTED BY IDOCK:   -3.81 KCAL/MOL
REMARK 923 INTER-LIGAND FREE ENERGY PREDICTED BY IDOCK:   -3.33 KCAL/MOL
REMARK 924 INTRA-LIGAND FREE ENERGY PREDICTED BY IDOCK:   -0.48 KCAL/MOL
REMARK 927      BINDING AFFINITY PREDICTED BY RF-SCORE:    0.00 PKD
ROOT
HETATM    1  O   UNL     1      -9.372  15.381  69.662  1.00  0.00    -0.320 OA 
HETATM    2  C   UNL     1      -8.403  15.526  68.620  1.00  0.00    -0.172 C  
HETATM    3  H   UNL     1      -9.994  14.712  69.400  1.00  0.00     0.000 HD 
ENDROOT
BRANCH   2   4
HETATM    4  C   UNL     1      -7.401  16.605  69.042  1.00  0.00    -0.228 C  
HETATM    5  H   UNL     1      -5.449  16.796  69.042  1.00  0.00     0.000 HD 
HETATM    6  O   UNL     1      -6.070  16.127  68.780  1.00  0.00    -0.108 OA 
BRANCH   4   7
HETATM    7  C   UNL     1      -7.628  17.967  68.345  1.00  0.00    -0.284 C  
HETATM    8  O   UNL     1      -6.361  18.635  68.192  1.00  0.00    -0.202 OA 
HETATM    9  H   UNL     1      -6.500  19.472  67.764  1.00  0.00     0.000 HD 
BRANCH   7  10
HETATM   10  C   UNL     1      -8.288  17.847  66.948  1.00  0.00    -0.242 C  
HETATM   11  H   UNL     1      -7.717  17.519  65.072  1.00  0.00     0.000 HD 
HETATM   12  O   UNL     1      -7.313  17.593  65.929  1.00  0.00    -0.435 OA 
BRANCH  10  13
HETATM   13  C   UNL     1      -9.108  19.093  66.571  1.00  0.00    -0.341 C  
HETATM   14  H   UNL     1      -9.272  20.941  67.221  1.00  0.00     0.000 HD 
HETATM   15  O   UNL     1      -8.766  20.172  67.454  1.00  0.00    -0.326 OA 
BRANCH  13  16
HETATM   16  C   UNL     1     -10.626  18.823  66.633  1.00  0.00    -0.383 C  
HETATM   17  O   UNL     1     -11.015  18.288  67.900  1.00  0.00    -0.291 OA 
HETATM   18  H   UNL     1     -11.949  18.122  67.939  1.00  0.00     0.000 HD 
ENDBRANCH  13  16
ENDBRANCH  10  13
ENDBRANCH   7  10
ENDBRANCH   4   7
ENDBRANCH   2   4
TORSDOF 5
ENDMDL
MODEL      232
REMARK 921   NORMALIZED FREE ENERGY PREDICTED BY IDOCK:   -2.71 KCAL/MOL
REMARK 922        TOTAL FREE ENERGY PREDICTED BY IDOCK:   -3.81 KCAL/MOL
REMARK 923 INTER-LIGAND FREE ENERGY PREDICTED BY IDOCK:   -3.38 KCAL/MOL
REMARK 924 INTRA-LIGAND FREE ENERGY PREDICTED BY IDOCK:   -0.43 KCAL/MOL
REMARK 927      BINDING AFFINITY PREDICTED BY RF-SCORE:    0.00 PKD
ROOT
HETATM    1  O   UNL     1     -11.167  12.253  69.687  1.00  0.00    -0.449 OA 
HETATM    2  C   UNL     1     -11.735  11.443  68.655  1.00  0.00    -0.329 C  
HETATM    3  H   UNL     1     -11.192  11.762  70.500  1.00  0.00     0.000 HD 
ENDROOT
BRANCH   2   4
HETATM    4  C   UNL     1     -11.694  12.235  67.345  1.00  0.00    -0.335 C  
HETATM    5  H   UNL     1     -11.148  14.040  66.803  1.00  0.00     0.000 HD 
HETATM    6  O   UNL     1     -11.174  13.548  67.616  1.00  0.00    -0.261 OA 
BRANCH   4   7
HETATM    7  C   UNL     1     -10.868  11.550  66.232  1.00  0.00    -0.282 C  
HETATM    8  O   UNL     1     -10.248  12.561  65.415  1.00  0.00    -0.277 OA 
HETATM    9  H   UNL     1      -9.740  12.140  64.731  1.00  0.00     0.000 HD 
BRANCH   7  10
HETATM   10  C   UNL     1      -9.759  10.611  66.772  1.00  0.00    -0.185 C  
HETATM   11  H   UNL     1      -7.783  10.438  66.643  1.00  0.00     0.000 HD 
HETATM   12  O   UNL     1      -8.463  11.014  66.312  1.00  0.00    -0.158 OA 
BRANCH  10  13
HETATM   13  C   UNL     1      -9.997   9.137  66.400  1.00  0.00    -0.288 C  
HETATM   14  H   UNL     1     -10.438   7.479  67.360  1.00  0.00     0.000 HD 
HETATM   15  O   UNL     1     -10.291   8.389  67.590  1.00  0.00    -0.226 OA 
BRANCH  13  16
HETATM   16  C   UNL     1      -8.781   8.522  65.678  1.00  0.00    -0.181 C  
HETATM   17  O   UNL     1      -8.793   8.815  64.280  1.00  0.00    -0.406 OA 
HETATM   18  H   UNL     1      -8.044   8.437  63.836  1.00  0.00     0.000 HD 
ENDBRANCH  13  16
ENDBRANCH  10  13
ENDBRANCH   7  10
ENDBRANCH   4   7
ENDBRANCH   2   4
TORSDOF 5
ENDMDL
MODEL      233
REMARK 921   NORMALIZED FREE ENERGY PREDICTED BY IDOCK:   -2.69 KCAL/MOL
REMARK 922        TOTAL FREE ENERGY PREDICTED BY IDOCK:   -3.79 KCAL/MOL
REMARK 923 INTER-LIGAND FREE ENERGY PREDICTED BY IDOCK:   -3.40 KCAL/MOL
REMARK 924 INTRA-LIGAND FREE ENERGY PREDICTED BY IDOCK:   -0.39 KCAL/MOL
REMARK 927      BINDING AFFINITY PREDICTED BY RF-SCORE:    0.00 PKD
ROOT
HETATM    1  O   UNL     1      -7.121  11.066  65.248  1.00  0.00    -0.357 OA 
HETATM    2  C   UNL     1      -7.952  10.881  66.397  1.00  0.00    -0.157 C  
HETATM    3  H   UNL     1      -6.248  10.755  65.458  1.00  0.00     0.000 HD 
ENDROOT
BRANCH   2   4
HETATM    4  C   UNL     1      -9.359  11.381  66.058  1.00  0.00    -0.217 C  
HETATM    5  H   UNL     1     -10.749  10.910  64.756  1.00  0.00     0.000 HD 
HETATM    6  O   UNL     1      -9.876  10.600  64.966  1.00  0.00    -0.246 OA 
BRANCH   4   7
HETATM    7  C   UNL     1     -10.336  11.341  67.256  1.00  0.00    -0.201 C  
HETATM    8  O   UNL     1     -11.689  11.371  66.762  1.00  0.00    -0.474 OA 
HETATM    9  H   UNL     1     -12.290  11.346  67.498  1.00  0.00     0.000 HD 
BRANCH   7  10
HETATM   10  C   UNL     1     -10.170  10.087  68.150  1.00  0.00    -0.175 C  
HETATM   11  H   UNL     1     -10.916   8.248  68.262  1.00  0.00     0.000 HD 
HETATM   12  O   UNL     1     -11.017   9.017  67.713  1.00  0.00    -0.141 OA 
BRANCH  10  13
HETATM   13  C   UNL     1     -10.442  10.379  69.636  1.00  0.00    -0.243 C  
HETATM   14  H   UNL     1     -10.711   9.319  71.271  1.00  0.00     0.000 HD 
HETATM   15  O   UNL     1     -10.543   9.139  70.353  1.00  0.00    -0.203 OA 
BRANCH  13  16
HETATM   16  C   UNL     1     -11.728  11.208  69.834  1.00  0.00    -0.355 C  
HETATM   17  O   UNL     1     -12.895  10.458  69.495  1.00  0.00    -0.632 OA 
HETATM   18  H   UNL     1     -13.687  10.968  69.617  1.00  0.00     0.000 HD 
ENDBRANCH  13  16
ENDBRANCH  10  13
ENDBRANCH   7  10
ENDBRANCH   4   7
ENDBRANCH   2   4
TORSDOF 5
ENDMDL
MODEL      234
REMARK 921   NORMALIZED FREE ENERGY PREDICTED BY IDOCK:   -2.68 KCAL/MOL
REMARK 922        TOTAL FREE ENERGY PREDICTED BY IDOCK:   -3.78 KCAL/MOL
REMARK 923 INTER-LIGAND FREE ENERGY PREDICTED BY IDOCK:   -3.12 KCAL/MOL
REMARK 924 INTRA-LIGAND FREE ENERGY PREDICTED BY IDOCK:   -0.66 KCAL/MOL
REMARK 927      BINDING AFFINITY PREDICTED BY RF-SCORE:    0.00 PKD
ROOT
HETATM    1  O   UNL     1      -9.930  17.387  68.291  1.00  0.00    -0.285 OA 
HETATM    2  C   UNL     1     -10.573  16.660  67.241  1.00  0.00    -0.281 C  
HETATM    3  H   UNL     1      -9.569  18.185  67.924  1.00  0.00     0.000 HD 
ENDROOT
BRANCH   2   4
HETATM    4  C   UNL     1     -11.154  15.373  67.833  1.00  0.00    -0.323 C  
HETATM    5  H   UNL     1     -11.734  13.634  67.134  1.00  0.00     0.000 HD 
HETATM    6  O   UNL     1     -11.374  14.432  66.767  1.00  0.00    -0.329 OA 
BRANCH   4   7
HETATM    7  C   UNL     1     -10.268  14.740  68.931  1.00  0.00    -0.237 C  
HETATM    8  O   UNL     1     -11.015  13.708  69.603  1.00  0.00    -0.453 OA 
HETATM    9  H   UNL     1     -10.470  13.320  70.278  1.00  0.00     0.000 HD 
BRANCH   7  10
HETATM   10  C   UNL     1      -8.956  14.120  68.388  1.00  0.00    -0.189 C  
HETATM   11  H   UNL     1      -8.198  12.307  68.088  1.00  0.00     0.000 HD 
HETATM   12  O   UNL     1      -9.002  12.688  68.421  1.00  0.00    -0.187 OA 
BRANCH  10  13
HETATM   13  C   UNL     1      -7.711  14.608  69.149  1.00  0.00    -0.113 C  
HETATM   14  H   UNL     1      -7.058  16.319  69.865  1.00  0.00     0.000 HD 
HETATM   15  O   UNL     1      -7.827  16.017  69.395  1.00  0.00    -0.238 OA 
BRANCH  13  16
HETATM   16  C   UNL     1      -6.411  14.315  68.372  1.00  0.00    -0.101 C  
HETATM   17  O   UNL     1      -6.676  13.966  67.012  1.00  0.00    -0.384 OA 
HETATM   18  H   UNL     1      -5.876  13.786  66.533  1.00  0.00     0.000 HD 
ENDBRANCH  13  16
ENDBRANCH  10  13
ENDBRANCH   7  10
ENDBRANCH   4   7
ENDBRANCH   2   4
TORSDOF 5
ENDMDL
MODEL      235
REMARK 921   NORMALIZED FREE ENERGY PREDICTED BY IDOCK:   -2.68 KCAL/MOL
REMARK 922        TOTAL FREE ENERGY PREDICTED BY IDOCK:   -3.77 KCAL/MOL
REMARK 923 INTER-LIGAND FREE ENERGY PREDICTED BY IDOCK:   -3.40 KCAL/MOL
REMARK 924 INTRA-LIGAND FREE ENERGY PREDICTED BY IDOCK:   -0.38 KCAL/MOL
REMARK 927      BINDING AFFINITY PREDICTED BY RF-SCORE:    0.00 PKD
ROOT
HETATM    1  O   UNL     1     -11.394   6.831  68.553  1.00  0.00    -0.539 OA 
HETATM    2  C   UNL     1     -11.396   6.310  69.885  1.00  0.00    -0.434 C  
HETATM    3  H   UNL     1     -11.255   6.109  67.950  1.00  0.00     0.000 HD 
ENDROOT
BRANCH   2   4
HETATM    4  C   UNL     1     -11.620   7.473  70.856  1.00  0.00    -0.286 C  
HETATM    5  H   UNL     1     -13.172   8.342  71.683  1.00  0.00     0.000 HD 
HETATM    6  O   UNL     1     -13.033   7.621  71.081  1.00  0.00    -0.267 OA 
BRANCH   4   7
HETATM    7  C   UNL     1     -10.877   7.309  72.202  1.00  0.00    -0.229 C  
HETATM    8  O   UNL     1     -11.739   7.741  73.272  1.00  0.00    -0.659 OA 
HETATM    9  H   UNL     1     -11.282   7.641  74.099  1.00  0.00     0.000 HD 
BRANCH   7  10
HETATM   10  C   UNL     1     -10.433   5.852  72.491  1.00  0.00    -0.204 C  
HETATM   11  H   UNL     1     -11.231   4.188  73.227  1.00  0.00     0.000 HD 
HETATM   12  O   UNL     1     -11.503   5.081  73.050  1.00  0.00    -0.309 OA 
BRANCH  10  13
HETATM   13  C   UNL     1      -9.211   5.779  73.423  1.00  0.00    -0.132 C  
HETATM   14  H   UNL     1      -8.258   7.012  74.623  1.00  0.00     0.000 HD 
HETATM   15  O   UNL     1      -9.013   7.057  74.047  1.00  0.00    -0.164 OA 
BRANCH  13  16
HETATM   16  C   UNL     1      -7.934   5.361  72.665  1.00  0.00    -0.103 C  
HETATM   17  O   UNL     1      -7.782   3.941  72.631  1.00  0.00    -0.070 OA 
HETATM   18  H   UNL     1      -6.996   3.683  72.164  1.00  0.00     0.000 HD 
ENDBRANCH  13  16
ENDBRANCH  10  13
ENDBRANCH   7  10
ENDBRANCH   4   7
ENDBRANCH   2   4
TORSDOF 5
ENDMDL
MODEL      236
REMARK 921   NORMALIZED FREE ENERGY PREDICTED BY IDOCK:   -2.66 KCAL/MOL
REMARK 922        TOTAL FREE ENERGY PREDICTED BY IDOCK:   -3.75 KCAL/MOL
REMARK 923 INTER-LIGAND FREE ENERGY PREDICTED BY IDOCK:   -3.37 KCAL/MOL
REMARK 924 INTRA-LIGAND FREE ENERGY PREDICTED BY IDOCK:   -0.38 KCAL/MOL
REMARK 927      BINDING AFFINITY PREDICTED BY RF-SCORE:    0.00 PKD
ROOT
HETATM    1  O   UNL     1      -7.451  15.593  68.368  1.00  0.00    -0.116 OA 
HETATM    2  C   UNL     1      -8.317  14.617  67.783  1.00  0.00    -0.162 C  
HETATM    3  H   UNL     1      -6.820  15.142  68.916  1.00  0.00     0.000 HD 
ENDROOT
BRANCH   2   4
HETATM    4  C   UNL     1      -9.335  15.344  66.899  1.00  0.00    -0.236 C  
HETATM    5  H   UNL     1      -9.260  16.479  65.301  1.00  0.00     0.000 HD 
HETATM    6  O   UNL     1      -8.628  16.028  65.849  1.00  0.00    -0.270 OA 
BRANCH   4   7
HETATM    7  C   UNL     1     -10.414  14.412  66.301  1.00  0.00    -0.290 C  
HETATM    8  O   UNL     1     -10.138  14.209  64.901  1.00  0.00    -0.541 OA 
HETATM    9  H   UNL     1     -10.801  13.636  64.534  1.00  0.00     0.000 HD 
BRANCH   7  10
HETATM   10  C   UNL     1     -10.487  13.026  66.990  1.00  0.00    -0.247 C  
HETATM   11  H   UNL     1     -10.361  11.112  66.467  1.00  0.00     0.000 HD 
HETATM   12  O   UNL     1     -10.316  11.962  66.045  1.00  0.00    -0.220 OA 
BRANCH  10  13
HETATM   13  C   UNL     1     -11.802  12.817  67.761  1.00  0.00    -0.332 C  
HETATM   14  H   UNL     1     -12.882  13.846  69.042  1.00  0.00     0.000 HD 
HETATM   15  O   UNL     1     -12.070  13.975  68.566  1.00  0.00    -0.357 OA 
BRANCH  13  16
HETATM   16  C   UNL     1     -11.753  11.558  68.651  1.00  0.00    -0.326 C  
HETATM   17  O   UNL     1     -10.440  11.325  69.164  1.00  0.00    -0.277 OA 
HETATM   18  H   UNL     1     -10.409  10.550  69.712  1.00  0.00     0.000 HD 
ENDBRANCH  13  16
ENDBRANCH  10  13
ENDBRANCH   7  10
ENDBRANCH   4   7
ENDBRANCH   2   4
TORSDOF 5
ENDMDL
MODEL      237
REMARK 921   NORMALIZED FREE ENERGY PREDICTED BY IDOCK:   -2.66 KCAL/MOL
REMARK 922        TOTAL FREE ENERGY PREDICTED BY IDOCK:   -3.74 KCAL/MOL
REMARK 923 INTER-LIGAND FREE ENERGY PREDICTED BY IDOCK:   -3.18 KCAL/MOL
REMARK 924 INTRA-LIGAND FREE ENERGY PREDICTED BY IDOCK:   -0.56 KCAL/MOL
REMARK 927      BINDING AFFINITY PREDICTED BY RF-SCORE:    0.00 PKD
ROOT
HETATM    1  O   UNL     1      -8.753  16.183  69.156  1.00  0.00    -0.244 OA 
HETATM    2  C   UNL     1      -7.480  16.122  68.505  1.00  0.00    -0.167 C  
HETATM    3  H   UNL     1      -9.252  15.415  68.907  1.00  0.00     0.000 HD 
ENDROOT
BRANCH   2   4
HETATM    4  C   UNL     1      -6.675  17.362  68.906  1.00  0.00    -0.226 C  
HETATM    5  H   UNL     1      -4.792  17.907  68.829  1.00  0.00     0.000 HD 
HETATM    6  O   UNL     1      -5.292  17.138  68.581  1.00  0.00    -0.130 OA 
BRANCH   4   7
HETATM    7  C   UNL     1      -7.177  18.667  68.245  1.00  0.00    -0.260 C  
HETATM    8  O   UNL     1      -8.450  19.025  68.818  1.00  0.00    -0.355 OA 
HETATM    9  H   UNL     1      -8.758  19.827  68.412  1.00  0.00     0.000 HD 
BRANCH   7  10
HETATM   10  C   UNL     1      -6.208  19.863  68.421  1.00  0.00    -0.264 C  
HETATM   11  H   UNL     1      -5.676  21.129  69.858  1.00  0.00     0.000 HD 
HETATM   12  O   UNL     1      -6.270  20.395  69.750  1.00  0.00    -0.337 OA 
BRANCH  10  13
HETATM   13  C   UNL     1      -6.469  20.990  67.407  1.00  0.00    -0.363 C  
HETATM   14  H   UNL     1      -8.039  21.956  66.723  1.00  0.00     0.000 HD 
HETATM   15  O   UNL     1      -7.878  21.260  67.349  1.00  0.00    -0.312 OA 
BRANCH  13  16
HETATM   16  C   UNL     1      -5.944  20.632  66.001  1.00  0.00    -0.218 C  
HETATM   17  O   UNL     1      -6.996  20.191  65.142  1.00  0.00    -0.308 OA 
HETATM   18  H   UNL     1      -6.673  19.971  64.276  1.00  0.00     0.000 HD 
ENDBRANCH  13  16
ENDBRANCH  10  13
ENDBRANCH   7  10
ENDBRANCH   4   7
ENDBRANCH   2   4
TORSDOF 5
ENDMDL
MODEL      238
REMARK 921   NORMALIZED FREE ENERGY PREDICTED BY IDOCK:   -2.65 KCAL/MOL
REMARK 922        TOTAL FREE ENERGY PREDICTED BY IDOCK:   -3.73 KCAL/MOL
REMARK 923 INTER-LIGAND FREE ENERGY PREDICTED BY IDOCK:   -3.21 KCAL/MOL
REMARK 924 INTRA-LIGAND FREE ENERGY PREDICTED BY IDOCK:   -0.52 KCAL/MOL
REMARK 927      BINDING AFFINITY PREDICTED BY RF-SCORE:    0.00 PKD
ROOT
HETATM    1  O   UNL     1      -9.223   6.161  72.668  1.00  0.00    -0.141 OA 
HETATM    2  C   UNL     1     -10.206   7.093  73.125  1.00  0.00    -0.276 C  
HETATM    3  H   UNL     1      -9.348   5.343  73.133  1.00  0.00     0.000 HD 
ENDROOT
BRANCH   2   4
HETATM    4  C   UNL     1     -10.005   8.413  72.375  1.00  0.00    -0.310 C  
HETATM    5  H   UNL     1      -8.469   9.503  71.824  1.00  0.00     0.000 HD 
HETATM    6  O   UNL     1      -8.594   8.684  72.290  1.00  0.00    -0.319 OA 
BRANCH   4   7
HETATM    7  C   UNL     1     -10.639   8.427  70.965  1.00  0.00    -0.214 C  
HETATM    8  O   UNL     1     -11.715   9.384  70.941  1.00  0.00    -0.281 OA 
HETATM    9  H   UNL     1     -12.105   9.392  70.075  1.00  0.00     0.000 HD 
BRANCH   7  10
HETATM   10  C   UNL     1      -9.638   8.790  69.838  1.00  0.00    -0.177 C  
HETATM   11  H   UNL     1      -8.827  10.429  69.061  1.00  0.00     0.000 HD 
HETATM   12  O   UNL     1      -9.440  10.206  69.751  1.00  0.00    -0.220 OA 
BRANCH  10  13
HETATM   13  C   UNL     1     -10.072   8.250  68.464  1.00  0.00    -0.197 C  
HETATM   14  H   UNL     1      -9.252   7.189  67.026  1.00  0.00     0.000 HD 
HETATM   15  O   UNL     1      -8.984   7.522  67.875  1.00  0.00    -0.132 OA 
BRANCH  13  16
HETATM   16  C   UNL     1     -10.522   9.382  67.517  1.00  0.00    -0.280 C  
HETATM   17  O   UNL     1     -11.628  10.109  68.053  1.00  0.00    -0.665 OA 
HETATM   18  H   UNL     1     -11.905  10.807  67.471  1.00  0.00     0.000 HD 
ENDBRANCH  13  16
ENDBRANCH  10  13
ENDBRANCH   7  10
ENDBRANCH   4   7
ENDBRANCH   2   4
TORSDOF 5
ENDMDL
MODEL      239
REMARK 921   NORMALIZED FREE ENERGY PREDICTED BY IDOCK:   -2.64 KCAL/MOL
REMARK 922        TOTAL FREE ENERGY PREDICTED BY IDOCK:   -3.72 KCAL/MOL
REMARK 923 INTER-LIGAND FREE ENERGY PREDICTED BY IDOCK:   -4.09 KCAL/MOL
REMARK 924 INTRA-LIGAND FREE ENERGY PREDICTED BY IDOCK:    0.37 KCAL/MOL
REMARK 927      BINDING AFFINITY PREDICTED BY RF-SCORE:    0.00 PKD
ROOT
HETATM    1  O   UNL     1     -10.293  19.013  68.962  1.00  0.00    -0.515 OA 
HETATM    2  C   UNL     1     -10.117  18.625  67.597  1.00  0.00    -0.367 C  
HETATM    3  H   UNL     1     -10.461  19.948  68.987  1.00  0.00     0.000 HD 
ENDROOT
BRANCH   2   4
HETATM    4  C   UNL     1      -9.847  17.118  67.556  1.00  0.00    -0.266 C  
HETATM    5  H   UNL     1     -10.899  15.487  67.843  1.00  0.00     0.000 HD 
HETATM    6  O   UNL     1     -11.066  16.422  67.868  1.00  0.00    -0.326 OA 
BRANCH   4   7
HETATM    7  C   UNL     1      -9.280  16.627  66.204  1.00  0.00    -0.277 C  
HETATM    8  O   UNL     1      -7.860  16.417  66.337  1.00  0.00    -0.289 OA 
HETATM    9  H   UNL     1      -7.512  16.115  65.506  1.00  0.00     0.000 HD 
BRANCH   7  10
HETATM   10  C   UNL     1      -9.924  15.309  65.704  1.00  0.00    -0.364 C  
HETATM   11  H   UNL     1     -11.611  14.736  64.823  1.00  0.00     0.000 HD 
HETATM   12  O   UNL     1     -11.215  15.544  65.130  1.00  0.00    -0.358 OA 
BRANCH  10  13
HETATM   13  C   UNL     1     -10.042  14.249  66.813  1.00  0.00    -0.264 C  
HETATM   14  H   UNL     1      -8.971  12.729  67.451  1.00  0.00     0.000 HD 
HETATM   15  O   UNL     1      -8.898  13.383  66.766  1.00  0.00    -0.213 OA 
BRANCH  13  16
HETATM   16  C   UNL     1     -11.336  13.420  66.679  1.00  0.00    -0.323 C  
HETATM   17  O   UNL     1     -12.454  14.089  67.263  1.00  0.00    -0.532 OA 
HETATM   18  H   UNL     1     -13.251  13.579  67.180  1.00  0.00     0.000 HD 
ENDBRANCH  13  16
ENDBRANCH  10  13
ENDBRANCH   7  10
ENDBRANCH   4   7
ENDBRANCH   2   4
TORSDOF 5
ENDMDL
MODEL      240
REMARK 921   NORMALIZED FREE ENERGY PREDICTED BY IDOCK:   -2.63 KCAL/MOL
REMARK 922        TOTAL FREE ENERGY PREDICTED BY IDOCK:   -3.71 KCAL/MOL
REMARK 923 INTER-LIGAND FREE ENERGY PREDICTED BY IDOCK:   -3.08 KCAL/MOL
REMARK 924 INTRA-LIGAND FREE ENERGY PREDICTED BY IDOCK:   -0.63 KCAL/MOL
REMARK 927      BINDING AFFINITY PREDICTED BY RF-SCORE:    0.00 PKD
ROOT
HETATM    1  O   UNL     1      -9.777  10.372  69.934  1.00  0.00    -0.408 OA 
HETATM    2  C   UNL     1      -8.937   9.215  69.956  1.00  0.00    -0.187 C  
HETATM    3  H   UNL     1      -9.436  10.977  69.286  1.00  0.00     0.000 HD 
ENDROOT
BRANCH   2   4
HETATM    4  C   UNL     1      -9.486   8.241  71.002  1.00  0.00    -0.161 C  
HETATM    5  H   UNL     1      -9.741   8.255  72.947  1.00  0.00     0.000 HD 
HETATM    6  O   UNL     1      -9.400   8.859  72.298  1.00  0.00    -0.360 OA 
BRANCH   4   7
HETATM    7  C   UNL     1     -10.937   7.784  70.722  1.00  0.00    -0.252 C  
HETATM    8  O   UNL     1     -11.159   7.768  69.298  1.00  0.00    -0.432 OA 
HETATM    9  H   UNL     1     -12.050   7.488  69.126  1.00  0.00     0.000 HD 
BRANCH   7  10
HETATM   10  C   UNL     1     -11.264   6.377  71.283  1.00  0.00    -0.292 C  
HETATM   11  H   UNL     1     -11.803   5.572  73.018  1.00  0.00     0.000 HD 
HETATM   12  O   UNL     1     -11.603   6.435  72.673  1.00  0.00    -0.243 OA 
BRANCH  10  13
HETATM   13  C   UNL     1     -10.113   5.376  71.079  1.00  0.00    -0.216 C  
HETATM   14  H   UNL     1      -9.483   4.205  69.631  1.00  0.00     0.000 HD 
HETATM   15  O   UNL     1     -10.193   4.822  69.757  1.00  0.00    -0.246 OA 
BRANCH  13  16
HETATM   16  C   UNL     1     -10.143   4.244  72.126  1.00  0.00    -0.185 C  
HETATM   17  O   UNL     1      -8.858   4.036  72.716  1.00  0.00    -0.101 OA 
HETATM   18  H   UNL     1      -8.877   3.340  73.361  1.00  0.00     0.000 HD 
ENDBRANCH  13  16
ENDBRANCH  10  13
ENDBRANCH   7  10
ENDBRANCH   4   7
ENDBRANCH   2   4
TORSDOF 5
ENDMDL
MODEL      241
REMARK 921   NORMALIZED FREE ENERGY PREDICTED BY IDOCK:   -2.61 KCAL/MOL
REMARK 922        TOTAL FREE ENERGY PREDICTED BY IDOCK:   -3.68 KCAL/MOL
REMARK 923 INTER-LIGAND FREE ENERGY PREDICTED BY IDOCK:   -2.93 KCAL/MOL
REMARK 924 INTRA-LIGAND FREE ENERGY PREDICTED BY IDOCK:   -0.75 KCAL/MOL
REMARK 927      BINDING AFFINITY PREDICTED BY RF-SCORE:    0.00 PKD
ROOT
HETATM    1  O   UNL     1      -7.966   9.971  70.683  1.00  0.00    -0.416 OA 
HETATM    2  C   UNL     1      -6.907   9.087  71.064  1.00  0.00    -0.092 C  
HETATM    3  H   UNL     1      -7.629  10.578  70.035  1.00  0.00     0.000 HD 
ENDROOT
BRANCH   2   4
HETATM    4  C   UNL     1      -7.450   8.108  72.109  1.00  0.00    -0.102 C  
HETATM    5  H   UNL     1      -8.789   8.172  73.541  1.00  0.00     0.000 HD 
HETATM    6  O   UNL     1      -8.452   8.780  72.893  1.00  0.00    -0.409 OA 
BRANCH   4   7
HETATM    7  C   UNL     1      -8.027   6.809  71.500  1.00  0.00    -0.102 C  
HETATM    8  O   UNL     1      -7.624   5.689  72.311  1.00  0.00    -0.097 OA 
HETATM    9  H   UNL     1      -7.978   4.891  71.936  1.00  0.00     0.000 HD 
BRANCH   7  10
HETATM   10  C   UNL     1      -9.573   6.806  71.396  1.00  0.00    -0.167 C  
HETATM   11  H   UNL     1     -11.065   5.522  71.671  1.00  0.00     0.000 HD 
HETATM   12  O   UNL     1     -10.117   5.525  71.735  1.00  0.00    -0.183 OA 
BRANCH  10  13
HETATM   13  C   UNL     1     -10.074   7.221  70.002  1.00  0.00    -0.190 C  
HETATM   14  H   UNL     1     -10.718   8.873  69.153  1.00  0.00     0.000 HD 
HETATM   15  O   UNL     1     -10.409   8.617  70.014  1.00  0.00    -0.196 OA 
BRANCH  13  16
HETATM   16  C   UNL     1     -11.297   6.391  69.560  1.00  0.00    -0.393 C  
HETATM   17  O   UNL     1     -12.466   6.734  70.306  1.00  0.00    -0.579 OA 
HETATM   18  H   UNL     1     -13.219   6.224  70.034  1.00  0.00     0.000 HD 
ENDBRANCH  13  16
ENDBRANCH  10  13
ENDBRANCH   7  10
ENDBRANCH   4   7
ENDBRANCH   2   4
TORSDOF 5
ENDMDL
MODEL      242
REMARK 921   NORMALIZED FREE ENERGY PREDICTED BY IDOCK:   -2.60 KCAL/MOL
REMARK 922        TOTAL FREE ENERGY PREDICTED BY IDOCK:   -3.67 KCAL/MOL
REMARK 923 INTER-LIGAND FREE ENERGY PREDICTED BY IDOCK:   -3.48 KCAL/MOL
REMARK 924 INTRA-LIGAND FREE ENERGY PREDICTED BY IDOCK:   -0.19 KCAL/MOL
REMARK 927      BINDING AFFINITY PREDICTED BY RF-SCORE:    0.00 PKD
ROOT
HETATM    1  O   UNL     1     -14.365   8.313  70.915  1.00  0.00    -0.653 OA 
HETATM    2  C   UNL     1     -13.081   8.599  71.478  1.00  0.00    -0.305 C  
HETATM    3  H   UNL     1     -14.806   9.137  70.744  1.00  0.00     0.000 HD 
ENDROOT
BRANCH   2   4
HETATM    4  C   UNL     1     -12.370   7.270  71.753  1.00  0.00    -0.341 C  
HETATM    5  H   UNL     1     -11.500   5.884  70.671  1.00  0.00     0.000 HD 
HETATM    6  O   UNL     1     -11.941   6.708  70.500  1.00  0.00    -0.400 OA 
BRANCH   4   7
HETATM    7  C   UNL     1     -11.172   7.398  72.722  1.00  0.00    -0.332 C  
HETATM    8  O   UNL     1     -11.184   6.286  73.637  1.00  0.00    -0.418 OA 
HETATM    9  H   UNL     1     -10.448   6.364  74.232  1.00  0.00     0.000 HD 
BRANCH   7  10
HETATM   10  C   UNL     1      -9.797   7.427  72.007  1.00  0.00    -0.162 C  
HETATM   11  H   UNL     1      -8.452   6.120  71.348  1.00  0.00     0.000 HD 
HETATM   12  O   UNL     1      -9.295   6.103  71.787  1.00  0.00    -0.151 OA 
BRANCH  10  13
HETATM   13  C   UNL     1      -8.748   8.250  72.774  1.00  0.00    -0.219 C  
HETATM   14  H   UNL     1      -7.235   9.417  72.311  1.00  0.00     0.000 HD 
HETATM   15  O   UNL     1      -7.883   8.909  71.837  1.00  0.00    -0.320 OA 
BRANCH  13  16
HETATM   16  C   UNL     1      -7.915   7.371  73.731  1.00  0.00    -0.119 C  
HETATM   17  O   UNL     1      -6.674   6.979  73.141  1.00  0.00    -0.065 OA 
HETATM   18  H   UNL     1      -6.161   6.438  73.729  1.00  0.00     0.000 HD 
ENDBRANCH  13  16
ENDBRANCH  10  13
ENDBRANCH   7  10
ENDBRANCH   4   7
ENDBRANCH   2   4
TORSDOF 5
ENDMDL
MODEL      243
REMARK 921   NORMALIZED FREE ENERGY PREDICTED BY IDOCK:   -2.59 KCAL/MOL
REMARK 922        TOTAL FREE ENERGY PREDICTED BY IDOCK:   -3.66 KCAL/MOL
REMARK 923 INTER-LIGAND FREE ENERGY PREDICTED BY IDOCK:   -3.34 KCAL/MOL
REMARK 924 INTRA-LIGAND FREE ENERGY PREDICTED BY IDOCK:   -0.32 KCAL/MOL
REMARK 927      BINDING AFFINITY PREDICTED BY RF-SCORE:    0.00 PKD
ROOT
HETATM    1  O   UNL     1      -7.917   9.707  70.680  1.00  0.00    -0.241 OA 
HETATM    2  C   UNL     1      -7.768   8.387  70.149  1.00  0.00    -0.083 C  
HETATM    3  H   UNL     1      -7.281   9.822  71.376  1.00  0.00     0.000 HD 
ENDROOT
BRANCH   2   4
HETATM    4  C   UNL     1      -8.795   8.202  69.027  1.00  0.00    -0.144 C  
HETATM    5  H   UNL     1      -9.301   6.756  67.803  1.00  0.00     0.000 HD 
HETATM    6  O   UNL     1      -8.665   6.871  68.498  1.00  0.00    -0.126 OA 
BRANCH   4   7
HETATM    7  C   UNL     1     -10.253   8.462  69.473  1.00  0.00    -0.207 C  
HETATM    8  O   UNL     1     -11.084   8.603  68.305  1.00  0.00    -0.446 OA 
HETATM    9  H   UNL     1     -11.980   8.763  68.578  1.00  0.00     0.000 HD 
BRANCH   7  10
HETATM   10  C   UNL     1     -10.841   7.335  70.358  1.00  0.00    -0.246 C  
HETATM   11  H   UNL     1     -11.966   5.713  70.124  1.00  0.00     0.000 HD 
HETATM   12  O   UNL     1     -11.605   6.405  69.582  1.00  0.00    -0.417 OA 
BRANCH  10  13
HETATM   13  C   UNL     1     -11.710   7.876  71.507  1.00  0.00    -0.283 C  
HETATM   14  H   UNL     1     -12.416   9.627  72.056  1.00  0.00     0.000 HD 
HETATM   15  O   UNL     1     -11.879   9.293  71.347  1.00  0.00    -0.306 OA 
BRANCH  13  16
HETATM   16  C   UNL     1     -11.093   7.573  72.888  1.00  0.00    -0.375 C  
HETATM   17  O   UNL     1     -11.298   6.211  73.269  1.00  0.00    -0.465 OA 
HETATM   18  H   UNL     1     -10.918   6.024  74.119  1.00  0.00     0.000 HD 
ENDBRANCH  13  16
ENDBRANCH  10  13
ENDBRANCH   7  10
ENDBRANCH   4   7
ENDBRANCH   2   4
TORSDOF 5
ENDMDL
MODEL      244
REMARK 921   NORMALIZED FREE ENERGY PREDICTED BY IDOCK:   -2.58 KCAL/MOL
REMARK 922        TOTAL FREE ENERGY PREDICTED BY IDOCK:   -3.65 KCAL/MOL
REMARK 923 INTER-LIGAND FREE ENERGY PREDICTED BY IDOCK:   -3.06 KCAL/MOL
REMARK 924 INTRA-LIGAND FREE ENERGY PREDICTED BY IDOCK:   -0.59 KCAL/MOL
REMARK 927      BINDING AFFINITY PREDICTED BY RF-SCORE:    0.00 PKD
ROOT
HETATM    1  O   UNL     1      -9.208   7.220  68.080  1.00  0.00    -0.133 OA 
HETATM    2  C   UNL     1     -10.629   7.195  67.913  1.00  0.00    -0.208 C  
HETATM    3  H   UNL     1      -8.837   7.767  67.397  1.00  0.00     0.000 HD 
ENDROOT
BRANCH   2   4
HETATM    4  C   UNL     1     -11.226   6.313  69.013  1.00  0.00    -0.343 C  
HETATM    5  H   UNL     1     -10.707   4.661  69.936  1.00  0.00     0.000 HD 
HETATM    6  O   UNL     1     -10.336   5.209  69.253  1.00  0.00    -0.226 OA 
BRANCH   4   7
HETATM    7  C   UNL     1     -11.508   7.071  70.331  1.00  0.00    -0.310 C  
HETATM    8  O   UNL     1     -12.924   7.047  70.595  1.00  0.00    -0.569 OA 
HETATM    9  H   UNL     1     -13.098   7.513  71.404  1.00  0.00     0.000 HD 
BRANCH   7  10
HETATM   10  C   UNL     1     -10.773   6.476  71.558  1.00  0.00    -0.235 C  
HETATM   11  H   UNL     1     -11.247   5.606  73.280  1.00  0.00     0.000 HD 
HETATM   12  O   UNL     1     -11.698   5.970  72.527  1.00  0.00    -0.292 OA 
BRANCH  10  13
HETATM   13  C   UNL     1      -9.830   7.489  72.232  1.00  0.00    -0.169 C  
HETATM   14  H   UNL     1      -9.888   9.399  72.695  1.00  0.00     0.000 HD 
HETATM   15  O   UNL     1     -10.470   8.774  72.279  1.00  0.00    -0.329 OA 
BRANCH  13  16
HETATM   16  C   UNL     1      -8.481   7.600  71.491  1.00  0.00    -0.115 C  
HETATM   17  O   UNL     1      -8.466   8.706  70.587  1.00  0.00    -0.130 OA 
HETATM   18  H   UNL     1      -7.635   8.775  70.131  1.00  0.00     0.000 HD 
ENDBRANCH  13  16
ENDBRANCH  10  13
ENDBRANCH   7  10
ENDBRANCH   4   7
ENDBRANCH   2   4
TORSDOF 5
ENDMDL
MODEL      245
REMARK 921   NORMALIZED FREE ENERGY PREDICTED BY IDOCK:   -2.56 KCAL/MOL
REMARK 922        TOTAL FREE ENERGY PREDICTED BY IDOCK:   -3.62 KCAL/MOL
REMARK 923 INTER-LIGAND FREE ENERGY PREDICTED BY IDOCK:   -3.37 KCAL/MOL
REMARK 924 INTRA-LIGAND FREE ENERGY PREDICTED BY IDOCK:   -0.25 KCAL/MOL
REMARK 927      BINDING AFFINITY PREDICTED BY RF-SCORE:    0.00 PKD
ROOT
HETATM    1  O   UNL     1      -6.503  18.976  64.660  1.00  0.00    -0.489 OA 
HETATM    2  C   UNL     1      -6.001  18.331  65.833  1.00  0.00    -0.212 C  
HETATM    3  H   UNL     1      -6.168  18.515  63.899  1.00  0.00     0.000 HD 
ENDROOT
BRANCH   2   4
HETATM    4  C   UNL     1      -6.542  19.074  67.059  1.00  0.00    -0.196 C  
HETATM    5  H   UNL     1      -6.999  20.931  67.495  1.00  0.00     0.000 HD 
HETATM    6  O   UNL     1      -6.663  20.470  66.735  1.00  0.00    -0.232 OA 
BRANCH   4   7
HETATM    7  C   UNL     1      -7.893  18.523  67.571  1.00  0.00    -0.232 C  
HETATM    8  O   UNL     1      -8.821  19.615  67.722  1.00  0.00    -0.309 OA 
HETATM    9  H   UNL     1      -9.651  19.276  68.036  1.00  0.00     0.000 HD 
BRANCH   7  10
HETATM   10  C   UNL     1      -8.530  17.468  66.630  1.00  0.00    -0.259 C  
HETATM   11  H   UNL     1      -9.882  17.418  65.175  1.00  0.00     0.000 HD 
HETATM   12  O   UNL     1      -9.492  18.064  65.752  1.00  0.00    -0.495 OA 
BRANCH  10  13
HETATM   13  C   UNL     1      -9.189  16.310  67.398  1.00  0.00    -0.211 C  
HETATM   14  H   UNL     1     -11.023  15.731  67.806  1.00  0.00     0.000 HD 
HETATM   15  O   UNL     1     -10.616  16.446  67.331  1.00  0.00    -0.314 OA 
BRANCH  13  16
HETATM   16  C   UNL     1      -8.733  16.265  68.872  1.00  0.00    -0.253 C  
HETATM   17  O   UNL     1      -7.874  15.152  69.125  1.00  0.00    -0.169 OA 
HETATM   18  H   UNL     1      -7.594  15.124  70.032  1.00  0.00     0.000 HD 
ENDBRANCH  13  16
ENDBRANCH  10  13
ENDBRANCH   7  10
ENDBRANCH   4   7
ENDBRANCH   2   4
TORSDOF 5
ENDMDL
MODEL      246
REMARK 921   NORMALIZED FREE ENERGY PREDICTED BY IDOCK:   -2.56 KCAL/MOL
REMARK 922        TOTAL FREE ENERGY PREDICTED BY IDOCK:   -3.62 KCAL/MOL
REMARK 923 INTER-LIGAND FREE ENERGY PREDICTED BY IDOCK:   -3.48 KCAL/MOL
REMARK 924 INTRA-LIGAND FREE ENERGY PREDICTED BY IDOCK:   -0.14 KCAL/MOL
REMARK 927      BINDING AFFINITY PREDICTED BY RF-SCORE:    0.00 PKD
ROOT
HETATM    1  O   UNL     1      -9.146   6.194  65.800  1.00  0.00    -0.275 OA 
HETATM    2  C   UNL     1      -8.840   7.564  66.076  1.00  0.00    -0.150 C  
HETATM    3  H   UNL     1      -8.333   5.738  65.614  1.00  0.00     0.000 HD 
ENDROOT
BRANCH   2   4
HETATM    4  C   UNL     1     -10.150   8.298  66.375  1.00  0.00    -0.151 C  
HETATM    5  H   UNL     1     -11.524   8.219  67.773  1.00  0.00     0.000 HD 
HETATM    6  O   UNL     1     -10.712   7.763  67.587  1.00  0.00    -0.225 OA 
BRANCH   4   7
HETATM    7  C   UNL     1      -9.988   9.832  66.490  1.00  0.00    -0.239 C  
HETATM    8  O   UNL     1      -8.652  10.132  66.937  1.00  0.00    -0.125 OA 
HETATM    9  H   UNL     1      -8.553  11.075  67.008  1.00  0.00     0.000 HD 
BRANCH   7  10
HETATM   10  C   UNL     1     -10.239  10.583  65.158  1.00  0.00    -0.288 C  
HETATM   11  H   UNL     1      -9.232  11.020  63.502  1.00  0.00     0.000 HD 
HETATM   12  O   UNL     1      -9.079  10.560  64.319  1.00  0.00    -0.198 OA 
BRANCH  10  13
HETATM   13  C   UNL     1     -10.683  12.041  65.375  1.00  0.00    -0.287 C  
HETATM   14  H   UNL     1     -12.362  12.971  65.800  1.00  0.00     0.000 HD 
HETATM   15  O   UNL     1     -12.088  12.071  65.666  1.00  0.00    -0.508 OA 
BRANCH  13  16
HETATM   16  C   UNL     1     -10.381  12.922  64.146  1.00  0.00    -0.361 C  
HETATM   17  O   UNL     1     -11.548  13.136  63.350  1.00  0.00    -0.670 OA 
HETATM   18  H   UNL     1     -11.362  13.679  62.594  1.00  0.00     0.000 HD 
ENDBRANCH  13  16
ENDBRANCH  10  13
ENDBRANCH   7  10
ENDBRANCH   4   7
ENDBRANCH   2   4
TORSDOF 5
ENDMDL
MODEL      247
REMARK 921   NORMALIZED FREE ENERGY PREDICTED BY IDOCK:   -2.56 KCAL/MOL
REMARK 922        TOTAL FREE ENERGY PREDICTED BY IDOCK:   -3.62 KCAL/MOL
REMARK 923 INTER-LIGAND FREE ENERGY PREDICTED BY IDOCK:   -3.17 KCAL/MOL
REMARK 924 INTRA-LIGAND FREE ENERGY PREDICTED BY IDOCK:   -0.44 KCAL/MOL
REMARK 927      BINDING AFFINITY PREDICTED BY RF-SCORE:    0.00 PKD
ROOT
HETATM    1  O   UNL     1     -10.007   5.459  65.474  1.00  0.00    -0.379 OA 
HETATM    2  C   UNL     1     -10.657   5.675  66.730  1.00  0.00    -0.304 C  
HETATM    3  H   UNL     1     -10.668   5.229  64.831  1.00  0.00     0.000 HD 
ENDROOT
BRANCH   2   4
HETATM    4  C   UNL     1      -9.591   6.046  67.765  1.00  0.00    -0.112 C  
HETATM    5  H   UNL     1      -7.808   5.389  68.253  1.00  0.00     0.000 HD 
HETATM    6  O   UNL     1      -8.470   5.159  67.610  1.00  0.00    -0.106 OA 
BRANCH   4   7
HETATM    7  C   UNL     1      -9.127   7.518  67.676  1.00  0.00    -0.125 C  
HETATM    8  O   UNL     1      -8.327   7.689  66.490  1.00  0.00    -0.119 OA 
HETATM    9  H   UNL     1      -8.041   8.593  66.435  1.00  0.00     0.000 HD 
BRANCH   7  10
HETATM   10  C   UNL     1     -10.295   8.536  67.627  1.00  0.00    -0.253 C  
HETATM   11  H   UNL     1     -10.950   9.970  66.418  1.00  0.00     0.000 HD 
HETATM   12  O   UNL     1     -10.234   9.346  66.448  1.00  0.00    -0.268 OA 
BRANCH  10  13
HETATM   13  C   UNL     1     -10.342   9.443  68.869  1.00  0.00    -0.213 C  
HETATM   14  H   UNL     1     -11.002   9.299  70.716  1.00  0.00     0.000 HD 
HETATM   15  O   UNL     1     -10.973   8.739  69.949  1.00  0.00    -0.239 OA 
BRANCH  13  16
HETATM   16  C   UNL     1     -11.094  10.761  68.590  1.00  0.00    -0.259 C  
HETATM   17  O   UNL     1     -12.499  10.622  68.808  1.00  0.00    -0.795 OA 
HETATM   18  H   UNL     1     -12.963  11.434  68.637  1.00  0.00     0.000 HD 
ENDBRANCH  13  16
ENDBRANCH  10  13
ENDBRANCH   7  10
ENDBRANCH   4   7
ENDBRANCH   2   4
TORSDOF 5
ENDMDL
MODEL      248
REMARK 921   NORMALIZED FREE ENERGY PREDICTED BY IDOCK:   -2.54 KCAL/MOL
REMARK 922        TOTAL FREE ENERGY PREDICTED BY IDOCK:   -3.59 KCAL/MOL
REMARK 923 INTER-LIGAND FREE ENERGY PREDICTED BY IDOCK:   -3.95 KCAL/MOL
REMARK 924 INTRA-LIGAND FREE ENERGY PREDICTED BY IDOCK:    0.36 KCAL/MOL
REMARK 927      BINDING AFFINITY PREDICTED BY RF-SCORE:    0.00 PKD
ROOT
HETATM    1  O   UNL     1      -7.946  14.625  69.804  1.00  0.00    -0.406 OA 
HETATM    2  C   UNL     1      -8.489  14.692  68.482  1.00  0.00    -0.161 C  
HETATM    3  H   UNL     1      -7.031  14.378  69.738  1.00  0.00     0.000 HD 
ENDROOT
BRANCH   2   4
HETATM    4  C   UNL     1      -9.965  15.089  68.589  1.00  0.00    -0.220 C  
HETATM    5  H   UNL     1     -11.113  16.476  67.809  1.00  0.00     0.000 HD 
HETATM    6  O   UNL     1     -10.198  16.229  67.743  1.00  0.00    -0.257 OA 
BRANCH   4   7
HETATM    7  C   UNL     1     -10.941  13.946  68.229  1.00  0.00    -0.255 C  
HETATM    8  O   UNL     1     -12.294  14.399  68.433  1.00  0.00    -0.600 OA 
HETATM    9  H   UNL     1     -12.894  13.696  68.212  1.00  0.00     0.000 HD 
BRANCH   7  10
HETATM   10  C   UNL     1     -10.807  13.453  66.765  1.00  0.00    -0.282 C  
HETATM   11  H   UNL     1      -9.350  13.029  65.482  1.00  0.00     0.000 HD 
HETATM   12  O   UNL     1      -9.433  13.331  66.379  1.00  0.00    -0.258 OA 
BRANCH  10  13
HETATM   13  C   UNL     1     -11.540  14.364  65.765  1.00  0.00    -0.353 C  
HETATM   14  H   UNL     1     -13.335  14.451  64.967  1.00  0.00     0.000 HD 
HETATM   15  O   UNL     1     -12.882  13.889  65.584  1.00  0.00    -0.541 OA 
BRANCH  13  16
HETATM   16  C   UNL     1     -10.815  14.422  64.404  1.00  0.00    -0.106 C  
HETATM   17  O   UNL     1     -10.725  13.131  63.799  1.00  0.00    -0.515 OA 
HETATM   18  H   UNL     1     -10.279  13.167  62.960  1.00  0.00     0.000 HD 
ENDBRANCH  13  16
ENDBRANCH  10  13
ENDBRANCH   7  10
ENDBRANCH   4   7
ENDBRANCH   2   4
TORSDOF 5
ENDMDL
MODEL      249
REMARK 921   NORMALIZED FREE ENERGY PREDICTED BY IDOCK:   -2.54 KCAL/MOL
REMARK 922        TOTAL FREE ENERGY PREDICTED BY IDOCK:   -3.59 KCAL/MOL
REMARK 923 INTER-LIGAND FREE ENERGY PREDICTED BY IDOCK:   -3.21 KCAL/MOL
REMARK 924 INTRA-LIGAND FREE ENERGY PREDICTED BY IDOCK:   -0.39 KCAL/MOL
REMARK 927      BINDING AFFINITY PREDICTED BY RF-SCORE:    0.00 PKD
ROOT
HETATM    1  O   UNL     1      -7.513   8.873  74.307  1.00  0.00    -0.419 OA 
HETATM    2  C   UNL     1      -7.336   7.937  73.240  1.00  0.00    -0.113 C  
HETATM    3  H   UNL     1      -7.148   8.495  75.099  1.00  0.00     0.000 HD 
ENDROOT
BRANCH   2   4
HETATM    4  C   UNL     1      -7.925   8.546  71.964  1.00  0.00    -0.105 C  
HETATM    5  H   UNL     1      -7.291   8.883  70.138  1.00  0.00     0.000 HD 
HETATM    6  O   UNL     1      -6.925   8.506  70.930  1.00  0.00    -0.047 OA 
BRANCH   4   7
HETATM    7  C   UNL     1      -9.219   7.848  71.485  1.00  0.00    -0.136 C  
HETATM    8  O   UNL     1      -9.154   6.449  71.825  1.00  0.00    -0.143 OA 
HETATM    9  H   UNL     1      -9.949   6.020  71.531  1.00  0.00     0.000 HD 
BRANCH   7  10
HETATM   10  C   UNL     1     -10.509   8.441  72.106  1.00  0.00    -0.326 C  
HETATM   11  H   UNL     1     -11.742   8.035  73.611  1.00  0.00     0.000 HD 
HETATM   12  O   UNL     1     -10.950   7.671  73.230  1.00  0.00    -0.400 OA 
BRANCH  10  13
HETATM   13  C   UNL     1     -11.656   8.559  71.087  1.00  0.00    -0.281 C  
HETATM   14  H   UNL     1     -11.904   9.354  69.305  1.00  0.00     0.000 HD 
HETATM   15  O   UNL     1     -11.195   9.281  69.934  1.00  0.00    -0.217 OA 
BRANCH  13  16
HETATM   16  C   UNL     1     -12.890   9.262  71.689  1.00  0.00    -0.372 C  
HETATM   17  O   UNL     1     -13.475   8.493  72.741  1.00  0.00    -0.646 OA 
HETATM   18  H   UNL     1     -14.235   8.925  73.112  1.00  0.00     0.000 HD 
ENDBRANCH  13  16
ENDBRANCH  10  13
ENDBRANCH   7  10
ENDBRANCH   4   7
ENDBRANCH   2   4
TORSDOF 5
ENDMDL
MODEL      250
REMARK 921   NORMALIZED FREE ENERGY PREDICTED BY IDOCK:   -2.54 KCAL/MOL
REMARK 922        TOTAL FREE ENERGY PREDICTED BY IDOCK:   -3.59 KCAL/MOL
REMARK 923 INTER-LIGAND FREE ENERGY PREDICTED BY IDOCK:   -3.15 KCAL/MOL
REMARK 924 INTRA-LIGAND FREE ENERGY PREDICTED BY IDOCK:   -0.44 KCAL/MOL
REMARK 927      BINDING AFFINITY PREDICTED BY RF-SCORE:    0.00 PKD
ROOT
HETATM    1  O   UNL     1     -11.568   6.782  67.189  1.00  0.00    -0.725 OA 
HETATM    2  C   UNL     1     -10.228   7.221  66.951  1.00  0.00    -0.269 C  
HETATM    3  H   UNL     1     -11.803   6.159  66.511  1.00  0.00     0.000 HD 
ENDROOT
BRANCH   2   4
HETATM    4  C   UNL     1      -9.850   8.226  68.043  1.00  0.00    -0.169 C  
HETATM    5  H   UNL     1      -8.205   8.742  68.979  1.00  0.00     0.000 HD 
HETATM    6  O   UNL     1      -8.439   8.119  68.301  1.00  0.00    -0.128 OA 
BRANCH   4   7
HETATM    7  C   UNL     1     -10.222   9.687  67.696  1.00  0.00    -0.216 C  
HETATM    8  O   UNL     1     -11.655   9.827  67.719  1.00  0.00    -0.474 OA 
HETATM    9  H   UNL     1     -11.884  10.724  67.506  1.00  0.00     0.000 HD 
BRANCH   7  10
HETATM   10  C   UNL     1      -9.614  10.729  68.668  1.00  0.00    -0.187 C  
HETATM   11  H   UNL     1     -10.117  11.627  70.368  1.00  0.00     0.000 HD 
HETATM   12  O   UNL     1     -10.489  10.988  69.772  1.00  0.00    -0.115 OA 
BRANCH  10  13
HETATM   13  C   UNL     1      -9.265  12.056  67.971  1.00  0.00    -0.192 C  
HETATM   14  H   UNL     1      -7.761  13.323  67.988  1.00  0.00     0.000 HD 
HETATM   15  O   UNL     1      -7.976  12.504  68.419  1.00  0.00    -0.145 OA 
BRANCH  13  16
HETATM   16  C   UNL     1     -10.324  13.145  68.244  1.00  0.00    -0.252 C  
HETATM   17  O   UNL     1     -11.211  13.307  67.137  1.00  0.00    -0.281 OA 
HETATM   18  H   UNL     1     -11.864  13.976  67.305  1.00  0.00     0.000 HD 
ENDBRANCH  13  16
ENDBRANCH  10  13
ENDBRANCH   7  10
ENDBRANCH   4   7
ENDBRANCH   2   4
TORSDOF 5
ENDMDL
MODEL      251
REMARK 921   NORMALIZED FREE ENERGY PREDICTED BY IDOCK:   -2.54 KCAL/MOL
REMARK 922        TOTAL FREE ENERGY PREDICTED BY IDOCK:   -3.59 KCAL/MOL
REMARK 923 INTER-LIGAND FREE ENERGY PREDICTED BY IDOCK:   -3.11 KCAL/MOL
REMARK 924 INTRA-LIGAND FREE ENERGY PREDICTED BY IDOCK:   -0.48 KCAL/MOL
REMARK 927      BINDING AFFINITY PREDICTED BY RF-SCORE:    0.00 PKD
ROOT
HETATM    1  O   UNL     1      -8.039  10.923  69.871  1.00  0.00    -0.310 OA 
HETATM    2  C   UNL     1      -8.232  10.993  68.455  1.00  0.00    -0.146 C  
HETATM    3  H   UNL     1      -7.169  10.580  70.037  1.00  0.00     0.000 HD 
ENDROOT
BRANCH   2   4
HETATM    4  C   UNL     1      -9.635  11.546  68.188  1.00  0.00    -0.187 C  
HETATM    5  H   UNL     1     -11.421  11.297  68.961  1.00  0.00     0.000 HD 
HETATM    6  O   UNL     1     -10.551  10.954  69.126  1.00  0.00    -0.203 OA 
BRANCH   4   7
HETATM    7  C   UNL     1      -9.717  13.088  68.260  1.00  0.00    -0.221 C  
HETATM    8  O   UNL     1      -9.435  13.636  66.958  1.00  0.00    -0.234 OA 
HETATM    9  H   UNL     1      -9.484  14.584  67.002  1.00  0.00     0.000 HD 
BRANCH   7  10
HETATM   10  C   UNL     1     -11.099  13.615  68.723  1.00  0.00    -0.270 C  
HETATM   11  H   UNL     1     -12.876  13.995  67.917  1.00  0.00     0.000 HD 
HETATM   12  O   UNL     1     -12.028  13.672  67.633  1.00  0.00    -0.360 OA 
BRANCH  10  13
HETATM   13  C   UNL     1     -11.012  14.998  69.391  1.00  0.00    -0.266 C  
HETATM   14  H   UNL     1     -11.869  15.902  70.912  1.00  0.00     0.000 HD 
HETATM   15  O   UNL     1     -11.923  15.048  70.499  1.00  0.00    -0.266 OA 
BRANCH  13  16
HETATM   16  C   UNL     1     -11.326  16.138  68.400  1.00  0.00    -0.345 C  
HETATM   17  O   UNL     1     -10.417  16.143  67.298  1.00  0.00    -0.300 OA 
HETATM   18  H   UNL     1     -10.611  16.844  66.687  1.00  0.00     0.000 HD 
ENDBRANCH  13  16
ENDBRANCH  10  13
ENDBRANCH   7  10
ENDBRANCH   4   7
ENDBRANCH   2   4
TORSDOF 5
ENDMDL
MODEL      252
REMARK 921   NORMALIZED FREE ENERGY PREDICTED BY IDOCK:   -2.53 KCAL/MOL
REMARK 922        TOTAL FREE ENERGY PREDICTED BY IDOCK:   -3.59 KCAL/MOL
REMARK 923 INTER-LIGAND FREE ENERGY PREDICTED BY IDOCK:   -3.17 KCAL/MOL
REMARK 924 INTRA-LIGAND FREE ENERGY PREDICTED BY IDOCK:   -0.42 KCAL/MOL
REMARK 927      BINDING AFFINITY PREDICTED BY RF-SCORE:    0.00 PKD
ROOT
HETATM    1  O   UNL     1     -11.863   9.479  71.477  1.00  0.00    -0.354 OA 
HETATM    2  C   UNL     1     -12.894   8.564  71.857  1.00  0.00    -0.363 C  
HETATM    3  H   UNL     1     -12.195  10.363  71.580  1.00  0.00     0.000 HD 
ENDROOT
BRANCH   2   4
HETATM    4  C   UNL     1     -12.358   7.139  71.690  1.00  0.00    -0.362 C  
HETATM    5  H   UNL     1     -11.891   5.974  70.182  1.00  0.00     0.000 HD 
HETATM    6  O   UNL     1     -12.224   6.858  70.286  1.00  0.00    -0.243 OA 
BRANCH   4   7
HETATM    7  C   UNL     1     -11.015   6.893  72.417  1.00  0.00    -0.246 C  
HETATM    8  O   UNL     1     -11.126   7.351  73.778  1.00  0.00    -0.557 OA 
HETATM    9  H   UNL     1     -10.301   7.201  74.225  1.00  0.00     0.000 HD 
BRANCH   7  10
HETATM   10  C   UNL     1     -10.584   5.405  72.436  1.00  0.00    -0.224 C  
HETATM   11  H   UNL     1     -10.406   3.940  73.767  1.00  0.00     0.000 HD 
HETATM   12  O   UNL     1     -10.671   4.852  73.755  1.00  0.00    -0.253 OA 
BRANCH  10  13
HETATM   13  C   UNL     1      -9.162   5.194  71.886  1.00  0.00    -0.137 C  
HETATM   14  H   UNL     1      -7.452   6.163  71.947  1.00  0.00     0.000 HD 
HETATM   15  O   UNL     1      -8.330   6.294  72.286  1.00  0.00    -0.109 OA 
BRANCH  13  16
HETATM   16  C   UNL     1      -9.153   5.059  70.350  1.00  0.00    -0.129 C  
HETATM   17  O   UNL     1      -9.653   3.788  69.929  1.00  0.00    -0.187 OA 
HETATM   18  H   UNL     1      -9.648   3.705  68.983  1.00  0.00     0.000 HD 
ENDBRANCH  13  16
ENDBRANCH  10  13
ENDBRANCH   7  10
ENDBRANCH   4   7
ENDBRANCH   2   4
TORSDOF 5
ENDMDL
MODEL      253
REMARK 921   NORMALIZED FREE ENERGY PREDICTED BY IDOCK:   -2.53 KCAL/MOL
REMARK 922        TOTAL FREE ENERGY PREDICTED BY IDOCK:   -3.58 KCAL/MOL
REMARK 923 INTER-LIGAND FREE ENERGY PREDICTED BY IDOCK:   -3.05 KCAL/MOL
REMARK 924 INTRA-LIGAND FREE ENERGY PREDICTED BY IDOCK:   -0.54 KCAL/MOL
REMARK 927      BINDING AFFINITY PREDICTED BY RF-SCORE:    0.00 PKD
ROOT
HETATM    1  O   UNL     1      -9.604  11.308  69.378  1.00  0.00    -0.410 OA 
HETATM    2  C   UNL     1      -9.401   9.899  69.515  1.00  0.00    -0.220 C  
HETATM    3  H   UNL     1      -8.850  11.755  69.744  1.00  0.00     0.000 HD 
ENDROOT
BRANCH   2   4
HETATM    4  C   UNL     1     -10.617   9.179  68.925  1.00  0.00    -0.191 C  
HETATM    5  H   UNL     1     -11.545   9.160  67.196  1.00  0.00     0.000 HD 
HETATM    6  O   UNL     1     -10.791   9.607  67.563  1.00  0.00    -0.286 OA 
BRANCH   4   7
HETATM    7  C   UNL     1     -10.518   7.637  68.994  1.00  0.00    -0.205 C  
HETATM    8  O   UNL     1      -9.133   7.250  68.903  1.00  0.00    -0.134 OA 
HETATM    9  H   UNL     1      -9.071   6.303  68.945  1.00  0.00     0.000 HD 
BRANCH   7  10
HETATM   10  C   UNL     1     -11.109   7.035  70.293  1.00  0.00    -0.285 C  
HETATM   11  H   UNL     1     -12.341   7.595  71.749  1.00  0.00     0.000 HD 
HETATM   12  O   UNL     1     -11.978   7.964  70.952  1.00  0.00    -0.279 OA 
BRANCH  10  13
HETATM   13  C   UNL     1     -10.023   6.566  71.277  1.00  0.00    -0.181 C  
HETATM   14  H   UNL     1      -9.269   4.844  71.854  1.00  0.00     0.000 HD 
HETATM   15  O   UNL     1      -9.940   5.133  71.247  1.00  0.00    -0.175 OA 
BRANCH  13  16
HETATM   16  C   UNL     1     -10.304   7.047  72.716  1.00  0.00    -0.222 C  
HETATM   17  O   UNL     1     -11.444   6.395  73.276  1.00  0.00    -0.458 OA 
HETATM   18  H   UNL     1     -11.617   6.690  74.162  1.00  0.00     0.000 HD 
ENDBRANCH  13  16
ENDBRANCH  10  13
ENDBRANCH   7  10
ENDBRANCH   4   7
ENDBRANCH   2   4
TORSDOF 5
ENDMDL
MODEL      254
REMARK 921   NORMALIZED FREE ENERGY PREDICTED BY IDOCK:   -2.52 KCAL/MOL
REMARK 922        TOTAL FREE ENERGY PREDICTED BY IDOCK:   -3.56 KCAL/MOL
REMARK 923 INTER-LIGAND FREE ENERGY PREDICTED BY IDOCK:   -3.05 KCAL/MOL
REMARK 924 INTRA-LIGAND FREE ENERGY PREDICTED BY IDOCK:   -0.51 KCAL/MOL
REMARK 927      BINDING AFFINITY PREDICTED BY RF-SCORE:    0.00 PKD
ROOT
HETATM    1  O   UNL     1      -9.836  10.202  68.933  1.00  0.00    -0.172 OA 
HETATM    2  C   UNL     1      -9.072   9.069  68.509  1.00  0.00    -0.133 C  
HETATM    3  H   UNL     1     -10.207  10.009  69.786  1.00  0.00     0.000 HD 
ENDROOT
BRANCH   2   4
HETATM    4  C   UNL     1      -8.474   9.380  67.134  1.00  0.00    -0.128 C  
HETATM    5  H   UNL     1      -6.756   9.071  66.240  1.00  0.00     0.000 HD 
HETATM    6  O   UNL     1      -7.127   8.878  67.093  1.00  0.00    -0.080 OA 
BRANCH   4   7
HETATM    7  C   UNL     1      -9.296   8.807  65.957  1.00  0.00    -0.232 C  
HETATM    8  O   UNL     1     -10.553   8.311  66.457  1.00  0.00    -0.365 OA 
HETATM    9  H   UNL     1     -11.058   7.958  65.734  1.00  0.00     0.000 HD 
BRANCH   7  10
HETATM   10  C   UNL     1      -9.589   9.843  64.842  1.00  0.00    -0.288 C  
HETATM   11  H   UNL     1      -8.702  10.531  63.202  1.00  0.00     0.000 HD 
HETATM   12  O   UNL     1      -8.524   9.896  63.886  1.00  0.00    -0.152 OA 
BRANCH  10  13
HETATM   13  C   UNL     1      -9.848  11.254  65.398  1.00  0.00    -0.237 C  
HETATM   14  H   UNL     1     -11.069  12.069  66.705  1.00  0.00     0.000 HD 
HETATM   15  O   UNL     1     -10.910  11.197  66.362  1.00  0.00    -0.270 OA 
BRANCH  13  16
HETATM   16  C   UNL     1     -10.205  12.255  64.280  1.00  0.00    -0.330 C  
HETATM   17  O   UNL     1      -9.390  12.067  63.122  1.00  0.00    -0.664 OA 
HETATM   18  H   UNL     1      -9.610  12.683  62.434  1.00  0.00     0.000 HD 
ENDBRANCH  13  16
ENDBRANCH  10  13
ENDBRANCH   7  10
ENDBRANCH   4   7
ENDBRANCH   2   4
TORSDOF 5
ENDMDL
MODEL      255
REMARK 921   NORMALIZED FREE ENERGY PREDICTED BY IDOCK:   -2.51 KCAL/MOL
REMARK 922        TOTAL FREE ENERGY PREDICTED BY IDOCK:   -3.56 KCAL/MOL
REMARK 923 INTER-LIGAND FREE ENERGY PREDICTED BY IDOCK:   -3.32 KCAL/MOL
REMARK 924 INTRA-LIGAND FREE ENERGY PREDICTED BY IDOCK:   -0.23 KCAL/MOL
REMARK 927      BINDING AFFINITY PREDICTED BY RF-SCORE:    0.00 PKD
ROOT
HETATM    1  O   UNL     1      -8.429   9.949  66.298  1.00  0.00    -0.126 OA 
HETATM    2  C   UNL     1      -9.532   9.949  65.386  1.00  0.00    -0.257 C  
HETATM    3  H   UNL     1      -8.562   9.250  66.927  1.00  0.00     0.000 HD 
ENDROOT
BRANCH   2   4
HETATM    4  C   UNL     1      -9.317  11.077  64.373  1.00  0.00    -0.195 C  
HETATM    5  H   UNL     1      -8.600  11.222  62.552  1.00  0.00     0.000 HD 
HETATM    6  O   UNL     1      -8.733  10.522  63.181  1.00  0.00    -0.174 OA 
BRANCH   4   7
HETATM    7  C   UNL     1     -10.610  11.852  64.025  1.00  0.00    -0.374 C  
HETATM    8  O   UNL     1     -11.058  11.457  62.714  1.00  0.00    -0.668 OA 
HETATM    9  H   UNL     1     -11.852  11.933  62.500  1.00  0.00     0.000 HD 
BRANCH   7  10
HETATM   10  C   UNL     1     -11.766  11.611  65.029  1.00  0.00    -0.002 C  
HETATM   11  H   UNL     1     -13.736  11.354  64.972  1.00  0.00     0.000 HD 
HETATM   12  O   UNL     1     -13.027  11.502  64.357  1.00  0.00     0.070 OA 
BRANCH  10  13
HETATM   13  C   UNL     1     -11.854  12.706  66.106  1.00  0.00    -0.418 C  
HETATM   14  H   UNL     1     -11.187  14.543  66.327  1.00  0.00     0.000 HD 
HETATM   15  O   UNL     1     -11.133  13.866  65.662  1.00  0.00    -0.294 OA 
BRANCH  13  16
HETATM   16  C   UNL     1     -11.295  12.226  67.461  1.00  0.00    -0.325 C  
HETATM   17  O   UNL     1     -12.274  11.503  68.209  1.00  0.00    -0.561 OA 
HETATM   18  H   UNL     1     -11.931  11.207  69.043  1.00  0.00     0.000 HD 
ENDBRANCH  13  16
ENDBRANCH  10  13
ENDBRANCH   7  10
ENDBRANCH   4   7
ENDBRANCH   2   4
TORSDOF 5
ENDMDL
MODEL      256
REMARK 921   NORMALIZED FREE ENERGY PREDICTED BY IDOCK:   -2.51 KCAL/MOL
REMARK 922        TOTAL FREE ENERGY PREDICTED BY IDOCK:   -3.55 KCAL/MOL
REMARK 923 INTER-LIGAND FREE ENERGY PREDICTED BY IDOCK:   -2.98 KCAL/MOL
REMARK 924 INTRA-LIGAND FREE ENERGY PREDICTED BY IDOCK:   -0.57 KCAL/MOL
REMARK 927      BINDING AFFINITY PREDICTED BY RF-SCORE:    0.00 PKD
ROOT
HETATM    1  O   UNL     1      -9.735  13.841  65.700  1.00  0.00    -0.467 OA 
HETATM    2  C   UNL     1      -9.985  12.752  66.594  1.00  0.00    -0.245 C  
HETATM    3  H   UNL     1     -10.566  14.246  65.483  1.00  0.00     0.000 HD 
ENDROOT
BRANCH   2   4
HETATM    4  C   UNL     1      -8.644  12.099  66.943  1.00  0.00    -0.191 C  
HETATM    5  H   UNL     1      -7.757  11.487  68.582  1.00  0.00     0.000 HD 
HETATM    6  O   UNL     1      -8.589  11.892  68.366  1.00  0.00    -0.164 OA 
BRANCH   4   7
HETATM    7  C   UNL     1      -8.390  10.769  66.197  1.00  0.00    -0.166 C  
HETATM    8  O   UNL     1      -8.054   9.748  67.156  1.00  0.00    -0.115 OA 
HETATM    9  H   UNL     1      -7.897   8.930  66.698  1.00  0.00     0.000 HD 
BRANCH   7  10
HETATM   10  C   UNL     1      -9.606  10.280  65.370  1.00  0.00    -0.251 C  
HETATM   11  H   UNL     1     -10.985   8.853  65.480  1.00  0.00     0.000 HD 
HETATM   12  O   UNL     1     -10.240   9.153  65.987  1.00  0.00    -0.256 OA 
BRANCH  10  13
HETATM   13  C   UNL     1      -9.231   9.924  63.920  1.00  0.00    -0.248 C  
HETATM   14  H   UNL     1      -7.905   8.776  63.032  1.00  0.00     0.000 HD 
HETATM   15  O   UNL     1      -8.137   8.995  63.927  1.00  0.00    -0.142 OA 
BRANCH  13  16
HETATM   16  C   UNL     1      -8.854  11.175  63.100  1.00  0.00    -0.105 C  
HETATM   17  O   UNL     1      -9.752  12.259  63.349  1.00  0.00    -0.627 OA 
HETATM   18  H   UNL     1      -9.519  13.030  62.844  1.00  0.00     0.000 HD 
ENDBRANCH  13  16
ENDBRANCH  10  13
ENDBRANCH   7  10
ENDBRANCH   4   7
ENDBRANCH   2   4
TORSDOF 5
ENDMDL
MODEL      257
REMARK 921   NORMALIZED FREE ENERGY PREDICTED BY IDOCK:   -2.48 KCAL/MOL
REMARK 922        TOTAL FREE ENERGY PREDICTED BY IDOCK:   -3.52 KCAL/MOL
REMARK 923 INTER-LIGAND FREE ENERGY PREDICTED BY IDOCK:   -2.75 KCAL/MOL
REMARK 924 INTRA-LIGAND FREE ENERGY PREDICTED BY IDOCK:   -0.77 KCAL/MOL
REMARK 927      BINDING AFFINITY PREDICTED BY RF-SCORE:    0.00 PKD
ROOT
HETATM    1  O   UNL     1      -9.055  12.071  65.868  1.00  0.00    -0.383 OA 
HETATM    2  C   UNL     1      -9.950  11.223  66.592  1.00  0.00    -0.209 C  
HETATM    3  H   UNL     1      -9.073  12.933  66.266  1.00  0.00     0.000 HD 
ENDROOT
BRANCH   2   4
HETATM    4  C   UNL     1      -9.922   9.833  65.949  1.00  0.00    -0.275 C  
HETATM    5  H   UNL     1      -9.856   9.125  64.120  1.00  0.00     0.000 HD 
HETATM    6  O   UNL     1      -9.874   9.987  64.519  1.00  0.00    -0.305 OA 
BRANCH   4   7
HETATM    7  C   UNL     1      -8.747   8.951  66.432  1.00  0.00    -0.129 C  
HETATM    8  O   UNL     1      -7.886   9.736  67.280  1.00  0.00    -0.098 OA 
HETATM    9  H   UNL     1      -7.164   9.194  67.577  1.00  0.00     0.000 HD 
BRANCH   7  10
HETATM   10  C   UNL     1      -9.198   7.696  67.222  1.00  0.00    -0.131 C  
HETATM   11  H   UNL     1     -10.852   6.620  67.458  1.00  0.00     0.000 HD 
HETATM   12  O   UNL     1     -10.575   7.389  66.974  1.00  0.00    -0.313 OA 
BRANCH  10  13
HETATM   13  C   UNL     1      -8.971   7.837  68.737  1.00  0.00    -0.141 C  
HETATM   14  H   UNL     1      -7.940   6.889  70.118  1.00  0.00     0.000 HD 
HETATM   15  O   UNL     1      -8.080   6.802  69.182  1.00  0.00    -0.117 OA 
BRANCH  13  16
HETATM   16  C   UNL     1     -10.295   7.765  69.526  1.00  0.00    -0.219 C  
HETATM   17  O   UNL     1     -11.092   8.934  69.326  1.00  0.00    -0.428 OA 
HETATM   18  H   UNL     1     -11.907   8.890  69.811  1.00  0.00     0.000 HD 
ENDBRANCH  13  16
ENDBRANCH  10  13
ENDBRANCH   7  10
ENDBRANCH   4   7
ENDBRANCH   2   4
TORSDOF 5
ENDMDL
MODEL      258
REMARK 921   NORMALIZED FREE ENERGY PREDICTED BY IDOCK:   -2.48 KCAL/MOL
REMARK 922        TOTAL FREE ENERGY PREDICTED BY IDOCK:   -3.51 KCAL/MOL
REMARK 923 INTER-LIGAND FREE ENERGY PREDICTED BY IDOCK:   -2.87 KCAL/MOL
REMARK 924 INTRA-LIGAND FREE ENERGY PREDICTED BY IDOCK:   -0.65 KCAL/MOL
REMARK 927      BINDING AFFINITY PREDICTED BY RF-SCORE:    0.00 PKD
ROOT
HETATM    1  O   UNL     1     -11.521   5.912  73.191  1.00  0.00    -0.479 OA 
HETATM    2  C   UNL     1     -11.397   7.267  72.749  1.00  0.00    -0.274 C  
HETATM    3  H   UNL     1     -11.196   5.858  74.083  1.00  0.00     0.000 HD 
ENDROOT
BRANCH   2   4
HETATM    4  C   UNL     1     -11.921   7.354  71.313  1.00  0.00    -0.313 C  
HETATM    5  H   UNL     1     -13.604   7.882  70.454  1.00  0.00     0.000 HD 
HETATM    6  O   UNL     1     -13.279   7.828  71.345  1.00  0.00    -0.322 OA 
BRANCH   4   7
HETATM    7  C   UNL     1     -11.061   8.251  70.393  1.00  0.00    -0.235 C  
HETATM    8  O   UNL     1     -10.250   9.120  71.207  1.00  0.00    -0.284 OA 
HETATM    9  H   UNL     1      -9.722   9.672  70.642  1.00  0.00     0.000 HD 
BRANCH   7  10
HETATM   10  C   UNL     1     -10.127   7.455  69.447  1.00  0.00    -0.185 C  
HETATM   11  H   UNL     1     -10.269   5.939  68.170  1.00  0.00     0.000 HD 
HETATM   12  O   UNL     1     -10.841   6.428  68.750  1.00  0.00    -0.256 OA 
BRANCH  10  13
HETATM   13  C   UNL     1      -8.929   6.832  70.185  1.00  0.00    -0.149 C  
HETATM   14  H   UNL     1      -6.981   7.102  70.222  1.00  0.00     0.000 HD 
HETATM   15  O   UNL     1      -7.721   7.486  69.766  1.00  0.00    -0.092 OA 
BRANCH  13  16
HETATM   16  C   UNL     1      -8.821   5.315  69.929  1.00  0.00    -0.112 C  
HETATM   17  O   UNL     1      -9.754   4.579  70.723  1.00  0.00    -0.168 OA 
HETATM   18  H   UNL     1      -9.688   3.645  70.565  1.00  0.00     0.000 HD 
ENDBRANCH  13  16
ENDBRANCH  10  13
ENDBRANCH   7  10
ENDBRANCH   4   7
ENDBRANCH   2   4
TORSDOF 5
ENDMDL
MODEL      259
REMARK 921   NORMALIZED FREE ENERGY PREDICTED BY IDOCK:   -2.45 KCAL/MOL
REMARK 922        TOTAL FREE ENERGY PREDICTED BY IDOCK:   -3.48 KCAL/MOL
REMARK 923 INTER-LIGAND FREE ENERGY PREDICTED BY IDOCK:   -2.73 KCAL/MOL
REMARK 924 INTRA-LIGAND FREE ENERGY PREDICTED BY IDOCK:   -0.75 KCAL/MOL
REMARK 927      BINDING AFFINITY PREDICTED BY RF-SCORE:    0.00 PKD
ROOT
HETATM    1  O   UNL     1     -11.915  15.199  71.192  1.00  0.00    -0.283 OA 
HETATM    2  C   UNL     1     -12.556  14.286  70.296  1.00  0.00    -0.319 C  
HETATM    3  H   UNL     1     -12.509  15.924  71.355  1.00  0.00     0.000 HD 
ENDROOT
BRANCH   2   4
HETATM    4  C   UNL     1     -11.599  13.120  70.034  1.00  0.00    -0.131 C  
HETATM    5  H   UNL     1     -11.766  11.175  69.840  1.00  0.00     0.000 HD 
HETATM    6  O   UNL     1     -12.359  11.898  70.003  1.00  0.00    -0.220 OA 
BRANCH   4   7
HETATM    7  C   UNL     1     -10.778  13.273  68.733  1.00  0.00    -0.227 C  
HETATM    8  O   UNL     1     -10.078  14.532  68.763  1.00  0.00    -0.233 OA 
HETATM    9  H   UNL     1      -9.573  14.626  67.963  1.00  0.00     0.000 HD 
BRANCH   7  10
HETATM   10  C   UNL     1      -9.741  12.142  68.517  1.00  0.00    -0.149 C  
HETATM   11  H   UNL     1      -7.766  11.926  68.566  1.00  0.00     0.000 HD 
HETATM   12  O   UNL     1      -8.402  12.619  68.698  1.00  0.00    -0.093 OA 
BRANCH  10  13
HETATM   13  C   UNL     1      -9.865  11.481  67.133  1.00  0.00    -0.191 C  
HETATM   14  H   UNL     1     -10.332  12.062  65.313  1.00  0.00     0.000 HD 
HETATM   15  O   UNL     1     -10.256  12.470  66.168  1.00  0.00    -0.242 OA 
BRANCH  13  16
HETATM   16  C   UNL     1     -10.881  10.321  67.138  1.00  0.00    -0.212 C  
HETATM   17  O   UNL     1     -11.062   9.784  68.450  1.00  0.00    -0.430 OA 
HETATM   18  H   UNL     1     -11.687   9.070  68.454  1.00  0.00     0.000 HD 
ENDBRANCH  13  16
ENDBRANCH  10  13
ENDBRANCH   7  10
ENDBRANCH   4   7
ENDBRANCH   2   4
TORSDOF 5
ENDMDL
MODEL      260
REMARK 921   NORMALIZED FREE ENERGY PREDICTED BY IDOCK:   -2.45 KCAL/MOL
REMARK 922        TOTAL FREE ENERGY PREDICTED BY IDOCK:   -3.48 KCAL/MOL
REMARK 923 INTER-LIGAND FREE ENERGY PREDICTED BY IDOCK:   -3.34 KCAL/MOL
REMARK 924 INTRA-LIGAND FREE ENERGY PREDICTED BY IDOCK:   -0.13 KCAL/MOL
REMARK 927      BINDING AFFINITY PREDICTED BY RF-SCORE:    0.00 PKD
ROOT
HETATM    1  O   UNL     1     -11.952   6.569  69.371  1.00  0.00    -0.568 OA 
HETATM    2  C   UNL     1     -10.873   6.427  68.443  1.00  0.00    -0.311 C  
HETATM    3  H   UNL     1     -12.611   5.916  69.165  1.00  0.00     0.000 HD 
ENDROOT
BRANCH   2   4
HETATM    4  C   UNL     1      -9.812   7.479  68.775  1.00  0.00    -0.166 C  
HETATM    5  H   UNL     1      -7.961   7.460  69.425  1.00  0.00     0.000 HD 
HETATM    6  O   UNL     1      -8.619   6.807  69.219  1.00  0.00    -0.128 OA 
BRANCH   4   7
HETATM    7  C   UNL     1      -9.486   8.425  67.596  1.00  0.00    -0.149 C  
HETATM    8  O   UNL     1      -9.426   7.657  66.378  1.00  0.00    -0.223 OA 
HETATM    9  H   UNL     1      -9.226   8.238  65.654  1.00  0.00     0.000 HD 
BRANCH   7  10
HETATM   10  C   UNL     1     -10.525   9.559  67.406  1.00  0.00    -0.272 C  
HETATM   11  H   UNL     1     -11.122  10.783  65.958  1.00  0.00     0.000 HD 
HETATM   12  O   UNL     1     -10.485  10.087  66.075  1.00  0.00    -0.186 OA 
BRANCH  10  13
HETATM   13  C   UNL     1     -10.341  10.706  68.415  1.00  0.00    -0.175 C  
HETATM   14  H   UNL     1      -8.863  11.437  69.487  1.00  0.00     0.000 HD 
HETATM   15  O   UNL     1      -8.977  10.729  68.864  1.00  0.00    -0.158 OA 
BRANCH  13  16
HETATM   16  C   UNL     1     -11.290  10.567  69.623  1.00  0.00    -0.281 C  
HETATM   17  O   UNL     1     -12.657  10.505  69.215  1.00  0.00    -0.726 OA 
HETATM   18  H   UNL     1     -13.242  10.419  69.959  1.00  0.00     0.000 HD 
ENDBRANCH  13  16
ENDBRANCH  10  13
ENDBRANCH   7  10
ENDBRANCH   4   7
ENDBRANCH   2   4
TORSDOF 5
ENDMDL
MODEL      261
REMARK 921   NORMALIZED FREE ENERGY PREDICTED BY IDOCK:   -2.45 KCAL/MOL
REMARK 922        TOTAL FREE ENERGY PREDICTED BY IDOCK:   -3.47 KCAL/MOL
REMARK 923 INTER-LIGAND FREE ENERGY PREDICTED BY IDOCK:   -2.59 KCAL/MOL
REMARK 924 INTRA-LIGAND FREE ENERGY PREDICTED BY IDOCK:   -0.89 KCAL/MOL
REMARK 927      BINDING AFFINITY PREDICTED BY RF-SCORE:    0.00 PKD
ROOT
HETATM    1  O   UNL     1      -9.342  10.113  70.071  1.00  0.00    -0.376 OA 
HETATM    2  C   UNL     1      -7.957   9.807  70.257  1.00  0.00    -0.162 C  
HETATM    3  H   UNL     1      -9.516  10.961  70.463  1.00  0.00     0.000 HD 
ENDROOT
BRANCH   2   4
HETATM    4  C   UNL     1      -7.677   8.441  69.626  1.00  0.00    -0.095 C  
HETATM    5  H   UNL     1      -6.089   7.474  68.999  1.00  0.00     0.000 HD 
HETATM    6  O   UNL     1      -6.263   8.322  69.390  1.00  0.00    -0.036 OA 
BRANCH   4   7
HETATM    7  C   UNL     1      -8.181   7.251  70.475  1.00  0.00    -0.124 C  
HETATM    8  O   UNL     1      -8.948   7.755  71.585  1.00  0.00    -0.124 OA 
HETATM    9  H   UNL     1      -9.257   7.024  72.107  1.00  0.00     0.000 HD 
BRANCH   7  10
HETATM   10  C   UNL     1      -9.065   6.254  69.684  1.00  0.00    -0.142 C  
HETATM   11  H   UNL     1      -8.811   4.758  68.399  1.00  0.00     0.000 HD 
HETATM   12  O   UNL     1      -8.269   5.370  68.885  1.00  0.00    -0.099 OA 
BRANCH  10  13
HETATM   13  C   UNL     1     -10.098   6.960  68.789  1.00  0.00    -0.166 C  
HETATM   14  H   UNL     1     -11.728   8.025  69.061  1.00  0.00     0.000 HD 
HETATM   15  O   UNL     1     -11.091   7.589  69.614  1.00  0.00    -0.198 OA 
BRANCH  13  16
HETATM   16  C   UNL     1     -10.774   5.981  67.807  1.00  0.00    -0.289 C  
HETATM   17  O   UNL     1     -11.496   6.671  66.786  1.00  0.00    -0.776 OA 
HETATM   18  H   UNL     1     -11.912   6.068  66.181  1.00  0.00     0.000 HD 
ENDBRANCH  13  16
ENDBRANCH  10  13
ENDBRANCH   7  10
ENDBRANCH   4   7
ENDBRANCH   2   4
TORSDOF 5
ENDMDL
MODEL      262
REMARK 921   NORMALIZED FREE ENERGY PREDICTED BY IDOCK:   -2.44 KCAL/MOL
REMARK 922        TOTAL FREE ENERGY PREDICTED BY IDOCK:   -3.46 KCAL/MOL
REMARK 923 INTER-LIGAND FREE ENERGY PREDICTED BY IDOCK:   -3.06 KCAL/MOL
REMARK 924 INTRA-LIGAND FREE ENERGY PREDICTED BY IDOCK:   -0.40 KCAL/MOL
REMARK 927      BINDING AFFINITY PREDICTED BY RF-SCORE:    0.00 PKD
ROOT
HETATM    1  O   UNL     1      -7.435  13.746  69.786  1.00  0.00    -0.262 OA 
HETATM    2  C   UNL     1      -7.208  14.427  68.549  1.00  0.00    -0.119 C  
HETATM    3  H   UNL     1      -6.695  13.912  70.358  1.00  0.00     0.000 HD 
ENDROOT
BRANCH   2   4
HETATM    4  C   UNL     1      -8.401  14.159  67.626  1.00  0.00    -0.182 C  
HETATM    5  H   UNL     1     -10.194  13.388  67.826  1.00  0.00     0.000 HD 
HETATM    6  O   UNL     1      -9.454  13.554  68.398  1.00  0.00    -0.211 OA 
BRANCH   4   7
HETATM    7  C   UNL     1      -8.922  15.423  66.905  1.00  0.00    -0.247 C  
HETATM    8  O   UNL     1      -9.938  15.040  65.958  1.00  0.00    -0.272 OA 
HETATM    9  H   UNL     1     -10.258  15.817  65.514  1.00  0.00     0.000 HD 
BRANCH   7  10
HETATM   10  C   UNL     1      -9.524  16.481  67.865  1.00  0.00    -0.220 C  
HETATM   11  H   UNL     1     -11.314  17.230  68.295  1.00  0.00     0.000 HD 
HETATM   12  O   UNL     1     -10.945  16.582  67.707  1.00  0.00    -0.327 OA 
BRANCH  10  13
HETATM   13  C   UNL     1      -8.891  17.872  67.686  1.00  0.00    -0.250 C  
HETATM   14  H   UNL     1      -8.389  19.370  68.855  1.00  0.00     0.000 HD 
HETATM   15  O   UNL     1      -8.781  18.512  68.966  1.00  0.00    -0.197 OA 
BRANCH  13  16
HETATM   16  C   UNL     1      -9.710  18.757  66.724  1.00  0.00    -0.329 C  
HETATM   17  O   UNL     1     -10.576  19.645  67.432  1.00  0.00    -0.447 OA 
HETATM   18  H   UNL     1     -11.080  20.191  66.841  1.00  0.00     0.000 HD 
ENDBRANCH  13  16
ENDBRANCH  10  13
ENDBRANCH   7  10
ENDBRANCH   4   7
ENDBRANCH   2   4
TORSDOF 5
ENDMDL
MODEL      263
REMARK 921   NORMALIZED FREE ENERGY PREDICTED BY IDOCK:   -2.43 KCAL/MOL
REMARK 922        TOTAL FREE ENERGY PREDICTED BY IDOCK:   -3.45 KCAL/MOL
REMARK 923 INTER-LIGAND FREE ENERGY PREDICTED BY IDOCK:   -3.16 KCAL/MOL
REMARK 924 INTRA-LIGAND FREE ENERGY PREDICTED BY IDOCK:   -0.28 KCAL/MOL
REMARK 927      BINDING AFFINITY PREDICTED BY RF-SCORE:    0.00 PKD
ROOT
HETATM    1  O   UNL     1      -7.022  12.142  69.661  1.00  0.00    -0.338 OA 
HETATM    2  C   UNL     1      -7.269  13.232  68.768  1.00  0.00    -0.088 C  
HETATM    3  H   UNL     1      -6.444  12.446  70.351  1.00  0.00     0.000 HD 
ENDROOT
BRANCH   2   4
HETATM    4  C   UNL     1      -8.200  12.741  67.656  1.00  0.00    -0.175 C  
HETATM    5  H   UNL     1      -9.642  11.419  67.503  1.00  0.00     0.000 HD 
HETATM    6  O   UNL     1      -9.064  11.723  68.193  1.00  0.00    -0.173 OA 
BRANCH   4   7
HETATM    7  C   UNL     1      -9.038  13.867  67.007  1.00  0.00    -0.250 C  
HETATM    8  O   UNL     1      -9.323  13.514  65.640  1.00  0.00    -0.478 OA 
HETATM    9  H   UNL     1      -9.838  14.206  65.241  1.00  0.00     0.000 HD 
BRANCH   7  10
HETATM   10  C   UNL     1     -10.380  14.138  67.732  1.00  0.00    -0.242 C  
HETATM   11  H   UNL     1     -12.263  13.509  67.629  1.00  0.00     0.000 HD 
HETATM   12  O   UNL     1     -11.440  13.343  67.185  1.00  0.00    -0.307 OA 
BRANCH  10  13
HETATM   13  C   UNL     1     -10.784  15.622  67.695  1.00  0.00    -0.302 C  
HETATM   14  H   UNL     1     -11.012  17.003  66.315  1.00  0.00     0.000 HD 
HETATM   15  O   UNL     1     -10.763  16.087  66.337  1.00  0.00    -0.301 OA 
BRANCH  13  16
HETATM   16  C   UNL     1      -9.854  16.493  68.564  1.00  0.00    -0.243 C  
HETATM   17  O   UNL     1      -9.557  17.740  67.933  1.00  0.00    -0.267 OA 
HETATM   18  H   UNL     1      -8.984  18.276  68.468  1.00  0.00     0.000 HD 
ENDBRANCH  13  16
ENDBRANCH  10  13
ENDBRANCH   7  10
ENDBRANCH   4   7
ENDBRANCH   2   4
TORSDOF 5
ENDMDL
MODEL      264
REMARK 921   NORMALIZED FREE ENERGY PREDICTED BY IDOCK:   -2.42 KCAL/MOL
REMARK 922        TOTAL FREE ENERGY PREDICTED BY IDOCK:   -3.44 KCAL/MOL
REMARK 923 INTER-LIGAND FREE ENERGY PREDICTED BY IDOCK:   -3.00 KCAL/MOL
REMARK 924 INTRA-LIGAND FREE ENERGY PREDICTED BY IDOCK:   -0.45 KCAL/MOL
REMARK 927      BINDING AFFINITY PREDICTED BY RF-SCORE:    0.00 PKD
ROOT
HETATM    1  O   UNL     1      -9.419   4.500  63.797  1.00  0.00    -0.289 OA 
HETATM    2  C   UNL     1      -9.318   3.332  64.617  1.00  0.00    -0.146 C  
HETATM    3  H   UNL     1      -9.307   4.239  62.891  1.00  0.00     0.000 HD 
ENDROOT
BRANCH   2   4
HETATM    4  C   UNL     1      -9.500   3.753  66.078  1.00  0.00    -0.173 C  
HETATM    5  H   UNL     1      -8.363   3.835  67.675  1.00  0.00     0.000 HD 
HETATM    6  O   UNL     1      -8.250   3.574  66.768  1.00  0.00    -0.094 OA 
BRANCH   4   7
HETATM    7  C   UNL     1     -10.002   5.206  66.246  1.00  0.00    -0.210 C  
HETATM    8  O   UNL     1     -11.380   5.279  65.831  1.00  0.00    -0.793 OA 
HETATM    9  H   UNL     1     -11.688   6.172  65.934  1.00  0.00     0.000 HD 
BRANCH   7  10
HETATM   10  C   UNL     1      -9.902   5.732  67.701  1.00  0.00    -0.126 C  
HETATM   11  H   UNL     1     -11.119   6.473  69.086  1.00  0.00     0.000 HD 
HETATM   12  O   UNL     1     -11.180   6.150  68.194  1.00  0.00    -0.314 OA 
BRANCH  10  13
HETATM   13  C   UNL     1      -8.896   6.887  67.845  1.00  0.00    -0.123 C  
HETATM   14  H   UNL     1      -7.792   7.644  69.284  1.00  0.00     0.000 HD 
HETATM   15  O   UNL     1      -8.413   6.931  69.196  1.00  0.00    -0.127 OA 
BRANCH  13  16
HETATM   16  C   UNL     1      -9.523   8.245  67.466  1.00  0.00    -0.149 C  
HETATM   17  O   UNL     1     -10.298   8.153  66.270  1.00  0.00    -0.452 OA 
HETATM   18  H   UNL     1     -10.684   8.989  66.037  1.00  0.00     0.000 HD 
ENDBRANCH  13  16
ENDBRANCH  10  13
ENDBRANCH   7  10
ENDBRANCH   4   7
ENDBRANCH   2   4
TORSDOF 5
ENDMDL
MODEL      265
REMARK 921   NORMALIZED FREE ENERGY PREDICTED BY IDOCK:   -2.42 KCAL/MOL
REMARK 922        TOTAL FREE ENERGY PREDICTED BY IDOCK:   -3.44 KCAL/MOL
REMARK 923 INTER-LIGAND FREE ENERGY PREDICTED BY IDOCK:   -3.14 KCAL/MOL
REMARK 924 INTRA-LIGAND FREE ENERGY PREDICTED BY IDOCK:   -0.30 KCAL/MOL
REMARK 927      BINDING AFFINITY PREDICTED BY RF-SCORE:    0.00 PKD
ROOT
HETATM    1  O   UNL     1      -7.003   9.791  68.618  1.00  0.00    -0.062 OA 
HETATM    2  C   UNL     1      -7.883  10.918  68.654  1.00  0.00    -0.126 C  
HETATM    3  H   UNL     1      -6.735   9.592  69.508  1.00  0.00     0.000 HD 
ENDROOT
BRANCH   2   4
HETATM    4  C   UNL     1      -8.313  11.238  67.219  1.00  0.00    -0.145 C  
HETATM    5  H   UNL     1      -8.865  10.202  65.647  1.00  0.00     0.000 HD 
HETATM    6  O   UNL     1      -8.598  10.003  66.537  1.00  0.00    -0.125 OA 
BRANCH   4   7
HETATM    7  C   UNL     1      -9.529  12.190  67.135  1.00  0.00    -0.190 C  
HETATM    8  O   UNL     1      -9.431  12.974  65.930  1.00  0.00    -0.441 OA 
HETATM    9  H   UNL     1     -10.177  13.559  65.878  1.00  0.00     0.000 HD 
BRANCH   7  10
HETATM   10  C   UNL     1     -10.893  11.455  67.130  1.00  0.00    -0.268 C  
HETATM   11  H   UNL     1     -12.519  11.375  65.989  1.00  0.00     0.000 HD 
HETATM   12  O   UNL     1     -11.682  11.825  65.993  1.00  0.00    -0.433 OA 
BRANCH  10  13
HETATM   13  C   UNL     1     -11.703  11.701  68.415  1.00  0.00    -0.307 C  
HETATM   14  H   UNL     1     -11.724  13.044  69.850  1.00  0.00     0.000 HD 
HETATM   15  O   UNL     1     -11.224  12.893  69.057  1.00  0.00    -0.257 OA 
BRANCH  13  16
HETATM   16  C   UNL     1     -11.614  10.507  69.388  1.00  0.00    -0.246 C  
HETATM   17  O   UNL     1     -12.807  10.368  70.161  1.00  0.00    -0.545 OA 
HETATM   18  H   UNL     1     -12.753   9.632  70.760  1.00  0.00     0.000 HD 
ENDBRANCH  13  16
ENDBRANCH  10  13
ENDBRANCH   7  10
ENDBRANCH   4   7
ENDBRANCH   2   4
TORSDOF 5
ENDMDL
MODEL      266
REMARK 921   NORMALIZED FREE ENERGY PREDICTED BY IDOCK:   -2.41 KCAL/MOL
REMARK 922        TOTAL FREE ENERGY PREDICTED BY IDOCK:   -3.42 KCAL/MOL
REMARK 923 INTER-LIGAND FREE ENERGY PREDICTED BY IDOCK:   -2.74 KCAL/MOL
REMARK 924 INTRA-LIGAND FREE ENERGY PREDICTED BY IDOCK:   -0.68 KCAL/MOL
REMARK 927      BINDING AFFINITY PREDICTED BY RF-SCORE:    0.00 PKD
ROOT
HETATM    1  O   UNL     1     -11.244   7.297  67.509  1.00  0.00    -0.548 OA 
HETATM    2  C   UNL     1     -10.982   6.388  68.582  1.00  0.00    -0.330 C  
HETATM    3  H   UNL     1     -11.010   6.871  66.693  1.00  0.00     0.000 HD 
ENDROOT
BRANCH   2   4
HETATM    4  C   UNL     1     -11.359   7.075  69.897  1.00  0.00    -0.216 C  
HETATM    5  H   UNL     1     -11.747   6.496  71.731  1.00  0.00     0.000 HD 
HETATM    6  O   UNL     1     -11.513   6.070  70.915  1.00  0.00    -0.284 OA 
BRANCH   4   7
HETATM    7  C   UNL     1     -10.340   8.146  70.351  1.00  0.00    -0.206 C  
HETATM    8  O   UNL     1     -10.465   8.343  71.773  1.00  0.00    -0.238 OA 
HETATM    9  H   UNL     1      -9.840   9.002  72.051  1.00  0.00     0.000 HD 
BRANCH   7  10
HETATM   10  C   UNL     1      -8.869   7.775  70.037  1.00  0.00    -0.142 C  
HETATM   11  H   UNL     1      -7.381   6.786  70.908  1.00  0.00     0.000 HD 
HETATM   12  O   UNL     1      -8.284   7.013  71.100  1.00  0.00    -0.111 OA 
BRANCH  10  13
HETATM   13  C   UNL     1      -7.995   9.008  69.752  1.00  0.00    -0.099 C  
HETATM   14  H   UNL     1      -7.217  10.478  70.801  1.00  0.00     0.000 HD 
HETATM   15  O   UNL     1      -7.757   9.716  70.978  1.00  0.00    -0.323 OA 
BRANCH  13  16
HETATM   16  C   UNL     1      -8.649   9.950  68.719  1.00  0.00    -0.130 C  
HETATM   17  O   UNL     1      -8.791   9.319  67.446  1.00  0.00    -0.118 OA 
HETATM   18  H   UNL     1      -9.194   9.898  66.810  1.00  0.00     0.000 HD 
ENDBRANCH  13  16
ENDBRANCH  10  13
ENDBRANCH   7  10
ENDBRANCH   4   7
ENDBRANCH   2   4
TORSDOF 5
ENDMDL
MODEL      267
REMARK 921   NORMALIZED FREE ENERGY PREDICTED BY IDOCK:   -2.39 KCAL/MOL
REMARK 922        TOTAL FREE ENERGY PREDICTED BY IDOCK:   -3.40 KCAL/MOL
REMARK 923 INTER-LIGAND FREE ENERGY PREDICTED BY IDOCK:   -2.84 KCAL/MOL
REMARK 924 INTRA-LIGAND FREE ENERGY PREDICTED BY IDOCK:   -0.57 KCAL/MOL
REMARK 927      BINDING AFFINITY PREDICTED BY RF-SCORE:    0.00 PKD
ROOT
HETATM    1  O   UNL     1     -13.319   8.680  71.038  1.00  0.00    -0.528 OA 
HETATM    2  C   UNL     1     -12.299   8.012  71.786  1.00  0.00    -0.319 C  
HETATM    3  H   UNL     1     -13.996   8.961  71.643  1.00  0.00     0.000 HD 
ENDROOT
BRANCH   2   4
HETATM    4  C   UNL     1     -11.208   7.558  70.812  1.00  0.00    -0.270 C  
HETATM    5  H   UNL     1     -10.962   6.062  69.567  1.00  0.00     0.000 HD 
HETATM    6  O   UNL     1     -11.639   6.344  70.171  1.00  0.00    -0.408 OA 
BRANCH   4   7
HETATM    7  C   UNL     1     -10.841   8.623  69.753  1.00  0.00    -0.183 C  
HETATM    8  O   UNL     1     -10.561   9.871  70.416  1.00  0.00    -0.274 OA 
HETATM    9  H   UNL     1     -10.336  10.525  69.765  1.00  0.00     0.000 HD 
BRANCH   7  10
HETATM   10  C   UNL     1      -9.611   8.242  68.890  1.00  0.00    -0.153 C  
HETATM   11  H   UNL     1      -7.686   7.836  69.168  1.00  0.00     0.000 HD 
HETATM   12  O   UNL     1      -8.440   8.070  69.697  1.00  0.00    -0.128 OA 
BRANCH  10  13
HETATM   13  C   UNL     1      -9.323   9.270  67.783  1.00  0.00    -0.128 C  
HETATM   14  H   UNL     1     -10.316  10.705  66.877  1.00  0.00     0.000 HD 
HETATM   15  O   UNL     1     -10.494  10.070  67.560  1.00  0.00    -0.218 OA 
BRANCH  13  16
HETATM   16  C   UNL     1      -8.891   8.592  66.466  1.00  0.00    -0.140 C  
HETATM   17  O   UNL     1      -7.518   8.847  66.167  1.00  0.00    -0.088 OA 
HETATM   18  H   UNL     1      -7.251   8.429  65.357  1.00  0.00     0.000 HD 
ENDBRANCH  13  16
ENDBRANCH  10  13
ENDBRANCH   7  10
ENDBRANCH   4   7
ENDBRANCH   2   4
TORSDOF 5
ENDMDL
MODEL      268
REMARK 921   NORMALIZED FREE ENERGY PREDICTED BY IDOCK:   -2.39 KCAL/MOL
REMARK 922        TOTAL FREE ENERGY PREDICTED BY IDOCK:   -3.40 KCAL/MOL
REMARK 923 INTER-LIGAND FREE ENERGY PREDICTED BY IDOCK:   -2.67 KCAL/MOL
REMARK 924 INTRA-LIGAND FREE ENERGY PREDICTED BY IDOCK:   -0.73 KCAL/MOL
REMARK 927      BINDING AFFINITY PREDICTED BY RF-SCORE:    0.00 PKD
ROOT
HETATM    1  O   UNL     1      -8.140   4.962  71.122  1.00  0.00    -0.096 OA 
HETATM    2  C   UNL     1      -8.620   4.078  72.139  1.00  0.00    -0.105 C  
HETATM    3  H   UNL     1      -7.251   4.711  70.903  1.00  0.00     0.000 HD 
ENDROOT
BRANCH   2   4
HETATM    4  C   UNL     1     -10.054   4.484  72.492  1.00  0.00    -0.176 C  
HETATM    5  H   UNL     1     -11.595   3.621  73.346  1.00  0.00     0.000 HD 
HETATM    6  O   UNL     1     -10.705   3.369  73.127  1.00  0.00    -0.174 OA 
BRANCH   4   7
HETATM    7  C   UNL     1     -10.138   5.738  73.392  1.00  0.00    -0.195 C  
HETATM    8  O   UNL     1      -8.808   6.240  73.628  1.00  0.00    -0.124 OA 
HETATM    9  H   UNL     1      -8.860   7.010  74.182  1.00  0.00     0.000 HD 
BRANCH   7  10
HETATM   10  C   UNL     1     -10.990   6.882  72.785  1.00  0.00    -0.280 C  
HETATM   11  H   UNL     1     -12.682   7.072  71.759  1.00  0.00     0.000 HD 
HETATM   12  O   UNL     1     -12.159   6.372  72.132  1.00  0.00    -0.326 OA 
BRANCH  10  13
HETATM   13  C   UNL     1     -10.194   7.754  71.799  1.00  0.00    -0.191 C  
HETATM   14  H   UNL     1     -10.011   9.676  71.424  1.00  0.00     0.000 HD 
HETATM   15  O   UNL     1     -10.503   9.137  72.032  1.00  0.00    -0.322 OA 
BRANCH  13  16
HETATM   16  C   UNL     1     -10.498   7.387  70.332  1.00  0.00    -0.221 C  
HETATM   17  O   UNL     1     -11.640   8.089  69.838  1.00  0.00    -0.465 OA 
HETATM   18  H   UNL     1     -11.827   7.864  68.934  1.00  0.00     0.000 HD 
ENDBRANCH  13  16
ENDBRANCH  10  13
ENDBRANCH   7  10
ENDBRANCH   4   7
ENDBRANCH   2   4
TORSDOF 5
ENDMDL
MODEL      269
REMARK 921   NORMALIZED FREE ENERGY PREDICTED BY IDOCK:   -2.39 KCAL/MOL
REMARK 922        TOTAL FREE ENERGY PREDICTED BY IDOCK:   -3.40 KCAL/MOL
REMARK 923 INTER-LIGAND FREE ENERGY PREDICTED BY IDOCK:   -2.58 KCAL/MOL
REMARK 924 INTRA-LIGAND FREE ENERGY PREDICTED BY IDOCK:   -0.81 KCAL/MOL
REMARK 927      BINDING AFFINITY PREDICTED BY RF-SCORE:    0.00 PKD
ROOT
HETATM    1  O   UNL     1      -8.050   6.075  67.269  1.00  0.00    -0.105 OA 
HETATM    2  C   UNL     1      -8.316   5.164  68.339  1.00  0.00    -0.089 C  
HETATM    3  H   UNL     1      -8.225   5.631  66.448  1.00  0.00     0.000 HD 
ENDROOT
BRANCH   2   4
HETATM    4  C   UNL     1      -8.034   5.881  69.663  1.00  0.00    -0.101 C  
HETATM    5  H   UNL     1      -6.632   7.066  70.355  1.00  0.00     0.000 HD 
HETATM    6  O   UNL     1      -6.807   6.621  69.534  1.00  0.00    -0.060 OA 
BRANCH   4   7
HETATM    7  C   UNL     1      -9.179   6.817  70.117  1.00  0.00    -0.155 C  
HETATM    8  O   UNL     1     -10.132   6.949  69.045  1.00  0.00    -0.161 OA 
HETATM    9  H   UNL     1     -10.835   7.524  69.324  1.00  0.00     0.000 HD 
BRANCH   7  10
HETATM   10  C   UNL     1      -9.927   6.314  71.377  1.00  0.00    -0.186 C  
HETATM   11  H   UNL     1     -11.115   4.801  71.879  1.00  0.00     0.000 HD 
HETATM   12  O   UNL     1     -10.655   5.110  71.107  1.00  0.00    -0.205 OA 
BRANCH  10  13
HETATM   13  C   UNL     1     -10.884   7.370  71.958  1.00  0.00    -0.227 C  
HETATM   14  H   UNL     1     -11.213   8.178  73.720  1.00  0.00     0.000 HD 
HETATM   15  O   UNL     1     -10.622   7.526  73.361  1.00  0.00    -0.375 OA 
BRANCH  13  16
HETATM   16  C   UNL     1     -12.362   6.989  71.738  1.00  0.00    -0.354 C  
HETATM   17  O   UNL     1     -12.688   6.919  70.349  1.00  0.00    -0.565 OA 
HETATM   18  H   UNL     1     -13.598   6.685  70.213  1.00  0.00     0.000 HD 
ENDBRANCH  13  16
ENDBRANCH  10  13
ENDBRANCH   7  10
ENDBRANCH   4   7
ENDBRANCH   2   4
TORSDOF 5
ENDMDL
MODEL      270
REMARK 921   NORMALIZED FREE ENERGY PREDICTED BY IDOCK:   -2.38 KCAL/MOL
REMARK 922        TOTAL FREE ENERGY PREDICTED BY IDOCK:   -3.39 KCAL/MOL
REMARK 923 INTER-LIGAND FREE ENERGY PREDICTED BY IDOCK:   -2.99 KCAL/MOL
REMARK 924 INTRA-LIGAND FREE ENERGY PREDICTED BY IDOCK:   -0.39 KCAL/MOL
REMARK 927      BINDING AFFINITY PREDICTED BY RF-SCORE:    0.00 PKD
ROOT
HETATM    1  O   UNL     1      -7.859  10.210  70.432  1.00  0.00    -0.390 OA 
HETATM    2  C   UNL     1      -9.023   9.716  69.763  1.00  0.00    -0.211 C  
HETATM    3  H   UNL     1      -7.255  10.538  69.776  1.00  0.00     0.000 HD 
ENDROOT
BRANCH   2   4
HETATM    4  C   UNL     1      -9.997   9.187  70.820  1.00  0.00    -0.269 C  
HETATM    5  H   UNL     1     -11.758   8.323  70.809  1.00  0.00     0.000 HD 
HETATM    6  O   UNL     1     -11.154   8.651  70.154  1.00  0.00    -0.248 OA 
BRANCH   4   7
HETATM    7  C   UNL     1      -9.377   8.124  71.756  1.00  0.00    -0.181 C  
HETATM    8  O   UNL     1      -8.760   8.785  72.877  1.00  0.00    -0.379 OA 
HETATM    9  H   UNL     1      -8.378   8.132  73.452  1.00  0.00     0.000 HD 
BRANCH   7  10
HETATM   10  C   UNL     1     -10.406   7.099  72.299  1.00  0.00    -0.201 C  
HETATM   11  H   UNL     1     -11.360   6.733  74.003  1.00  0.00     0.000 HD 
HETATM   12  O   UNL     1     -10.730   7.361  73.669  1.00  0.00    -0.371 OA 
BRANCH  10  13
HETATM   13  C   UNL     1      -9.925   5.645  72.156  1.00  0.00    -0.178 C  
HETATM   14  H   UNL     1     -10.194   4.174  70.879  1.00  0.00     0.000 HD 
HETATM   15  O   UNL     1     -10.491   5.072  70.967  1.00  0.00    -0.213 OA 
BRANCH  13  16
HETATM   16  C   UNL     1     -10.304   4.791  73.383  1.00  0.00    -0.190 C  
HETATM   17  O   UNL     1     -10.619   3.447  73.014  1.00  0.00    -0.162 OA 
HETATM   18  H   UNL     1     -10.852   2.921  73.770  1.00  0.00     0.000 HD 
ENDBRANCH  13  16
ENDBRANCH  10  13
ENDBRANCH   7  10
ENDBRANCH   4   7
ENDBRANCH   2   4
TORSDOF 5
ENDMDL
MODEL      271
REMARK 921   NORMALIZED FREE ENERGY PREDICTED BY IDOCK:   -2.37 KCAL/MOL
REMARK 922        TOTAL FREE ENERGY PREDICTED BY IDOCK:   -3.38 KCAL/MOL
REMARK 923 INTER-LIGAND FREE ENERGY PREDICTED BY IDOCK:   -3.00 KCAL/MOL
REMARK 924 INTRA-LIGAND FREE ENERGY PREDICTED BY IDOCK:   -0.38 KCAL/MOL
REMARK 927      BINDING AFFINITY PREDICTED BY RF-SCORE:    0.00 PKD
ROOT
HETATM    1  O   UNL     1      -9.178   7.205  67.859  1.00  0.00    -0.131 OA 
HETATM    2  C   UNL     1     -10.088   8.094  68.514  1.00  0.00    -0.200 C  
HETATM    3  H   UNL     1      -9.601   6.359  67.767  1.00  0.00     0.000 HD 
ENDROOT
BRANCH   2   4
HETATM    4  C   UNL     1      -9.405   9.457  68.663  1.00  0.00    -0.142 C  
HETATM    5  H   UNL     1      -8.618  10.781  67.449  1.00  0.00     0.000 HD 
HETATM    6  O   UNL     1      -9.042   9.936  67.356  1.00  0.00    -0.134 OA 
BRANCH   4   7
HETATM    7  C   UNL     1     -10.271  10.506  69.398  1.00  0.00    -0.221 C  
HETATM    8  O   UNL     1      -9.822  11.826  69.033  1.00  0.00    -0.404 OA 
HETATM    9  H   UNL     1     -10.354  12.471  69.484  1.00  0.00     0.000 HD 
BRANCH   7  10
HETATM   10  C   UNL     1     -11.783  10.398  69.076  1.00  0.00    -0.096 C  
HETATM   11  H   UNL     1     -13.049  11.078  67.704  1.00  0.00     0.000 HD 
HETATM   12  O   UNL     1     -12.122  11.145  67.901  1.00  0.00    -0.627 OA 
BRANCH  10  13
HETATM   13  C   UNL     1     -12.672  10.854  70.246  1.00  0.00    -0.214 C  
HETATM   14  H   UNL     1     -12.533  12.148  71.720  1.00  0.00     0.000 HD 
HETATM   15  O   UNL     1     -11.984  11.866  70.998  1.00  0.00    -0.158 OA 
BRANCH  13  16
HETATM   16  C   UNL     1     -13.053   9.680  71.171  1.00  0.00    -0.309 C  
HETATM   17  O   UNL     1     -11.943   9.248  71.959  1.00  0.00    -0.364 OA 
HETATM   18  H   UNL     1     -12.178   8.525  72.529  1.00  0.00     0.000 HD 
ENDBRANCH  13  16
ENDBRANCH  10  13
ENDBRANCH   7  10
ENDBRANCH   4   7
ENDBRANCH   2   4
TORSDOF 5
ENDMDL
MODEL      272
REMARK 921   NORMALIZED FREE ENERGY PREDICTED BY IDOCK:   -2.35 KCAL/MOL
REMARK 922        TOTAL FREE ENERGY PREDICTED BY IDOCK:   -3.35 KCAL/MOL
REMARK 923 INTER-LIGAND FREE ENERGY PREDICTED BY IDOCK:   -2.80 KCAL/MOL
REMARK 924 INTRA-LIGAND FREE ENERGY PREDICTED BY IDOCK:   -0.55 KCAL/MOL
REMARK 927      BINDING AFFINITY PREDICTED BY RF-SCORE:    0.00 PKD
ROOT
HETATM    1  O   UNL     1      -9.612  11.334  69.408  1.00  0.00    -0.410 OA 
HETATM    2  C   UNL     1     -10.416  10.181  69.145  1.00  0.00    -0.222 C  
HETATM    3  H   UNL     1      -9.474  11.394  70.347  1.00  0.00     0.000 HD 
ENDROOT
BRANCH   2   4
HETATM    4  C   UNL     1     -10.638  10.085  67.632  1.00  0.00    -0.270 C  
HETATM    5  H   UNL     1      -9.843  10.900  66.035  1.00  0.00     0.000 HD 
HETATM    6  O   UNL     1      -9.705  10.960  66.973  1.00  0.00    -0.172 OA 
BRANCH   4   7
HETATM    7  C   UNL     1     -10.508   8.647  67.078  1.00  0.00    -0.284 C  
HETATM    8  O   UNL     1     -10.032   8.707  65.719  1.00  0.00    -0.456 OA 
HETATM    9  H   UNL     1      -9.952   7.824  65.379  1.00  0.00     0.000 HD 
BRANCH   7  10
HETATM   10  C   UNL     1      -9.541   7.752  67.895  1.00  0.00    -0.146 C  
HETATM   11  H   UNL     1      -7.580   7.491  68.082  1.00  0.00     0.000 HD 
HETATM   12  O   UNL     1      -8.173   8.039  67.581  1.00  0.00    -0.121 OA 
BRANCH  10  13
HETATM   13  C   UNL     1      -9.808   6.251  67.690  1.00  0.00    -0.121 C  
HETATM   14  H   UNL     1     -11.227   5.153  66.886  1.00  0.00     0.000 HD 
HETATM   15  O   UNL     1     -11.062   6.080  67.013  1.00  0.00    -0.303 OA 
BRANCH  13  16
HETATM   16  C   UNL     1      -9.822   5.482  69.027  1.00  0.00    -0.162 C  
HETATM   17  O   UNL     1      -8.841   5.985  69.935  1.00  0.00    -0.135 OA 
HETATM   18  H   UNL     1      -8.850   5.512  70.759  1.00  0.00     0.000 HD 
ENDBRANCH  13  16
ENDBRANCH  10  13
ENDBRANCH   7  10
ENDBRANCH   4   7
ENDBRANCH   2   4
TORSDOF 5
ENDMDL
MODEL      273
REMARK 921   NORMALIZED FREE ENERGY PREDICTED BY IDOCK:   -2.35 KCAL/MOL
REMARK 922        TOTAL FREE ENERGY PREDICTED BY IDOCK:   -3.35 KCAL/MOL
REMARK 923 INTER-LIGAND FREE ENERGY PREDICTED BY IDOCK:   -2.61 KCAL/MOL
REMARK 924 INTRA-LIGAND FREE ENERGY PREDICTED BY IDOCK:   -0.75 KCAL/MOL
REMARK 927      BINDING AFFINITY PREDICTED BY RF-SCORE:    0.00 PKD
ROOT
HETATM    1  O   UNL     1     -11.193  11.129  70.405  1.00  0.00    -0.471 OA 
HETATM    2  C   UNL     1     -11.661  11.147  69.053  1.00  0.00    -0.339 C  
HETATM    3  H   UNL     1     -11.843  10.690  70.940  1.00  0.00     0.000 HD 
ENDROOT
BRANCH   2   4
HETATM    4  C   UNL     1     -10.613  11.856  68.190  1.00  0.00    -0.208 C  
HETATM    5  H   UNL     1      -9.902  13.678  68.046  1.00  0.00     0.000 HD 
HETATM    6  O   UNL     1     -10.552  13.239  68.581  1.00  0.00    -0.253 OA 
BRANCH   4   7
HETATM    7  C   UNL     1      -9.209  11.214  68.269  1.00  0.00    -0.169 C  
HETATM    8  O   UNL     1      -9.304   9.957  68.968  1.00  0.00    -0.157 OA 
HETATM    9  H   UNL     1      -8.441   9.563  69.017  1.00  0.00     0.000 HD 
BRANCH   7  10
HETATM   10  C   UNL     1      -8.567  10.954  66.883  1.00  0.00    -0.136 C  
HETATM   11  H   UNL     1      -7.740  12.016  65.421  1.00  0.00     0.000 HD 
HETATM   12  O   UNL     1      -8.133  12.175  66.271  1.00  0.00     0.117 OA 
BRANCH  10  13
HETATM   13  C   UNL     1      -9.510  10.209  65.923  1.00  0.00    -0.196 C  
HETATM   14  H   UNL     1     -10.354   8.434  65.846  1.00  0.00     0.000 HD 
HETATM   15  O   UNL     1      -9.771   8.894  66.439  1.00  0.00    -0.220 OA 
BRANCH  13  16
HETATM   16  C   UNL     1      -8.922  10.109  64.500  1.00  0.00    -0.221 C  
HETATM   17  O   UNL     1      -9.211  11.274  63.727  1.00  0.00    -0.353 OA 
HETATM   18  H   UNL     1      -8.848  11.213  62.851  1.00  0.00     0.000 HD 
ENDBRANCH  13  16
ENDBRANCH  10  13
ENDBRANCH   7  10
ENDBRANCH   4   7
ENDBRANCH   2   4
TORSDOF 5
ENDMDL
MODEL      274
REMARK 921   NORMALIZED FREE ENERGY PREDICTED BY IDOCK:   -2.35 KCAL/MOL
REMARK 922        TOTAL FREE ENERGY PREDICTED BY IDOCK:   -3.35 KCAL/MOL
REMARK 923 INTER-LIGAND FREE ENERGY PREDICTED BY IDOCK:   -2.68 KCAL/MOL
REMARK 924 INTRA-LIGAND FREE ENERGY PREDICTED BY IDOCK:   -0.67 KCAL/MOL
REMARK 927      BINDING AFFINITY PREDICTED BY RF-SCORE:    0.00 PKD
ROOT
HETATM    1  O   UNL     1     -10.605  10.453  70.476  1.00  0.00    -0.424 OA 
HETATM    2  C   UNL     1     -11.154   9.322  69.793  1.00  0.00    -0.150 C  
HETATM    3  H   UNL     1     -11.008  10.508  71.334  1.00  0.00     0.000 HD 
ENDROOT
BRANCH   2   4
HETATM    4  C   UNL     1     -10.505   9.234  68.409  1.00  0.00    -0.206 C  
HETATM    5  H   UNL     1     -10.093  10.491  66.961  1.00  0.00     0.000 HD 
HETATM    6  O   UNL     1     -10.496  10.546  67.819  1.00  0.00    -0.194 OA 
BRANCH   4   7
HETATM    7  C   UNL     1      -9.074   8.647  68.432  1.00  0.00    -0.138 C  
HETATM    8  O   UNL     1      -8.718   8.325  69.791  1.00  0.00    -0.131 OA 
HETATM    9  H   UNL     1      -7.839   7.965  69.805  1.00  0.00     0.000 HD 
BRANCH   7  10
HETATM   10  C   UNL     1      -8.914   7.369  67.570  1.00  0.00    -0.126 C  
HETATM   11  H   UNL     1      -8.607   6.909  65.661  1.00  0.00     0.000 HD 
HETATM   12  O   UNL     1      -8.705   7.693  66.190  1.00  0.00    -0.143 OA 
BRANCH  10  13
HETATM   13  C   UNL     1     -10.115   6.416  67.695  1.00  0.00    -0.151 C  
HETATM   14  H   UNL     1     -10.771   5.116  69.016  1.00  0.00     0.000 HD 
HETATM   15  O   UNL     1     -10.029   5.704  68.939  1.00  0.00    -0.142 OA 
BRANCH  13  16
HETATM   16  C   UNL     1     -10.181   5.417  66.521  1.00  0.00    -0.245 C  
HETATM   17  O   UNL     1     -11.436   5.484  65.841  1.00  0.00    -0.632 OA 
HETATM   18  H   UNL     1     -11.477   4.870  65.118  1.00  0.00     0.000 HD 
ENDBRANCH  13  16
ENDBRANCH  10  13
ENDBRANCH   7  10
ENDBRANCH   4   7
ENDBRANCH   2   4
TORSDOF 5
ENDMDL
MODEL      275
REMARK 921   NORMALIZED FREE ENERGY PREDICTED BY IDOCK:   -2.34 KCAL/MOL
REMARK 922        TOTAL FREE ENERGY PREDICTED BY IDOCK:   -3.33 KCAL/MOL
REMARK 923 INTER-LIGAND FREE ENERGY PREDICTED BY IDOCK:   -2.96 KCAL/MOL
REMARK 924 INTRA-LIGAND FREE ENERGY PREDICTED BY IDOCK:   -0.37 KCAL/MOL
REMARK 927      BINDING AFFINITY PREDICTED BY RF-SCORE:    0.00 PKD
ROOT
HETATM    1  O   UNL     1      -8.745   8.618  70.646  1.00  0.00    -0.139 OA 
HETATM    2  C   UNL     1      -9.670   8.207  69.635  1.00  0.00    -0.170 C  
HETATM    3  H   UNL     1      -8.121   7.915  70.783  1.00  0.00     0.000 HD 
ENDROOT
BRANCH   2   4
HETATM    4  C   UNL     1     -10.676   9.341  69.414  1.00  0.00    -0.208 C  
HETATM    5  H   UNL     1     -10.786  11.242  69.887  1.00  0.00     0.000 HD 
HETATM    6  O   UNL     1     -10.162  10.538  70.024  1.00  0.00    -0.163 OA 
BRANCH   4   7
HETATM    7  C   UNL     1     -11.004   9.596  67.925  1.00  0.00    -0.145 C  
HETATM    8  O   UNL     1     -11.885  10.732  67.824  1.00  0.00    -0.697 OA 
HETATM    9  H   UNL     1     -12.087  10.888  66.909  1.00  0.00     0.000 HD 
BRANCH   7  10
HETATM   10  C   UNL     1      -9.753   9.870  67.052  1.00  0.00    -0.182 C  
HETATM   11  H   UNL     1      -8.669  11.434  66.481  1.00  0.00     0.000 HD 
HETATM   12  O   UNL     1      -9.436  11.266  67.016  1.00  0.00    -0.169 OA 
BRANCH  10  13
HETATM   13  C   UNL     1      -9.907   9.343  65.614  1.00  0.00    -0.223 C  
HETATM   14  H   UNL     1      -8.832   8.270  64.367  1.00  0.00     0.000 HD 
HETATM   15  O   UNL     1      -8.736   8.595  65.255  1.00  0.00    -0.183 OA 
BRANCH  13  16
HETATM   16  C   UNL     1     -10.131  10.488  64.604  1.00  0.00    -0.338 C  
HETATM   17  O   UNL     1      -8.895  11.067  64.181  1.00  0.00    -0.342 OA 
HETATM   18  H   UNL     1      -9.033  11.771  63.559  1.00  0.00     0.000 HD 
ENDBRANCH  13  16
ENDBRANCH  10  13
ENDBRANCH   7  10
ENDBRANCH   4   7
ENDBRANCH   2   4
TORSDOF 5
ENDMDL
MODEL      276
REMARK 921   NORMALIZED FREE ENERGY PREDICTED BY IDOCK:   -2.34 KCAL/MOL
REMARK 922        TOTAL FREE ENERGY PREDICTED BY IDOCK:   -3.33 KCAL/MOL
REMARK 923 INTER-LIGAND FREE ENERGY PREDICTED BY IDOCK:   -2.94 KCAL/MOL
REMARK 924 INTRA-LIGAND FREE ENERGY PREDICTED BY IDOCK:   -0.39 KCAL/MOL
REMARK 927      BINDING AFFINITY PREDICTED BY RF-SCORE:    0.00 PKD
ROOT
HETATM    1  O   UNL     1      -8.507   7.594  67.092  1.00  0.00    -0.119 OA 
HETATM    2  C   UNL     1      -9.720   6.932  66.721  1.00  0.00    -0.177 C  
HETATM    3  H   UNL     1      -8.213   8.113  66.353  1.00  0.00     0.000 HD 
ENDROOT
BRANCH   2   4
HETATM    4  C   UNL     1     -10.194   6.095  67.913  1.00  0.00    -0.175 C  
HETATM    5  H   UNL     1      -9.578   4.479  68.838  1.00  0.00     0.000 HD 
HETATM    6  O   UNL     1      -9.283   4.997  68.098  1.00  0.00    -0.112 OA 
BRANCH   4   7
HETATM    7  C   UNL     1     -10.330   6.906  69.223  1.00  0.00    -0.198 C  
HETATM    8  O   UNL     1     -10.882   8.201  68.921  1.00  0.00    -0.408 OA 
HETATM    9  H   UNL     1     -10.966   8.700  69.726  1.00  0.00     0.000 HD 
BRANCH   7  10
HETATM   10  C   UNL     1     -11.234   6.225  70.282  1.00  0.00    -0.388 C  
HETATM   11  H   UNL     1     -12.933   6.614  71.237  1.00  0.00     0.000 HD 
HETATM   12  O   UNL     1     -12.379   7.030  70.588  1.00  0.00    -0.319 OA 
BRANCH  10  13
HETATM   13  C   UNL     1     -10.479   5.897  71.582  1.00  0.00    -0.233 C  
HETATM   14  H   UNL     1      -9.559   4.333  72.340  1.00  0.00     0.000 HD 
HETATM   15  O   UNL     1     -10.026   4.536  71.538  1.00  0.00    -0.180 OA 
BRANCH  13  16
HETATM   16  C   UNL     1     -11.360   6.117  72.830  1.00  0.00    -0.222 C  
HETATM   17  O   UNL     1     -11.497   4.920  73.597  1.00  0.00    -0.407 OA 
HETATM   18  H   UNL     1     -12.039   5.055  74.365  1.00  0.00     0.000 HD 
ENDBRANCH  13  16
ENDBRANCH  10  13
ENDBRANCH   7  10
ENDBRANCH   4   7
ENDBRANCH   2   4
TORSDOF 5
ENDMDL
MODEL      277
REMARK 921   NORMALIZED FREE ENERGY PREDICTED BY IDOCK:   -2.33 KCAL/MOL
REMARK 922        TOTAL FREE ENERGY PREDICTED BY IDOCK:   -3.32 KCAL/MOL
REMARK 923 INTER-LIGAND FREE ENERGY PREDICTED BY IDOCK:   -3.12 KCAL/MOL
REMARK 924 INTRA-LIGAND FREE ENERGY PREDICTED BY IDOCK:   -0.20 KCAL/MOL
REMARK 927      BINDING AFFINITY PREDICTED BY RF-SCORE:    0.00 PKD
ROOT
HETATM    1  O   UNL     1      -8.745   8.928  72.551  1.00  0.00    -0.391 OA 
HETATM    2  C   UNL     1      -9.286   7.656  72.186  1.00  0.00    -0.145 C  
HETATM    3  H   UNL     1      -7.953   8.782  73.055  1.00  0.00     0.000 HD 
ENDROOT
BRANCH   2   4
HETATM    4  C   UNL     1     -10.563   7.891  71.374  1.00  0.00    -0.211 C  
HETATM    5  H   UNL     1     -11.297   9.353  70.289  1.00  0.00     0.000 HD 
HETATM    6  O   UNL     1     -10.505   9.207  70.793  1.00  0.00    -0.217 OA 
BRANCH   4   7
HETATM    7  C   UNL     1     -10.803   6.831  70.274  1.00  0.00    -0.270 C  
HETATM    8  O   UNL     1     -12.200   6.821  69.925  1.00  0.00    -0.634 OA 
HETATM    9  H   UNL     1     -12.347   6.169  69.250  1.00  0.00     0.000 HD 
BRANCH   7  10
HETATM   10  C   UNL     1      -9.979   7.077  68.985  1.00  0.00    -0.164 C  
HETATM   11  H   UNL     1     -10.151   8.123  67.304  1.00  0.00     0.000 HD 
HETATM   12  O   UNL     1     -10.656   7.972  68.095  1.00  0.00    -0.193 OA 
BRANCH  10  13
HETATM   13  C   UNL     1      -9.642   5.773  68.240  1.00  0.00    -0.121 C  
HETATM   14  H   UNL     1      -8.030   4.944  67.477  1.00  0.00     0.000 HD 
HETATM   15  O   UNL     1      -8.238   5.749  67.937  1.00  0.00    -0.101 OA 
BRANCH  13  16
HETATM   16  C   UNL     1     -10.462   5.624  66.942  1.00  0.00    -0.288 C  
HETATM   17  O   UNL     1      -9.917   6.408  65.880  1.00  0.00    -0.386 OA 
HETATM   18  H   UNL     1     -10.421   6.316  65.080  1.00  0.00     0.000 HD 
ENDBRANCH  13  16
ENDBRANCH  10  13
ENDBRANCH   7  10
ENDBRANCH   4   7
ENDBRANCH   2   4
TORSDOF 5
ENDMDL
MODEL      278
REMARK 921   NORMALIZED FREE ENERGY PREDICTED BY IDOCK:   -2.31 KCAL/MOL
REMARK 922        TOTAL FREE ENERGY PREDICTED BY IDOCK:   -3.29 KCAL/MOL
REMARK 923 INTER-LIGAND FREE ENERGY PREDICTED BY IDOCK:   -2.75 KCAL/MOL
REMARK 924 INTRA-LIGAND FREE ENERGY PREDICTED BY IDOCK:   -0.54 KCAL/MOL
REMARK 927      BINDING AFFINITY PREDICTED BY RF-SCORE:    0.00 PKD
ROOT
HETATM    1  O   UNL     1      -7.591  10.798  64.723  1.00  0.00    -0.353 OA 
HETATM    2  C   UNL     1      -7.965  10.919  66.098  1.00  0.00    -0.155 C  
HETATM    3  H   UNL     1      -6.642  10.793  64.671  1.00  0.00     0.000 HD 
ENDROOT
BRANCH   2   4
HETATM    4  C   UNL     1      -9.495  10.928  66.181  1.00  0.00    -0.200 C  
HETATM    5  H   UNL     1     -10.968  11.475  65.007  1.00  0.00     0.000 HD 
HETATM    6  O   UNL     1     -10.020  11.469  64.955  1.00  0.00    -0.244 OA 
BRANCH   4   7
HETATM    7  C   UNL     1     -10.108   9.536  66.458  1.00  0.00    -0.256 C  
HETATM    8  O   UNL     1      -9.694   8.624  65.424  1.00  0.00    -0.405 OA 
HETATM    9  H   UNL     1     -10.071   7.768  65.594  1.00  0.00     0.000 HD 
BRANCH   7  10
HETATM   10  C   UNL     1      -9.698   8.940  67.829  1.00  0.00    -0.160 C  
HETATM   11  H   UNL     1      -9.402   7.143  68.624  1.00  0.00     0.000 HD 
HETATM   12  O   UNL     1      -9.654   7.509  67.784  1.00  0.00    -0.139 OA 
BRANCH  10  13
HETATM   13  C   UNL     1     -10.627   9.386  68.971  1.00  0.00    -0.213 C  
HETATM   14  H   UNL     1     -10.680  10.860  70.272  1.00  0.00     0.000 HD 
HETATM   15  O   UNL     1     -10.106  10.584  69.566  1.00  0.00    -0.222 OA 
BRANCH  13  16
HETATM   16  C   UNL     1     -10.785   8.291  70.045  1.00  0.00    -0.239 C  
HETATM   17  O   UNL     1      -9.585   8.115  70.800  1.00  0.00    -0.163 OA 
HETATM   18  H   UNL     1      -9.682   7.441  71.462  1.00  0.00     0.000 HD 
ENDBRANCH  13  16
ENDBRANCH  10  13
ENDBRANCH   7  10
ENDBRANCH   4   7
ENDBRANCH   2   4
TORSDOF 5
ENDMDL
MODEL      279
REMARK 921   NORMALIZED FREE ENERGY PREDICTED BY IDOCK:   -2.30 KCAL/MOL
REMARK 922        TOTAL FREE ENERGY PREDICTED BY IDOCK:   -3.29 KCAL/MOL
REMARK 923 INTER-LIGAND FREE ENERGY PREDICTED BY IDOCK:   -2.87 KCAL/MOL
REMARK 924 INTRA-LIGAND FREE ENERGY PREDICTED BY IDOCK:   -0.42 KCAL/MOL
REMARK 927      BINDING AFFINITY PREDICTED BY RF-SCORE:    0.00 PKD
ROOT
HETATM    1  O   UNL     1     -10.315   4.926  64.943  1.00  0.00    -0.390 OA 
HETATM    2  C   UNL     1     -10.555   4.945  66.353  1.00  0.00    -0.223 C  
HETATM    3  H   UNL     1     -11.039   4.476  64.523  1.00  0.00     0.000 HD 
ENDROOT
BRANCH   2   4
HETATM    4  C   UNL     1      -9.388   5.669  67.030  1.00  0.00    -0.118 C  
HETATM    5  H   UNL     1      -7.667   6.416  66.456  1.00  0.00     0.000 HD 
HETATM    6  O   UNL     1      -8.391   5.966  66.036  1.00  0.00    -0.118 OA 
BRANCH   4   7
HETATM    7  C   UNL     1      -9.807   6.960  67.772  1.00  0.00    -0.136 C  
HETATM    8  O   UNL     1     -11.185   7.250  67.471  1.00  0.00    -0.548 OA 
HETATM    9  H   UNL     1     -11.443   8.043  67.927  1.00  0.00     0.000 HD 
BRANCH   7  10
HETATM   10  C   UNL     1      -9.651   6.869  69.311  1.00  0.00    -0.149 C  
HETATM   11  H   UNL     1      -9.009   5.549  70.651  1.00  0.00     0.000 HD 
HETATM   12  O   UNL     1      -9.104   5.605  69.707  1.00  0.00    -0.134 OA 
BRANCH  10  13
HETATM   13  C   UNL     1     -10.977   7.107  70.055  1.00  0.00    -0.262 C  
HETATM   14  H   UNL     1     -12.006   8.666  70.669  1.00  0.00     0.000 HD 
HETATM   15  O   UNL     1     -11.188   8.519  70.209  1.00  0.00    -0.248 OA 
BRANCH  13  16
HETATM   16  C   UNL     1     -10.993   6.419  71.436  1.00  0.00    -0.267 C  
HETATM   17  O   UNL     1     -11.388   7.322  72.470  1.00  0.00    -0.278 OA 
HETATM   18  H   UNL     1     -11.399   6.899  73.321  1.00  0.00     0.000 HD 
ENDBRANCH  13  16
ENDBRANCH  10  13
ENDBRANCH   7  10
ENDBRANCH   4   7
ENDBRANCH   2   4
TORSDOF 5
ENDMDL
MODEL      280
REMARK 921   NORMALIZED FREE ENERGY PREDICTED BY IDOCK:   -2.30 KCAL/MOL
REMARK 922        TOTAL FREE ENERGY PREDICTED BY IDOCK:   -3.28 KCAL/MOL
REMARK 923 INTER-LIGAND FREE ENERGY PREDICTED BY IDOCK:   -3.11 KCAL/MOL
REMARK 924 INTRA-LIGAND FREE ENERGY PREDICTED BY IDOCK:   -0.18 KCAL/MOL
REMARK 927      BINDING AFFINITY PREDICTED BY RF-SCORE:    0.00 PKD
ROOT
HETATM    1  O   UNL     1      -7.032  13.671  69.712  1.00  0.00    -0.336 OA 
HETATM    2  C   UNL     1      -6.895  12.363  69.150  1.00  0.00    -0.069 C  
HETATM    3  H   UNL     1      -6.788  13.629  70.630  1.00  0.00     0.000 HD 
ENDROOT
BRANCH   2   4
HETATM    4  C   UNL     1      -7.288  12.431  67.672  1.00  0.00    -0.132 C  
HETATM    5  H   UNL     1      -6.418  12.026  65.960  1.00  0.00     0.000 HD 
HETATM    6  O   UNL     1      -6.175  11.984  66.878  1.00  0.00    -0.153 OA 
BRANCH   4   7
HETATM    7  C   UNL     1      -8.554  11.613  67.329  1.00  0.00    -0.154 C  
HETATM    8  O   UNL     1      -9.319  11.403  68.531  1.00  0.00    -0.182 OA 
HETATM    9  H   UNL     1     -10.097  10.899  68.321  1.00  0.00     0.000 HD 
BRANCH   7  10
HETATM   10  C   UNL     1      -9.469  12.296  66.281  1.00  0.00    -0.231 C  
HETATM   11  H   UNL     1     -11.064  13.482  66.268  1.00  0.00     0.000 HD 
HETATM   12  O   UNL     1     -10.502  13.063  66.910  1.00  0.00    -0.252 OA 
BRANCH  10  13
HETATM   13  C   UNL     1     -10.103  11.290  65.304  1.00  0.00    -0.267 C  
HETATM   14  H   UNL     1      -9.525   9.669  64.353  1.00  0.00     0.000 HD 
HETATM   15  O   UNL     1      -9.134  10.289  64.957  1.00  0.00    -0.176 OA 
BRANCH  13  16
HETATM   16  C   UNL     1     -10.626  11.981  64.027  1.00  0.00    -0.377 C  
HETATM   17  O   UNL     1     -10.651  11.085  62.915  1.00  0.00    -0.777 OA 
HETATM   18  H   UNL     1     -10.973  11.509  62.129  1.00  0.00     0.000 HD 
ENDBRANCH  13  16
ENDBRANCH  10  13
ENDBRANCH   7  10
ENDBRANCH   4   7
ENDBRANCH   2   4
TORSDOF 5
ENDMDL
MODEL      281
REMARK 921   NORMALIZED FREE ENERGY PREDICTED BY IDOCK:   -2.30 KCAL/MOL
REMARK 922        TOTAL FREE ENERGY PREDICTED BY IDOCK:   -3.28 KCAL/MOL
REMARK 923 INTER-LIGAND FREE ENERGY PREDICTED BY IDOCK:   -2.51 KCAL/MOL
REMARK 924 INTRA-LIGAND FREE ENERGY PREDICTED BY IDOCK:   -0.77 KCAL/MOL
REMARK 927      BINDING AFFINITY PREDICTED BY RF-SCORE:    0.00 PKD
ROOT
HETATM    1  O   UNL     1     -12.172   6.937  72.292  1.00  0.00    -0.466 OA 
HETATM    2  C   UNL     1     -11.404   8.139  72.397  1.00  0.00    -0.391 C  
HETATM    3  H   UNL     1     -12.686   6.841  73.085  1.00  0.00     0.000 HD 
ENDROOT
BRANCH   2   4
HETATM    4  C   UNL     1     -10.576   8.294  71.118  1.00  0.00    -0.214 C  
HETATM    5  H   UNL     1     -10.240   9.725  69.819  1.00  0.00     0.000 HD 
HETATM    6  O   UNL     1     -10.753   9.629  70.612  1.00  0.00    -0.276 OA 
BRANCH   4   7
HETATM    7  C   UNL     1      -9.072   7.990  71.313  1.00  0.00    -0.139 C  
HETATM    8  O   UNL     1      -8.624   8.598  72.539  1.00  0.00    -0.364 OA 
HETATM    9  H   UNL     1      -7.700   8.411  72.659  1.00  0.00     0.000 HD 
BRANCH   7  10
HETATM   10  C   UNL     1      -8.748   6.475  71.371  1.00  0.00    -0.130 C  
HETATM   11  H   UNL     1      -9.658   4.757  70.958  1.00  0.00     0.000 HD 
HETATM   12  O   UNL     1      -9.856   5.686  70.922  1.00  0.00    -0.170 OA 
BRANCH  10  13
HETATM   13  C   UNL     1      -8.330   6.013  72.778  1.00  0.00    -0.118 C  
HETATM   14  H   UNL     1      -6.690   6.054  73.862  1.00  0.00     0.000 HD 
HETATM   15  O   UNL     1      -6.948   6.339  72.993  1.00  0.00    -0.077 OA 
BRANCH  13  16
HETATM   16  C   UNL     1      -8.550   4.499  72.975  1.00  0.00    -0.105 C  
HETATM   17  O   UNL     1      -7.930   3.736  71.939  1.00  0.00    -0.065 OA 
HETATM   18  H   UNL     1      -8.065   2.804  72.060  1.00  0.00     0.000 HD 
ENDBRANCH  13  16
ENDBRANCH  10  13
ENDBRANCH   7  10
ENDBRANCH   4   7
ENDBRANCH   2   4
TORSDOF 5
ENDMDL
MODEL      282
REMARK 921   NORMALIZED FREE ENERGY PREDICTED BY IDOCK:   -2.29 KCAL/MOL
REMARK 922        TOTAL FREE ENERGY PREDICTED BY IDOCK:   -3.28 KCAL/MOL
REMARK 923 INTER-LIGAND FREE ENERGY PREDICTED BY IDOCK:   -2.85 KCAL/MOL
REMARK 924 INTRA-LIGAND FREE ENERGY PREDICTED BY IDOCK:   -0.42 KCAL/MOL
REMARK 927      BINDING AFFINITY PREDICTED BY RF-SCORE:    0.00 PKD
ROOT
HETATM    1  O   UNL     1      -8.521   1.978  66.256  1.00  0.00    -0.091 OA 
HETATM    2  C   UNL     1      -8.267   3.260  66.838  1.00  0.00    -0.085 C  
HETATM    3  H   UNL     1      -7.686   1.552  66.097  1.00  0.00     0.000 HD 
ENDROOT
BRANCH   2   4
HETATM    4  C   UNL     1      -9.613   3.946  67.094  1.00  0.00    -0.189 C  
HETATM    5  H   UNL     1     -10.487   4.811  68.622  1.00  0.00     0.000 HD 
HETATM    6  O   UNL     1      -9.653   4.385  68.463  1.00  0.00    -0.149 OA 
BRANCH   4   7
HETATM    7  C   UNL     1      -9.895   5.131  66.142  1.00  0.00    -0.185 C  
HETATM    8  O   UNL     1     -11.200   4.964  65.555  1.00  0.00    -0.850 OA 
HETATM    9  H   UNL     1     -11.373   5.692  64.969  1.00  0.00     0.000 HD 
BRANCH   7  10
HETATM   10  C   UNL     1      -9.848   6.514  66.841  1.00  0.00    -0.164 C  
HETATM   11  H   UNL     1     -11.098   8.005  67.242  1.00  0.00     0.000 HD 
HETATM   12  O   UNL     1     -11.127   7.158  66.813  1.00  0.00    -0.254 OA 
BRANCH  10  13
HETATM   13  C   UNL     1      -8.791   7.450  66.231  1.00  0.00    -0.159 C  
HETATM   14  H   UNL     1      -6.871   7.791  66.485  1.00  0.00     0.000 HD 
HETATM   15  O   UNL     1      -7.523   7.212  66.862  1.00  0.00    -0.095 OA 
BRANCH  13  16
HETATM   16  C   UNL     1      -9.183   8.935  66.381  1.00  0.00    -0.189 C  
HETATM   17  O   UNL     1      -9.900   9.409  65.241  1.00  0.00    -0.442 OA 
HETATM   18  H   UNL     1     -10.142  10.323  65.333  1.00  0.00     0.000 HD 
ENDBRANCH  13  16
ENDBRANCH  10  13
ENDBRANCH   7  10
ENDBRANCH   4   7
ENDBRANCH   2   4
TORSDOF 5
ENDMDL
MODEL      283
REMARK 921   NORMALIZED FREE ENERGY PREDICTED BY IDOCK:   -2.29 KCAL/MOL
REMARK 922        TOTAL FREE ENERGY PREDICTED BY IDOCK:   -3.27 KCAL/MOL
REMARK 923 INTER-LIGAND FREE ENERGY PREDICTED BY IDOCK:   -3.43 KCAL/MOL
REMARK 924 INTRA-LIGAND FREE ENERGY PREDICTED BY IDOCK:    0.16 KCAL/MOL
REMARK 927      BINDING AFFINITY PREDICTED BY RF-SCORE:    0.00 PKD
ROOT
HETATM    1  O   UNL     1     -11.224  17.022  64.496  1.00  0.00    -1.091 OA 
HETATM    2  C   UNL     1     -10.693  17.403  65.768  1.00  0.00    -0.120 C  
HETATM    3  H   UNL     1     -12.071  17.439  64.389  1.00  0.00     0.000 HD 
ENDROOT
BRANCH   2   4
HETATM    4  C   UNL     1      -9.328  16.731  65.940  1.00  0.00    -0.127 C  
HETATM    5  H   UNL     1      -7.487  17.333  66.248  1.00  0.00     0.000 HD 
HETATM    6  O   UNL     1      -8.334  17.751  66.141  1.00  0.00    -0.437 OA 
BRANCH   4   7
HETATM    7  C   UNL     1      -9.285  15.704  67.096  1.00  0.00    -0.212 C  
HETATM    8  O   UNL     1      -8.883  14.423  66.573  1.00  0.00    -0.419 OA 
HETATM    9  H   UNL     1      -8.857  13.792  67.283  1.00  0.00     0.000 HD 
BRANCH   7  10
HETATM   10  C   UNL     1      -8.309  16.094  68.235  1.00  0.00    -0.171 C  
HETATM   11  H   UNL     1      -7.976  17.655  69.419  1.00  0.00     0.000 HD 
HETATM   12  O   UNL     1      -8.574  17.416  68.720  1.00  0.00    -0.275 OA 
BRANCH  10  13
HETATM   13  C   UNL     1      -6.833  15.991  67.813  1.00  0.00    -0.147 C  
HETATM   14  H   UNL     1      -5.448  14.596  67.805  1.00  0.00     0.000 HD 
HETATM   15  O   UNL     1      -6.359  14.660  68.065  1.00  0.00    -0.128 OA 
BRANCH  13  16
HETATM   16  C   UNL     1      -5.950  17.014  68.557  1.00  0.00    -0.145 C  
HETATM   17  O   UNL     1      -5.898  18.265  67.868  1.00  0.00    -0.161 OA 
HETATM   18  H   UNL     1      -5.354  18.895  68.326  1.00  0.00     0.000 HD 
ENDBRANCH  13  16
ENDBRANCH  10  13
ENDBRANCH   7  10
ENDBRANCH   4   7
ENDBRANCH   2   4
TORSDOF 5
ENDMDL
MODEL      284
REMARK 921   NORMALIZED FREE ENERGY PREDICTED BY IDOCK:   -2.29 KCAL/MOL
REMARK 922        TOTAL FREE ENERGY PREDICTED BY IDOCK:   -3.27 KCAL/MOL
REMARK 923 INTER-LIGAND FREE ENERGY PREDICTED BY IDOCK:   -2.79 KCAL/MOL
REMARK 924 INTRA-LIGAND FREE ENERGY PREDICTED BY IDOCK:   -0.48 KCAL/MOL
REMARK 927      BINDING AFFINITY PREDICTED BY RF-SCORE:    0.00 PKD
ROOT
HETATM    1  O   UNL     1     -11.381  13.121  66.499  1.00  0.00    -0.295 OA 
HETATM    2  C   UNL     1      -9.970  13.353  66.537  1.00  0.00    -0.286 C  
HETATM    3  H   UNL     1     -11.782  13.807  65.978  1.00  0.00     0.000 HD 
ENDROOT
BRANCH   2   4
HETATM    4  C   UNL     1      -9.324  12.247  67.377  1.00  0.00    -0.183 C  
HETATM    5  H   UNL     1      -8.112  12.170  68.917  1.00  0.00     0.000 HD 
HETATM    6  O   UNL     1      -8.513  12.857  68.396  1.00  0.00    -0.163 OA 
BRANCH   4   7
HETATM    7  C   UNL     1     -10.346  11.276  68.014  1.00  0.00    -0.183 C  
HETATM    8  O   UNL     1     -10.786  10.335  67.016  1.00  0.00    -0.248 OA 
HETATM    9  H   UNL     1     -11.414   9.738  67.407  1.00  0.00     0.000 HD 
BRANCH   7  10
HETATM   10  C   UNL     1      -9.780  10.483  69.218  1.00  0.00    -0.196 C  
HETATM   11  H   UNL     1      -8.283   9.226  69.582  1.00  0.00     0.000 HD 
HETATM   12  O   UNL     1      -8.631   9.713  68.844  1.00  0.00    -0.119 OA 
BRANCH  10  13
HETATM   13  C   UNL     1     -10.826   9.557  69.862  1.00  0.00    -0.246 C  
HETATM   14  H   UNL     1     -12.742   9.655  70.294  1.00  0.00     0.000 HD 
HETATM   15  O   UNL     1     -12.096  10.227  69.897  1.00  0.00    -0.206 OA 
BRANCH  13  16
HETATM   16  C   UNL     1     -10.418   9.131  71.288  1.00  0.00    -0.328 C  
HETATM   17  O   UNL     1     -11.519   9.200  72.195  1.00  0.00    -0.334 OA 
HETATM   18  H   UNL     1     -11.268   8.937  73.073  1.00  0.00     0.000 HD 
ENDBRANCH  13  16
ENDBRANCH  10  13
ENDBRANCH   7  10
ENDBRANCH   4   7
ENDBRANCH   2   4
TORSDOF 5
ENDMDL
MODEL      285
REMARK 921   NORMALIZED FREE ENERGY PREDICTED BY IDOCK:   -2.27 KCAL/MOL
REMARK 922        TOTAL FREE ENERGY PREDICTED BY IDOCK:   -3.25 KCAL/MOL
REMARK 923 INTER-LIGAND FREE ENERGY PREDICTED BY IDOCK:   -2.84 KCAL/MOL
REMARK 924 INTRA-LIGAND FREE ENERGY PREDICTED BY IDOCK:   -0.41 KCAL/MOL
REMARK 927      BINDING AFFINITY PREDICTED BY RF-SCORE:    0.00 PKD
ROOT
HETATM    1  O   UNL     1     -12.298  10.872  68.630  1.00  0.00    -0.805 OA 
HETATM    2  C   UNL     1     -11.501  11.509  67.628  1.00  0.00    -0.285 C  
HETATM    3  H   UNL     1     -12.692  11.546  69.172  1.00  0.00     0.000 HD 
ENDROOT
BRANCH   2   4
HETATM    4  C   UNL     1     -10.866  10.423  66.755  1.00  0.00    -0.116 C  
HETATM    5  H   UNL     1     -10.211  10.299  64.910  1.00  0.00     0.000 HD 
HETATM    6  O   UNL     1     -10.605  10.973  65.451  1.00  0.00    -0.258 OA 
BRANCH   4   7
HETATM    7  C   UNL     1      -9.572   9.824  67.354  1.00  0.00    -0.155 C  
HETATM    8  O   UNL     1      -9.627   8.388  67.253  1.00  0.00    -0.149 OA 
HETATM    9  H   UNL     1      -8.832   8.021  67.622  1.00  0.00     0.000 HD 
BRANCH   7  10
HETATM   10  C   UNL     1      -8.280  10.315  66.653  1.00  0.00    -0.125 C  
HETATM   11  H   UNL     1      -7.004   9.648  65.283  1.00  0.00     0.000 HD 
HETATM   12  O   UNL     1      -7.796   9.348  65.713  1.00  0.00    -0.097 OA 
BRANCH  10  13
HETATM   13  C   UNL     1      -7.161  10.661  67.650  1.00  0.00    -0.084 C  
HETATM   14  H   UNL     1      -7.053  11.264  69.519  1.00  0.00     0.000 HD 
HETATM   15  O   UNL     1      -7.744  11.050  68.903  1.00  0.00    -0.125 OA 
BRANCH  13  16
HETATM   16  C   UNL     1      -6.249  11.789  67.123  1.00  0.00    -0.147 C  
HETATM   17  O   UNL     1      -5.841  11.550  65.775  1.00  0.00    -0.495 OA 
HETATM   18  H   UNL     1      -5.281  12.244  65.449  1.00  0.00     0.000 HD 
ENDBRANCH  13  16
ENDBRANCH  10  13
ENDBRANCH   7  10
ENDBRANCH   4   7
ENDBRANCH   2   4
TORSDOF 5
ENDMDL
MODEL      286
REMARK 921   NORMALIZED FREE ENERGY PREDICTED BY IDOCK:   -2.27 KCAL/MOL
REMARK 922        TOTAL FREE ENERGY PREDICTED BY IDOCK:   -3.25 KCAL/MOL
REMARK 923 INTER-LIGAND FREE ENERGY PREDICTED BY IDOCK:   -2.95 KCAL/MOL
REMARK 924 INTRA-LIGAND FREE ENERGY PREDICTED BY IDOCK:   -0.30 KCAL/MOL
REMARK 927      BINDING AFFINITY PREDICTED BY RF-SCORE:    0.00 PKD
ROOT
HETATM    1  O   UNL     1     -12.069   8.159  70.463  1.00  0.00    -0.493 OA 
HETATM    2  C   UNL     1     -10.692   7.891  70.744  1.00  0.00    -0.223 C  
HETATM    3  H   UNL     1     -12.526   7.329  70.393  1.00  0.00     0.000 HD 
ENDROOT
BRANCH   2   4
HETATM    4  C   UNL     1      -9.955   9.229  70.857  1.00  0.00    -0.297 C  
HETATM    5  H   UNL     1      -8.096   9.799  71.117  1.00  0.00     0.000 HD 
HETATM    6  O   UNL     1      -8.553   8.969  71.047  1.00  0.00    -0.188 OA 
BRANCH   4   7
HETATM    7  C   UNL     1     -10.168  10.157  69.638  1.00  0.00    -0.242 C  
HETATM    8  O   UNL     1     -10.559  11.463  70.103  1.00  0.00    -0.225 OA 
HETATM    9  H   UNL     1     -10.690  12.034  69.354  1.00  0.00     0.000 HD 
BRANCH   7  10
HETATM   10  C   UNL     1      -8.907  10.313  68.750  1.00  0.00    -0.148 C  
HETATM   11  H   UNL     1      -7.622  11.745  68.254  1.00  0.00     0.000 HD 
HETATM   12  O   UNL     1      -8.395  11.650  68.799  1.00  0.00    -0.128 OA 
BRANCH  10  13
HETATM   13  C   UNL     1      -9.162   9.917  67.285  1.00  0.00    -0.138 C  
HETATM   14  H   UNL     1     -10.038  10.727  65.722  1.00  0.00     0.000 HD 
HETATM   15  O   UNL     1      -9.881  10.971  66.626  1.00  0.00    -0.191 OA 
BRANCH  13  16
HETATM   16  C   UNL     1      -9.950   8.595  67.175  1.00  0.00    -0.231 C  
HETATM   17  O   UNL     1      -9.786   7.988  65.893  1.00  0.00    -0.443 OA 
HETATM   18  H   UNL     1     -10.271   7.174  65.825  1.00  0.00     0.000 HD 
ENDBRANCH  13  16
ENDBRANCH  10  13
ENDBRANCH   7  10
ENDBRANCH   4   7
ENDBRANCH   2   4
TORSDOF 5
ENDMDL
MODEL      287
REMARK 921   NORMALIZED FREE ENERGY PREDICTED BY IDOCK:   -2.27 KCAL/MOL
REMARK 922        TOTAL FREE ENERGY PREDICTED BY IDOCK:   -3.24 KCAL/MOL
REMARK 923 INTER-LIGAND FREE ENERGY PREDICTED BY IDOCK:   -2.58 KCAL/MOL
REMARK 924 INTRA-LIGAND FREE ENERGY PREDICTED BY IDOCK:   -0.66 KCAL/MOL
REMARK 927      BINDING AFFINITY PREDICTED BY RF-SCORE:    0.00 PKD
ROOT
HETATM    1  O   UNL     1      -8.199   5.950  66.843  1.00  0.00    -0.105 OA 
HETATM    2  C   UNL     1      -9.264   6.860  66.552  1.00  0.00    -0.163 C  
HETATM    3  H   UNL     1      -7.748   5.749  66.031  1.00  0.00     0.000 HD 
ENDROOT
BRANCH   2   4
HETATM    4  C   UNL     1      -9.991   7.183  67.860  1.00  0.00    -0.154 C  
HETATM    5  H   UNL     1     -11.033   6.175  69.182  1.00  0.00     0.000 HD 
HETATM    6  O   UNL     1     -10.581   5.974  68.370  1.00  0.00    -0.209 OA 
BRANCH   4   7
HETATM    7  C   UNL     1      -9.082   7.830  68.931  1.00  0.00    -0.141 C  
HETATM    8  O   UNL     1      -7.992   8.508  68.277  1.00  0.00    -0.111 OA 
HETATM    9  H   UNL     1      -7.433   8.905  68.935  1.00  0.00     0.000 HD 
BRANCH   7  10
HETATM   10  C   UNL     1      -9.819   8.850  69.836  1.00  0.00    -0.182 C  
HETATM   11  H   UNL     1     -11.088   8.814  71.365  1.00  0.00     0.000 HD 
HETATM   12  O   UNL     1     -10.636   8.189  70.810  1.00  0.00    -0.208 OA 
BRANCH  10  13
HETATM   13  C   UNL     1     -10.680   9.840  69.034  1.00  0.00    -0.217 C  
HETATM   14  H   UNL     1     -10.356  11.324  67.785  1.00  0.00     0.000 HD 
HETATM   15  O   UNL     1      -9.824  10.712  68.281  1.00  0.00    -0.155 OA 
BRANCH  13  16
HETATM   16  C   UNL     1     -11.604  10.671  69.948  1.00  0.00    -0.316 C  
HETATM   17  O   UNL     1     -12.983  10.443  69.651  1.00  0.00    -0.616 OA 
HETATM   18  H   UNL     1     -13.552  10.954  70.214  1.00  0.00     0.000 HD 
ENDBRANCH  13  16
ENDBRANCH  10  13
ENDBRANCH   7  10
ENDBRANCH   4   7
ENDBRANCH   2   4
TORSDOF 5
ENDMDL
MODEL      288
REMARK 921   NORMALIZED FREE ENERGY PREDICTED BY IDOCK:   -2.26 KCAL/MOL
REMARK 922        TOTAL FREE ENERGY PREDICTED BY IDOCK:   -3.24 KCAL/MOL
REMARK 923 INTER-LIGAND FREE ENERGY PREDICTED BY IDOCK:   -2.84 KCAL/MOL
REMARK 924 INTRA-LIGAND FREE ENERGY PREDICTED BY IDOCK:   -0.40 KCAL/MOL
REMARK 927      BINDING AFFINITY PREDICTED BY RF-SCORE:    0.00 PKD
ROOT
HETATM    1  O   UNL     1     -12.083   6.836  69.958  1.00  0.00    -0.650 OA 
HETATM    2  C   UNL     1     -10.753   7.350  69.846  1.00  0.00    -0.243 C  
HETATM    3  H   UNL     1     -12.297   6.762  70.881  1.00  0.00     0.000 HD 
ENDROOT
BRANCH   2   4
HETATM    4  C   UNL     1     -10.408   7.469  68.358  1.00  0.00    -0.195 C  
HETATM    5  H   UNL     1      -8.927   8.213  67.309  1.00  0.00     0.000 HD 
HETATM    6  O   UNL     1      -9.141   8.139  68.231  1.00  0.00    -0.136 OA 
BRANCH   4   7
HETATM    7  C   UNL     1     -10.372   6.111  67.620  1.00  0.00    -0.201 C  
HETATM    8  O   UNL     1     -11.359   6.118  66.571  1.00  0.00    -0.745 OA 
HETATM    9  H   UNL     1     -11.338   5.284  66.118  1.00  0.00     0.000 HD 
BRANCH   7  10
HETATM   10  C   UNL     1      -8.994   5.782  66.992  1.00  0.00    -0.114 C  
HETATM   11  H   UNL     1      -8.073   6.033  65.249  1.00  0.00     0.000 HD 
HETATM   12  O   UNL     1      -8.917   6.234  65.635  1.00  0.00    -0.123 OA 
BRANCH  10  13
HETATM   13  C   UNL     1      -8.659   4.282  67.050  1.00  0.00    -0.104 C  
HETATM   14  H   UNL     1      -9.394   2.627  66.284  1.00  0.00     0.000 HD 
HETATM   15  O   UNL     1      -9.601   3.553  66.248  1.00  0.00    -0.171 OA 
BRANCH  13  16
HETATM   16  C   UNL     1      -8.675   3.745  68.496  1.00  0.00    -0.102 C  
HETATM   17  O   UNL     1      -7.627   4.316  69.283  1.00  0.00    -0.054 OA 
HETATM   18  H   UNL     1      -7.637   3.986  70.173  1.00  0.00     0.000 HD 
ENDBRANCH  13  16
ENDBRANCH  10  13
ENDBRANCH   7  10
ENDBRANCH   4   7
ENDBRANCH   2   4
TORSDOF 5
ENDMDL
MODEL      289
REMARK 921   NORMALIZED FREE ENERGY PREDICTED BY IDOCK:   -2.23 KCAL/MOL
REMARK 922        TOTAL FREE ENERGY PREDICTED BY IDOCK:   -3.20 KCAL/MOL
REMARK 923 INTER-LIGAND FREE ENERGY PREDICTED BY IDOCK:   -2.93 KCAL/MOL
REMARK 924 INTRA-LIGAND FREE ENERGY PREDICTED BY IDOCK:   -0.27 KCAL/MOL
REMARK 927      BINDING AFFINITY PREDICTED BY RF-SCORE:    0.00 PKD
ROOT
HETATM    1  O   UNL     1     -11.646   6.591  68.095  1.00  0.00    -0.570 OA 
HETATM    2  C   UNL     1     -10.413   7.282  68.311  1.00  0.00    -0.199 C  
HETATM    3  H   UNL     1     -12.201   7.134  67.547  1.00  0.00     0.000 HD 
ENDROOT
BRANCH   2   4
HETATM    4  C   UNL     1      -9.519   6.405  69.193  1.00  0.00    -0.134 C  
HETATM    5  H   UNL     1      -7.673   6.485  69.852  1.00  0.00     0.000 HD 
HETATM    6  O   UNL     1      -8.227   7.029  69.305  1.00  0.00    -0.122 OA 
BRANCH   4   7
HETATM    7  C   UNL     1     -10.108   6.137  70.598  1.00  0.00    -0.193 C  
HETATM    8  O   UNL     1     -10.331   4.722  70.753  1.00  0.00    -0.203 OA 
HETATM    9  H   UNL     1     -10.693   4.557  71.615  1.00  0.00     0.000 HD 
BRANCH   7  10
HETATM   10  C   UNL     1      -9.195   6.617  71.755  1.00  0.00    -0.148 C  
HETATM   11  H   UNL     1      -8.406   5.865  73.417  1.00  0.00     0.000 HD 
HETATM   12  O   UNL     1      -8.965   5.571  72.707  1.00  0.00    -0.123 OA 
BRANCH  10  13
HETATM   13  C   UNL     1      -9.758   7.852  72.479  1.00  0.00    -0.227 C  
HETATM   14  H   UNL     1      -9.547   8.686  74.247  1.00  0.00     0.000 HD 
HETATM   15  O   UNL     1      -9.200   7.923  73.800  1.00  0.00    -0.281 OA 
BRANCH  13  16
HETATM   16  C   UNL     1     -11.298   7.819  72.560  1.00  0.00    -0.374 C  
HETATM   17  O   UNL     1     -11.874   9.061  72.152  1.00  0.00    -0.358 OA 
HETATM   18  H   UNL     1     -12.823   9.041  72.201  1.00  0.00     0.000 HD 
ENDBRANCH  13  16
ENDBRANCH  10  13
ENDBRANCH   7  10
ENDBRANCH   4   7
ENDBRANCH   2   4
TORSDOF 5
ENDMDL
MODEL      290
REMARK 921   NORMALIZED FREE ENERGY PREDICTED BY IDOCK:   -2.23 KCAL/MOL
REMARK 922        TOTAL FREE ENERGY PREDICTED BY IDOCK:   -3.19 KCAL/MOL
REMARK 923 INTER-LIGAND FREE ENERGY PREDICTED BY IDOCK:   -2.94 KCAL/MOL
REMARK 924 INTRA-LIGAND FREE ENERGY PREDICTED BY IDOCK:   -0.25 KCAL/MOL
REMARK 927      BINDING AFFINITY PREDICTED BY RF-SCORE:    0.00 PKD
ROOT
HETATM    1  O   UNL     1     -12.269  10.777  68.515  1.00  0.00    -0.824 OA 
HETATM    2  C   UNL     1     -11.568  11.887  67.948  1.00  0.00    -0.323 C  
HETATM    3  H   UNL     1     -12.620  11.044  69.357  1.00  0.00     0.000 HD 
ENDROOT
BRANCH   2   4
HETATM    4  C   UNL     1     -11.001  11.456  66.592  1.00  0.00    -0.285 C  
HETATM    5  H   UNL     1     -10.112  12.345  65.087  1.00  0.00     0.000 HD 
HETATM    6  O   UNL     1     -10.463  12.613  65.928  1.00  0.00    -0.264 OA 
BRANCH   4   7
HETATM    7  C   UNL     1      -9.927  10.348  66.694  1.00  0.00    -0.210 C  
HETATM    8  O   UNL     1     -10.237   9.303  65.752  1.00  0.00    -0.344 OA 
HETATM    9  H   UNL     1      -9.577   8.622  65.814  1.00  0.00     0.000 HD 
BRANCH   7  10
HETATM   10  C   UNL     1      -8.489  10.851  66.409  1.00  0.00    -0.163 C  
HETATM   11  H   UNL     1      -7.152  10.739  64.942  1.00  0.00     0.000 HD 
HETATM   12  O   UNL     1      -8.034  10.431  65.117  1.00  0.00    -0.150 OA 
BRANCH  10  13
HETATM   13  C   UNL     1      -7.480  10.396  67.478  1.00  0.00    -0.093 C  
HETATM   14  H   UNL     1      -5.610   9.790  67.507  1.00  0.00     0.000 HD 
HETATM   15  O   UNL     1      -6.232  10.071  66.846  1.00  0.00    -0.061 OA 
BRANCH  13  16
HETATM   16  C   UNL     1      -7.997   9.181  68.277  1.00  0.00    -0.103 C  
HETATM   17  O   UNL     1      -7.809   7.960  67.560  1.00  0.00    -0.117 OA 
HETATM   18  H   UNL     1      -8.127   7.212  68.051  1.00  0.00     0.000 HD 
ENDBRANCH  13  16
ENDBRANCH  10  13
ENDBRANCH   7  10
ENDBRANCH   4   7
ENDBRANCH   2   4
TORSDOF 5
ENDMDL
MODEL      291
REMARK 921   NORMALIZED FREE ENERGY PREDICTED BY IDOCK:   -2.22 KCAL/MOL
REMARK 922        TOTAL FREE ENERGY PREDICTED BY IDOCK:   -3.19 KCAL/MOL
REMARK 923 INTER-LIGAND FREE ENERGY PREDICTED BY IDOCK:   -2.48 KCAL/MOL
REMARK 924 INTRA-LIGAND FREE ENERGY PREDICTED BY IDOCK:   -0.70 KCAL/MOL
REMARK 927      BINDING AFFINITY PREDICTED BY RF-SCORE:    0.00 PKD
ROOT
HETATM    1  O   UNL     1      -8.511   5.998  69.995  1.00  0.00    -0.126 OA 
HETATM    2  C   UNL     1      -8.696   6.343  71.371  1.00  0.00    -0.131 C  
HETATM    3  H   UNL     1      -8.835   5.114  69.863  1.00  0.00     0.000 HD 
ENDROOT
BRANCH   2   4
HETATM    4  C   UNL     1      -8.174   7.767  71.583  1.00  0.00    -0.110 C  
HETATM    5  H   UNL     1      -6.583   8.782  71.045  1.00  0.00     0.000 HD 
HETATM    6  O   UNL     1      -6.907   7.899  70.914  1.00  0.00    -0.041 OA 
BRANCH   4   7
HETATM    7  C   UNL     1      -9.152   8.864  71.102  1.00  0.00    -0.249 C  
HETATM    8  O   UNL     1      -8.802   9.251  69.759  1.00  0.00    -0.142 OA 
HETATM    9  H   UNL     1      -9.402   9.925  69.463  1.00  0.00     0.000 HD 
BRANCH   7  10
HETATM   10  C   UNL     1     -10.636   8.419  71.111  1.00  0.00    -0.215 C  
HETATM   11  H   UNL     1     -11.961   7.683  69.825  1.00  0.00     0.000 HD 
HETATM   12  O   UNL     1     -11.051   7.956  69.820  1.00  0.00    -0.196 OA 
BRANCH  10  13
HETATM   13  C   UNL     1     -11.586   9.534  71.583  1.00  0.00    -0.381 C  
HETATM   14  H   UNL     1     -13.200   9.653  72.699  1.00  0.00     0.000 HD 
HETATM   15  O   UNL     1     -12.614   8.964  72.407  1.00  0.00    -0.382 OA 
BRANCH  13  16
HETATM   16  C   UNL     1     -12.221  10.289  70.397  1.00  0.00    -0.261 C  
HETATM   17  O   UNL     1     -11.236  10.970  69.617  1.00  0.00    -0.248 OA 
HETATM   18  H   UNL     1     -11.627  11.435  68.887  1.00  0.00     0.000 HD 
ENDBRANCH  13  16
ENDBRANCH  10  13
ENDBRANCH   7  10
ENDBRANCH   4   7
ENDBRANCH   2   4
TORSDOF 5
ENDMDL
MODEL      292
REMARK 921   NORMALIZED FREE ENERGY PREDICTED BY IDOCK:   -2.20 KCAL/MOL
REMARK 922        TOTAL FREE ENERGY PREDICTED BY IDOCK:   -3.15 KCAL/MOL
REMARK 923 INTER-LIGAND FREE ENERGY PREDICTED BY IDOCK:   -2.59 KCAL/MOL
REMARK 924 INTRA-LIGAND FREE ENERGY PREDICTED BY IDOCK:   -0.56 KCAL/MOL
REMARK 927      BINDING AFFINITY PREDICTED BY RF-SCORE:    0.00 PKD
ROOT
HETATM    1  O   UNL     1     -12.453   6.598  70.379  1.00  0.00    -0.500 OA 
HETATM    2  C   UNL     1     -11.219   7.258  70.676  1.00  0.00    -0.274 C  
HETATM    3  H   UNL     1     -12.889   6.397  71.199  1.00  0.00     0.000 HD 
ENDROOT
BRANCH   2   4
HETATM    4  C   UNL     1     -10.517   7.581  69.354  1.00  0.00    -0.222 C  
HETATM    5  H   UNL     1      -9.174   8.876  68.749  1.00  0.00     0.000 HD 
HETATM    6  O   UNL     1      -9.610   8.676  69.570  1.00  0.00    -0.167 OA 
BRANCH   4   7
HETATM    7  C   UNL     1      -9.767   6.376  68.741  1.00  0.00    -0.128 C  
HETATM    8  O   UNL     1     -10.449   5.160  69.106  1.00  0.00    -0.198 OA 
HETATM    9  H   UNL     1      -9.988   4.420  68.730  1.00  0.00     0.000 HD 
BRANCH   7  10
HETATM   10  C   UNL     1      -9.662   6.431  67.195  1.00  0.00    -0.141 C  
HETATM   11  H   UNL     1     -10.694   5.783  65.625  1.00  0.00     0.000 HD 
HETATM   12  O   UNL     1     -10.758   5.750  66.573  1.00  0.00    -0.276 OA 
BRANCH  10  13
HETATM   13  C   UNL     1      -8.337   5.853  66.670  1.00  0.00    -0.110 C  
HETATM   14  H   UNL     1      -6.435   5.987  67.149  1.00  0.00     0.000 HD 
HETATM   15  O   UNL     1      -7.253   6.344  67.473  1.00  0.00    -0.081 OA 
BRANCH  13  16
HETATM   16  C   UNL     1      -8.099   6.213  65.189  1.00  0.00    -0.133 C  
HETATM   17  O   UNL     1      -9.032   5.556  64.330  1.00  0.00    -0.360 OA 
HETATM   18  H   UNL     1      -8.886   5.778  63.418  1.00  0.00     0.000 HD 
ENDBRANCH  13  16
ENDBRANCH  10  13
ENDBRANCH   7  10
ENDBRANCH   4   7
ENDBRANCH   2   4
TORSDOF 5
ENDMDL
MODEL      293
REMARK 921   NORMALIZED FREE ENERGY PREDICTED BY IDOCK:   -2.17 KCAL/MOL
REMARK 922        TOTAL FREE ENERGY PREDICTED BY IDOCK:   -3.11 KCAL/MOL
REMARK 923 INTER-LIGAND FREE ENERGY PREDICTED BY IDOCK:   -2.87 KCAL/MOL
REMARK 924 INTRA-LIGAND FREE ENERGY PREDICTED BY IDOCK:   -0.24 KCAL/MOL
REMARK 927      BINDING AFFINITY PREDICTED BY RF-SCORE:    0.00 PKD
ROOT
HETATM    1  O   UNL     1      -8.562   6.838  70.049  1.00  0.00    -0.138 OA 
HETATM    2  C   UNL     1      -9.146   7.864  70.857  1.00  0.00    -0.151 C  
HETATM    3  H   UNL     1      -7.804   6.493  70.507  1.00  0.00     0.000 HD 
ENDROOT
BRANCH   2   4
HETATM    4  C   UNL     1     -10.367   8.421  70.119  1.00  0.00    -0.211 C  
HETATM    5  H   UNL     1     -11.708   9.812  70.459  1.00  0.00     0.000 HD 
HETATM    6  O   UNL     1     -10.951   9.466  70.917  1.00  0.00    -0.265 OA 
BRANCH   4   7
HETATM    7  C   UNL     1     -10.046   8.946  68.700  1.00  0.00    -0.188 C  
HETATM    8  O   UNL     1     -10.947   8.335  67.757  1.00  0.00    -0.494 OA 
HETATM    9  H   UNL     1     -10.750   8.657  66.885  1.00  0.00     0.000 HD 
BRANCH   7  10
HETATM   10  C   UNL     1     -10.168  10.485  68.565  1.00  0.00    -0.174 C  
HETATM   11  H   UNL     1     -11.404  11.797  67.728  1.00  0.00     0.000 HD 
HETATM   12  O   UNL     1     -11.329  10.853  67.810  1.00  0.00    -0.340 OA 
BRANCH  10  13
HETATM   13  C   UNL     1      -8.921  11.124  67.930  1.00  0.00    -0.143 C  
HETATM   14  H   UNL     1      -8.012  12.866  68.016  1.00  0.00     0.000 HD 
HETATM   15  O   UNL     1      -8.782  12.471  68.408  1.00  0.00    -0.177 OA 
BRANCH  13  16
HETATM   16  C   UNL     1      -8.995  11.119  66.389  1.00  0.00    -0.182 C  
HETATM   17  O   UNL     1      -8.901  12.440  65.852  1.00  0.00    -0.409 OA 
HETATM   18  H   UNL     1      -8.946  12.437  64.903  1.00  0.00     0.000 HD 
ENDBRANCH  13  16
ENDBRANCH  10  13
ENDBRANCH   7  10
ENDBRANCH   4   7
ENDBRANCH   2   4
TORSDOF 5
ENDMDL
MODEL      294
REMARK 921   NORMALIZED FREE ENERGY PREDICTED BY IDOCK:   -2.16 KCAL/MOL
REMARK 922        TOTAL FREE ENERGY PREDICTED BY IDOCK:   -3.10 KCAL/MOL
REMARK 923 INTER-LIGAND FREE ENERGY PREDICTED BY IDOCK:   -2.26 KCAL/MOL
REMARK 924 INTRA-LIGAND FREE ENERGY PREDICTED BY IDOCK:   -0.84 KCAL/MOL
REMARK 927      BINDING AFFINITY PREDICTED BY RF-SCORE:    0.00 PKD
ROOT
HETATM    1  O   UNL     1      -9.664   3.527  73.292  1.00  0.00    -0.107 OA 
HETATM    2  C   UNL     1      -9.737   4.607  74.228  1.00  0.00    -0.141 C  
HETATM    3  H   UNL     1      -9.563   2.717  73.778  1.00  0.00     0.000 HD 
ENDROOT
BRANCH   2   4
HETATM    4  C   UNL     1      -9.899   5.912  73.444  1.00  0.00    -0.163 C  
HETATM    5  H   UNL     1     -10.858   7.604  73.702  1.00  0.00     0.000 HD 
HETATM    6  O   UNL     1     -10.758   6.794  74.188  1.00  0.00    -0.212 OA 
BRANCH   4   7
HETATM    7  C   UNL     1      -8.558   6.613  73.125  1.00  0.00    -0.120 C  
HETATM    8  O   UNL     1      -7.541   5.614  72.921  1.00  0.00    -0.095 OA 
HETATM    9  H   UNL     1      -6.717   6.045  72.725  1.00  0.00     0.000 HD 
BRANCH   7  10
HETATM   10  C   UNL     1      -8.614   7.517  71.867  1.00  0.00    -0.107 C  
HETATM   11  H   UNL     1      -8.507   9.455  71.439  1.00  0.00     0.000 HD 
HETATM   12  O   UNL     1      -8.472   8.900  72.210  1.00  0.00    -0.391 OA 
BRANCH  10  13
HETATM   13  C   UNL     1      -9.907   7.322  71.055  1.00  0.00    -0.183 C  
HETATM   14  H   UNL     1     -10.370   6.830  69.209  1.00  0.00     0.000 HD 
HETATM   15  O   UNL     1      -9.572   6.950  69.710  1.00  0.00    -0.155 OA 
BRANCH  13  16
HETATM   16  C   UNL     1     -10.778   8.596  71.047  1.00  0.00    -0.228 C  
HETATM   17  O   UNL     1     -11.470   8.769  72.285  1.00  0.00    -0.362 OA 
HETATM   18  H   UNL     1     -12.006   9.553  72.280  1.00  0.00     0.000 HD 
ENDBRANCH  13  16
ENDBRANCH  10  13
ENDBRANCH   7  10
ENDBRANCH   4   7
ENDBRANCH   2   4
TORSDOF 5
ENDMDL
MODEL      295
REMARK 921   NORMALIZED FREE ENERGY PREDICTED BY IDOCK:   -2.16 KCAL/MOL
REMARK 922        TOTAL FREE ENERGY PREDICTED BY IDOCK:   -3.10 KCAL/MOL
REMARK 923 INTER-LIGAND FREE ENERGY PREDICTED BY IDOCK:   -2.70 KCAL/MOL
REMARK 924 INTRA-LIGAND FREE ENERGY PREDICTED BY IDOCK:   -0.40 KCAL/MOL
REMARK 927      BINDING AFFINITY PREDICTED BY RF-SCORE:    0.00 PKD
ROOT
HETATM    1  O   UNL     1      -5.283  11.172  64.019  1.00  0.00    -0.474 OA 
HETATM    2  C   UNL     1      -5.647  10.026  64.793  1.00  0.00    -0.097 C  
HETATM    3  H   UNL     1      -4.397  11.047  63.699  1.00  0.00     0.000 HD 
ENDROOT
BRANCH   2   4
HETATM    4  C   UNL     1      -7.074  10.228  65.309  1.00  0.00    -0.130 C  
HETATM    5  H   UNL     1      -8.574   9.064  65.805  1.00  0.00     0.000 HD 
HETATM    6  O   UNL     1      -7.688   8.939  65.484  1.00  0.00    -0.085 OA 
BRANCH   4   7
HETATM    7  C   UNL     1      -7.148  11.040  66.623  1.00  0.00    -0.139 C  
HETATM    8  O   UNL     1      -6.315  12.209  66.502  1.00  0.00    -0.464 OA 
HETATM    9  H   UNL     1      -6.360  12.707  67.310  1.00  0.00     0.000 HD 
BRANCH   7  10
HETATM   10  C   UNL     1      -8.583  11.499  66.989  1.00  0.00    -0.161 C  
HETATM   11  H   UNL     1      -9.604  13.201  67.091  1.00  0.00     0.000 HD 
HETATM   12  O   UNL     1      -8.724  12.919  66.867  1.00  0.00    -0.209 OA 
BRANCH  10  13
HETATM   13  C   UNL     1      -9.002  11.063  68.404  1.00  0.00    -0.158 C  
HETATM   14  H   UNL     1      -8.823   9.447  69.509  1.00  0.00     0.000 HD 
HETATM   15  O   UNL     1      -8.564   9.715  68.635  1.00  0.00    -0.116 OA 
BRANCH  13  16
HETATM   16  C   UNL     1     -10.527  11.164  68.609  1.00  0.00    -0.197 C  
HETATM   17  O   UNL     1     -10.877  11.134  69.993  1.00  0.00    -0.467 OA 
HETATM   18  H   UNL     1     -11.816  11.196  70.120  1.00  0.00     0.000 HD 
ENDBRANCH  13  16
ENDBRANCH  10  13
ENDBRANCH   7  10
ENDBRANCH   4   7
ENDBRANCH   2   4
TORSDOF 5
ENDMDL
MODEL      296
REMARK 921   NORMALIZED FREE ENERGY PREDICTED BY IDOCK:   -2.15 KCAL/MOL
REMARK 922        TOTAL FREE ENERGY PREDICTED BY IDOCK:   -3.10 KCAL/MOL
REMARK 923 INTER-LIGAND FREE ENERGY PREDICTED BY IDOCK:   -2.27 KCAL/MOL
REMARK 924 INTRA-LIGAND FREE ENERGY PREDICTED BY IDOCK:   -0.82 KCAL/MOL
REMARK 927      BINDING AFFINITY PREDICTED BY RF-SCORE:    0.00 PKD
ROOT
HETATM    1  O   UNL     1      -8.377   6.671  67.561  1.00  0.00    -0.120 OA 
HETATM    2  C   UNL     1      -9.385   5.795  68.073  1.00  0.00    -0.109 C  
HETATM    3  H   UNL     1      -8.568   7.553  67.859  1.00  0.00     0.000 HD 
ENDROOT
BRANCH   2   4
HETATM    4  C   UNL     1      -9.076   4.374  67.593  1.00  0.00    -0.126 C  
HETATM    5  H   UNL     1      -9.451   2.557  68.230  1.00  0.00     0.000 HD 
HETATM    6  O   UNL     1      -9.643   3.439  68.528  1.00  0.00    -0.164 OA 
BRANCH   4   7
HETATM    7  C   UNL     1      -9.585   4.079  66.163  1.00  0.00    -0.197 C  
HETATM    8  O   UNL     1     -10.444   5.154  65.737  1.00  0.00    -0.434 OA 
HETATM    9  H   UNL     1     -10.757   4.972  64.858  1.00  0.00     0.000 HD 
BRANCH   7  10
HETATM   10  C   UNL     1      -8.449   3.918  65.121  1.00  0.00    -0.112 C  
HETATM   11  H   UNL     1      -7.059   5.056  64.271  1.00  0.00     0.000 HD 
HETATM   12  O   UNL     1      -7.755   5.154  64.910  1.00  0.00    -0.080 OA 
BRANCH  10  13
HETATM   13  C   UNL     1      -8.955   3.380  63.772  1.00  0.00    -0.093 C  
HETATM   14  H   UNL     1      -9.822   4.129  62.173  1.00  0.00     0.000 HD 
HETATM   15  O   UNL     1      -9.510   4.461  63.007  1.00  0.00    -0.141 OA 
BRANCH  13  16
HETATM   16  C   UNL     1     -10.011   2.270  63.954  1.00  0.00    -0.125 C  
HETATM   17  O   UNL     1     -11.333   2.755  63.719  1.00  0.00    -0.573 OA 
HETATM   18  H   UNL     1     -11.983   2.072  63.832  1.00  0.00     0.000 HD 
ENDBRANCH  13  16
ENDBRANCH  10  13
ENDBRANCH   7  10
ENDBRANCH   4   7
ENDBRANCH   2   4
TORSDOF 5
ENDMDL
MODEL      297
REMARK 921   NORMALIZED FREE ENERGY PREDICTED BY IDOCK:   -2.15 KCAL/MOL
REMARK 922        TOTAL FREE ENERGY PREDICTED BY IDOCK:   -3.09 KCAL/MOL
REMARK 923 INTER-LIGAND FREE ENERGY PREDICTED BY IDOCK:   -2.55 KCAL/MOL
REMARK 924 INTRA-LIGAND FREE ENERGY PREDICTED BY IDOCK:   -0.54 KCAL/MOL
REMARK 927      BINDING AFFINITY PREDICTED BY RF-SCORE:    0.00 PKD
ROOT
HETATM    1  O   UNL     1      -7.596   8.831  74.300  1.00  0.00    -0.418 OA 
HETATM    2  C   UNL     1      -8.565   7.983  73.675  1.00  0.00    -0.260 C  
HETATM    3  H   UNL     1      -7.888   9.015  75.185  1.00  0.00     0.000 HD 
ENDROOT
BRANCH   2   4
HETATM    4  C   UNL     1      -8.095   7.687  72.248  1.00  0.00    -0.107 C  
HETATM    5  H   UNL     1      -7.621   6.082  71.223  1.00  0.00     0.000 HD 
HETATM    6  O   UNL     1      -7.912   6.267  72.109  1.00  0.00    -0.107 OA 
BRANCH   4   7
HETATM    7  C   UNL     1      -9.057   8.213  71.157  1.00  0.00    -0.154 C  
HETATM    8  O   UNL     1      -8.520   9.430  70.603  1.00  0.00    -0.205 OA 
HETATM    9  H   UNL     1      -9.111   9.753  69.933  1.00  0.00     0.000 HD 
BRANCH   7  10
HETATM   10  C   UNL     1      -9.291   7.210  69.999  1.00  0.00    -0.154 C  
HETATM   11  H   UNL     1      -8.362   6.636  68.339  1.00  0.00     0.000 HD 
HETATM   12  O   UNL     1      -8.220   7.251  69.049  1.00  0.00    -0.122 OA 
BRANCH  10  13
HETATM   13  C   UNL     1     -10.627   7.444  69.274  1.00  0.00    -0.213 C  
HETATM   14  H   UNL     1     -12.241   6.391  68.884  1.00  0.00     0.000 HD 
HETATM   15  O   UNL     1     -11.416   6.246  69.332  1.00  0.00    -0.427 OA 
BRANCH  13  16
HETATM   16  C   UNL     1     -10.417   7.864  67.804  1.00  0.00    -0.212 C  
HETATM   17  O   UNL     1      -9.954   9.212  67.701  1.00  0.00    -0.172 OA 
HETATM   18  H   UNL     1      -9.825   9.470  66.797  1.00  0.00     0.000 HD 
ENDBRANCH  13  16
ENDBRANCH  10  13
ENDBRANCH   7  10
ENDBRANCH   4   7
ENDBRANCH   2   4
TORSDOF 5
ENDMDL
MODEL      298
REMARK 921   NORMALIZED FREE ENERGY PREDICTED BY IDOCK:   -2.15 KCAL/MOL
REMARK 922        TOTAL FREE ENERGY PREDICTED BY IDOCK:   -3.09 KCAL/MOL
REMARK 923 INTER-LIGAND FREE ENERGY PREDICTED BY IDOCK:   -2.52 KCAL/MOL
REMARK 924 INTRA-LIGAND FREE ENERGY PREDICTED BY IDOCK:   -0.56 KCAL/MOL
REMARK 927      BINDING AFFINITY PREDICTED BY RF-SCORE:    0.00 PKD
ROOT
HETATM    1  O   UNL     1     -10.527   4.292  62.642  1.00  0.00    -0.362 OA 
HETATM    2  C   UNL     1     -10.713   3.807  63.975  1.00  0.00    -0.242 C  
HETATM    3  H   UNL     1     -11.376   4.534  62.291  1.00  0.00     0.000 HD 
ENDROOT
BRANCH   2   4
HETATM    4  C   UNL     1      -9.344   3.417  64.540  1.00  0.00    -0.143 C  
HETATM    5  H   UNL     1      -7.759   2.472  63.872  1.00  0.00     0.000 HD 
HETATM    6  O   UNL     1      -8.608   2.714  63.522  1.00  0.00    -0.085 OA 
BRANCH   4   7
HETATM    7  C   UNL     1      -8.523   4.619  65.061  1.00  0.00    -0.133 C  
HETATM    8  O   UNL     1      -8.881   5.795  64.310  1.00  0.00    -0.355 OA 
HETATM    9  H   UNL     1      -8.377   6.534  64.630  1.00  0.00     0.000 HD 
BRANCH   7  10
HETATM   10  C   UNL     1      -8.744   4.914  66.566  1.00  0.00    -0.112 C  
HETATM   11  H   UNL     1      -9.746   4.125  68.091  1.00  0.00     0.000 HD 
HETATM   12  O   UNL     1      -9.610   3.945  67.168  1.00  0.00    -0.196 OA 
BRANCH  10  13
HETATM   13  C   UNL     1      -9.305   6.325  66.817  1.00  0.00    -0.142 C  
HETATM   14  H   UNL     1      -8.606   8.163  66.788  1.00  0.00     0.000 HD 
HETATM   15  O   UNL     1      -8.259   7.292  66.634  1.00  0.00    -0.113 OA 
BRANCH  13  16
HETATM   16  C   UNL     1      -9.906   6.462  68.231  1.00  0.00    -0.128 C  
HETATM   17  O   UNL     1     -11.272   6.877  68.186  1.00  0.00    -0.513 OA 
HETATM   18  H   UNL     1     -11.643   6.961  69.056  1.00  0.00     0.000 HD 
ENDBRANCH  13  16
ENDBRANCH  10  13
ENDBRANCH   7  10
ENDBRANCH   4   7
ENDBRANCH   2   4
TORSDOF 5
ENDMDL
MODEL      299
REMARK 921   NORMALIZED FREE ENERGY PREDICTED BY IDOCK:   -2.14 KCAL/MOL
REMARK 922        TOTAL FREE ENERGY PREDICTED BY IDOCK:   -3.07 KCAL/MOL
REMARK 923 INTER-LIGAND FREE ENERGY PREDICTED BY IDOCK:   -2.63 KCAL/MOL
REMARK 924 INTRA-LIGAND FREE ENERGY PREDICTED BY IDOCK:   -0.44 KCAL/MOL
REMARK 927      BINDING AFFINITY PREDICTED BY RF-SCORE:    0.00 PKD
ROOT
HETATM    1  O   UNL     1     -12.953   6.933  70.409  1.00  0.00    -0.464 OA 
HETATM    2  C   UNL     1     -12.280   7.768  71.356  1.00  0.00    -0.319 C  
HETATM    3  H   UNL     1     -13.400   6.243  70.884  1.00  0.00     0.000 HD 
ENDROOT
BRANCH   2   4
HETATM    4  C   UNL     1     -11.559   8.881  70.590  1.00  0.00    -0.215 C  
HETATM    5  H   UNL     1     -10.837  10.653  71.023  1.00  0.00     0.000 HD 
HETATM    6  O   UNL     1     -11.284   9.962  71.498  1.00  0.00    -0.322 OA 
BRANCH   4   7
HETATM    7  C   UNL     1     -10.255   8.414  69.902  1.00  0.00    -0.201 C  
HETATM    8  O   UNL     1     -10.155   6.981  70.005  1.00  0.00    -0.184 OA 
HETATM    9  H   UNL     1      -9.353   6.694  69.582  1.00  0.00     0.000 HD 
BRANCH   7  10
HETATM   10  C   UNL     1     -10.172   8.803  68.404  1.00  0.00    -0.196 C  
HETATM   11  H   UNL     1     -10.142   7.882  66.643  1.00  0.00     0.000 HD 
HETATM   12  O   UNL     1     -10.193   7.644  67.561  1.00  0.00    -0.187 OA 
BRANCH  10  13
HETATM   13  C   UNL     1      -8.927   9.647  68.080  1.00  0.00    -0.122 C  
HETATM   14  H   UNL     1      -7.895  11.065  68.969  1.00  0.00     0.000 HD 
HETATM   15  O   UNL     1      -8.664  10.544  69.169  1.00  0.00    -0.156 OA 
BRANCH  13  16
HETATM   16  C   UNL     1      -9.098  10.446  66.771  1.00  0.00    -0.143 C  
HETATM   17  O   UNL     1      -8.294   9.912  65.718  1.00  0.00    -0.122 OA 
HETATM   18  H   UNL     1      -8.399  10.403  64.912  1.00  0.00     0.000 HD 
ENDBRANCH  13  16
ENDBRANCH  10  13
ENDBRANCH   7  10
ENDBRANCH   4   7
ENDBRANCH   2   4
TORSDOF 5
ENDMDL
MODEL      300
REMARK 921   NORMALIZED FREE ENERGY PREDICTED BY IDOCK:   -2.11 KCAL/MOL
REMARK 922        TOTAL FREE ENERGY PREDICTED BY IDOCK:   -3.04 KCAL/MOL
REMARK 923 INTER-LIGAND FREE ENERGY PREDICTED BY IDOCK:   -2.43 KCAL/MOL
REMARK 924 INTRA-LIGAND FREE ENERGY PREDICTED BY IDOCK:   -0.61 KCAL/MOL
REMARK 927      BINDING AFFINITY PREDICTED BY RF-SCORE:    0.00 PKD
ROOT
HETATM    1  O   UNL     1     -11.486   9.984  71.115  1.00  0.00    -0.357 OA 
HETATM    2  C   UNL     1     -12.043   8.934  71.910  1.00  0.00    -0.373 C  
HETATM    3  H   UNL     1     -11.897  10.802  71.371  1.00  0.00     0.000 HD 
ENDROOT
BRANCH   2   4
HETATM    4  C   UNL     1     -11.381   7.616  71.496  1.00  0.00    -0.255 C  
HETATM    5  H   UNL     1     -10.940   6.729  69.803  1.00  0.00     0.000 HD 
HETATM    6  O   UNL     1     -11.350   7.546  70.060  1.00  0.00    -0.212 OA 
BRANCH   4   7
HETATM    7  C   UNL     1      -9.958   7.429  72.073  1.00  0.00    -0.166 C  
HETATM    8  O   UNL     1      -9.466   8.703  72.533  1.00  0.00    -0.276 OA 
HETATM    9  H   UNL     1      -8.592   8.588  72.887  1.00  0.00     0.000 HD 
BRANCH   7  10
HETATM   10  C   UNL     1      -9.893   6.426  73.252  1.00  0.00    -0.170 C  
HETATM   11  H   UNL     1      -9.415   6.448  75.181  1.00  0.00     0.000 HD 
HETATM   12  O   UNL     1      -9.455   7.063  74.458  1.00  0.00    -0.223 OA 
BRANCH  10  13
HETATM   13  C   UNL     1      -8.986   5.219  72.953  1.00  0.00    -0.120 C  
HETATM   14  H   UNL     1      -8.340   3.644  73.937  1.00  0.00     0.000 HD 
HETATM   15  O   UNL     1      -8.900   4.389  74.121  1.00  0.00    -0.102 OA 
BRANCH  13  16
HETATM   16  C   UNL     1      -7.573   5.657  72.514  1.00  0.00    -0.098 C  
HETATM   17  O   UNL     1      -6.822   6.188  73.607  1.00  0.00    -0.078 OA 
HETATM   18  H   UNL     1      -5.952   6.458  73.337  1.00  0.00     0.000 HD 
ENDBRANCH  13  16
ENDBRANCH  10  13
ENDBRANCH   7  10
ENDBRANCH   4   7
ENDBRANCH   2   4
TORSDOF 5
ENDMDL
MODEL      301
REMARK 921   NORMALIZED FREE ENERGY PREDICTED BY IDOCK:   -2.11 KCAL/MOL
REMARK 922        TOTAL FREE ENERGY PREDICTED BY IDOCK:   -3.03 KCAL/MOL
REMARK 923 INTER-LIGAND FREE ENERGY PREDICTED BY IDOCK:   -2.67 KCAL/MOL
REMARK 924 INTRA-LIGAND FREE ENERGY PREDICTED BY IDOCK:   -0.36 KCAL/MOL
REMARK 927      BINDING AFFINITY PREDICTED BY RF-SCORE:    0.00 PKD
ROOT
HETATM    1  O   UNL     1      -7.790   4.363  65.989  1.00  0.00    -0.093 OA 
HETATM    2  C   UNL     1      -9.152   4.795  66.070  1.00  0.00    -0.133 C  
HETATM    3  H   UNL     1      -7.398   4.754  65.217  1.00  0.00     0.000 HD 
ENDROOT
BRANCH   2   4
HETATM    4  C   UNL     1      -9.783   4.164  67.314  1.00  0.00    -0.170 C  
HETATM    5  H   UNL     1      -9.701   2.420  68.209  1.00  0.00     0.000 HD 
HETATM    6  O   UNL     1      -9.309   2.811  67.436  1.00  0.00    -0.182 OA 
BRANCH   4   7
HETATM    7  C   UNL     1      -9.504   4.950  68.616  1.00  0.00    -0.144 C  
HETATM    8  O   UNL     1      -8.514   5.962  68.353  1.00  0.00    -0.111 OA 
HETATM    9  H   UNL     1      -8.342   6.445  69.153  1.00  0.00     0.000 HD 
BRANCH   7  10
HETATM   10  C   UNL     1     -10.760   5.638  69.207  1.00  0.00    -0.280 C  
HETATM   11  H   UNL     1     -11.918   7.198  68.791  1.00  0.00     0.000 HD 
HETATM   12  O   UNL     1     -11.148   6.776  68.428  1.00  0.00    -0.210 OA 
BRANCH  10  13
HETATM   13  C   UNL     1     -10.568   6.063  70.673  1.00  0.00    -0.260 C  
HETATM   14  H   UNL     1     -10.172   5.166  72.377  1.00  0.00     0.000 HD 
HETATM   15  O   UNL     1     -10.291   4.903  71.472  1.00  0.00    -0.200 OA 
BRANCH  13  16
HETATM   16  C   UNL     1     -11.807   6.798  71.226  1.00  0.00    -0.348 C  
HETATM   17  O   UNL     1     -12.327   6.155  72.390  1.00  0.00    -0.537 OA 
HETATM   18  H   UNL     1     -13.089   6.607  72.731  1.00  0.00     0.000 HD 
ENDBRANCH  13  16
ENDBRANCH  10  13
ENDBRANCH   7  10
ENDBRANCH   4   7
ENDBRANCH   2   4
TORSDOF 5
ENDMDL
MODEL      302
REMARK 921   NORMALIZED FREE ENERGY PREDICTED BY IDOCK:   -2.09 KCAL/MOL
REMARK 922        TOTAL FREE ENERGY PREDICTED BY IDOCK:   -3.02 KCAL/MOL
REMARK 923 INTER-LIGAND FREE ENERGY PREDICTED BY IDOCK:   -2.66 KCAL/MOL
REMARK 924 INTRA-LIGAND FREE ENERGY PREDICTED BY IDOCK:   -0.36 KCAL/MOL
REMARK 927      BINDING AFFINITY PREDICTED BY RF-SCORE:    0.00 PKD
ROOT
HETATM    1  O   UNL     1      -9.575   5.033  64.816  1.00  0.00    -0.358 OA 
HETATM    2  C   UNL     1      -9.648   5.218  66.232  1.00  0.00    -0.161 C  
HETATM    3  H   UNL     1     -10.238   4.402  64.562  1.00  0.00     0.000 HD 
ENDROOT
BRANCH   2   4
HETATM    4  C   UNL     1      -8.579   6.236  66.640  1.00  0.00    -0.119 C  
HETATM    5  H   UNL     1      -8.032   8.023  66.044  1.00  0.00     0.000 HD 
HETATM    6  O   UNL     1      -8.695   7.391  65.791  1.00  0.00    -0.152 OA 
BRANCH   4   7
HETATM    7  C   UNL     1      -8.657   6.653  68.127  1.00  0.00    -0.115 C  
HETATM    8  O   UNL     1      -7.552   7.526  68.430  1.00  0.00    -0.108 OA 
HETATM    9  H   UNL     1      -7.600   7.783  69.344  1.00  0.00     0.000 HD 
BRANCH   7  10
HETATM   10  C   UNL     1      -9.973   7.384  68.498  1.00  0.00    -0.165 C  
HETATM   11  H   UNL     1     -10.616   9.255  68.684  1.00  0.00     0.000 HD 
HETATM   12  O   UNL     1      -9.810   8.807  68.456  1.00  0.00    -0.160 OA 
BRANCH  10  13
HETATM   13  C   UNL     1     -10.510   6.972  69.880  1.00  0.00    -0.217 C  
HETATM   14  H   UNL     1     -12.056   5.969  70.567  1.00  0.00     0.000 HD 
HETATM   15  O   UNL     1     -11.724   6.224  69.714  1.00  0.00    -0.403 OA 
BRANCH  13  16
HETATM   16  C   UNL     1     -10.765   8.194  70.786  1.00  0.00    -0.222 C  
HETATM   17  O   UNL     1     -11.954   8.891  70.409  1.00  0.00    -0.477 OA 
HETATM   18  H   UNL     1     -12.111   9.643  70.967  1.00  0.00     0.000 HD 
ENDBRANCH  13  16
ENDBRANCH  10  13
ENDBRANCH   7  10
ENDBRANCH   4   7
ENDBRANCH   2   4
TORSDOF 5
ENDMDL
MODEL      303
REMARK 921   NORMALIZED FREE ENERGY PREDICTED BY IDOCK:   -2.09 KCAL/MOL
REMARK 922        TOTAL FREE ENERGY PREDICTED BY IDOCK:   -3.01 KCAL/MOL
REMARK 923 INTER-LIGAND FREE ENERGY PREDICTED BY IDOCK:   -2.34 KCAL/MOL
REMARK 924 INTRA-LIGAND FREE ENERGY PREDICTED BY IDOCK:   -0.67 KCAL/MOL
REMARK 927      BINDING AFFINITY PREDICTED BY RF-SCORE:    0.00 PKD
ROOT
HETATM    1  O   UNL     1      -7.363   6.812  67.593  1.00  0.00    -0.091 OA 
HETATM    2  C   UNL     1      -8.082   5.781  68.276  1.00  0.00    -0.108 C  
HETATM    3  H   UNL     1      -6.934   6.427  66.838  1.00  0.00     0.000 HD 
ENDROOT
BRANCH   2   4
HETATM    4  C   UNL     1      -8.773   6.403  69.493  1.00  0.00    -0.133 C  
HETATM    5  H   UNL     1      -8.385   7.865  70.742  1.00  0.00     0.000 HD 
HETATM    6  O   UNL     1      -7.957   7.480  69.987  1.00  0.00    -0.107 OA 
BRANCH   4   7
HETATM    7  C   UNL     1     -10.206   6.906  69.202  1.00  0.00    -0.187 C  
HETATM    8  O   UNL     1     -11.130   6.228  70.076  1.00  0.00    -0.319 OA 
HETATM    9  H   UNL     1     -12.010   6.537  69.897  1.00  0.00     0.000 HD 
BRANCH   7  10
HETATM   10  C   UNL     1     -10.379   8.433  69.399  1.00  0.00    -0.215 C  
HETATM   11  H   UNL     1     -11.615   9.665  70.350  1.00  0.00     0.000 HD 
HETATM   12  O   UNL     1     -11.508   8.729  70.230  1.00  0.00    -0.212 OA 
BRANCH  10  13
HETATM   13  C   UNL     1     -10.514   9.190  68.066  1.00  0.00    -0.224 C  
HETATM   14  H   UNL     1      -9.666   9.118  66.294  1.00  0.00     0.000 HD 
HETATM   15  O   UNL     1      -9.582   8.650  67.117  1.00  0.00    -0.153 OA 
BRANCH  13  16
HETATM   16  C   UNL     1     -10.272  10.704  68.238  1.00  0.00    -0.166 C  
HETATM   17  O   UNL     1      -9.741  11.011  69.528  1.00  0.00    -0.428 OA 
HETATM   18  H   UNL     1      -9.592  11.943  69.634  1.00  0.00     0.000 HD 
ENDBRANCH  13  16
ENDBRANCH  10  13
ENDBRANCH   7  10
ENDBRANCH   4   7
ENDBRANCH   2   4
TORSDOF 5
ENDMDL
MODEL      304
REMARK 921   NORMALIZED FREE ENERGY PREDICTED BY IDOCK:   -2.09 KCAL/MOL
REMARK 922        TOTAL FREE ENERGY PREDICTED BY IDOCK:   -3.01 KCAL/MOL
REMARK 923 INTER-LIGAND FREE ENERGY PREDICTED BY IDOCK:   -2.79 KCAL/MOL
REMARK 924 INTRA-LIGAND FREE ENERGY PREDICTED BY IDOCK:   -0.22 KCAL/MOL
REMARK 927      BINDING AFFINITY PREDICTED BY RF-SCORE:    0.00 PKD
ROOT
HETATM    1  O   UNL     1     -10.839   1.496  63.751  1.00  0.00    -0.359 OA 
HETATM    2  C   UNL     1      -9.593   1.972  64.266  1.00  0.00    -0.120 C  
HETATM    3  H   UNL     1     -10.777   0.554  63.642  1.00  0.00     0.000 HD 
ENDROOT
BRANCH   2   4
HETATM    4  C   UNL     1      -9.694   3.491  64.441  1.00  0.00    -0.172 C  
HETATM    5  H   UNL     1     -10.936   4.898  63.870  1.00  0.00     0.000 HD 
HETATM    6  O   UNL     1     -10.873   3.956  63.761  1.00  0.00    -0.254 OA 
BRANCH   4   7
HETATM    7  C   UNL     1      -9.712   3.944  65.919  1.00  0.00    -0.161 C  
HETATM    8  O   UNL     1      -9.537   2.793  66.767  1.00  0.00    -0.402 OA 
HETATM    9  H   UNL     1      -9.549   3.071  67.676  1.00  0.00     0.000 HD 
BRANCH   7  10
HETATM   10  C   UNL     1      -8.611   4.978  66.265  1.00  0.00    -0.113 C  
HETATM   11  H   UNL     1      -6.879   5.014  67.238  1.00  0.00     0.000 HD 
HETATM   12  O   UNL     1      -7.554   4.381  67.026  1.00  0.00    -0.083 OA 
BRANCH  10  13
HETATM   13  C   UNL     1      -9.161   6.197  67.025  1.00  0.00    -0.123 C  
HETATM   14  H   UNL     1      -8.902   7.008  68.797  1.00  0.00     0.000 HD 
HETATM   15  O   UNL     1      -8.563   6.255  68.328  1.00  0.00    -0.117 OA 
BRANCH  13  16
HETATM   16  C   UNL     1     -10.698   6.149  67.153  1.00  0.00    -0.346 C  
HETATM   17  O   UNL     1     -11.237   7.422  67.515  1.00  0.00    -0.535 OA 
HETATM   18  H   UNL     1     -12.183   7.393  67.593  1.00  0.00     0.000 HD 
ENDBRANCH  13  16
ENDBRANCH  10  13
ENDBRANCH   7  10
ENDBRANCH   4   7
ENDBRANCH   2   4
TORSDOF 5
ENDMDL
MODEL      305
REMARK 921   NORMALIZED FREE ENERGY PREDICTED BY IDOCK:   -2.08 KCAL/MOL
REMARK 922        TOTAL FREE ENERGY PREDICTED BY IDOCK:   -3.00 KCAL/MOL
REMARK 923 INTER-LIGAND FREE ENERGY PREDICTED BY IDOCK:   -2.57 KCAL/MOL
REMARK 924 INTRA-LIGAND FREE ENERGY PREDICTED BY IDOCK:   -0.43 KCAL/MOL
REMARK 927      BINDING AFFINITY PREDICTED BY RF-SCORE:    0.00 PKD
ROOT
HETATM    1  O   UNL     1      -5.763  10.957  64.119  1.00  0.00    -0.370 OA 
HETATM    2  C   UNL     1      -6.101   9.813  64.909  1.00  0.00    -0.091 C  
HETATM    3  H   UNL     1      -5.069  10.710  63.519  1.00  0.00     0.000 HD 
ENDROOT
BRANCH   2   4
HETATM    4  C   UNL     1      -7.220  10.210  65.876  1.00  0.00    -0.121 C  
HETATM    5  H   UNL     1      -7.475  11.586  67.251  1.00  0.00     0.000 HD 
HETATM    6  O   UNL     1      -6.781  11.339  66.651  1.00  0.00    -0.133 OA 
BRANCH   4   7
HETATM    7  C   UNL     1      -8.561  10.530  65.174  1.00  0.00    -0.180 C  
HETATM    8  O   UNL     1      -8.762   9.598  64.094  1.00  0.00    -0.188 OA 
HETATM    9  H   UNL     1      -9.585   9.795  63.663  1.00  0.00     0.000 HD 
BRANCH   7  10
HETATM   10  C   UNL     1      -9.788  10.455  66.118  1.00  0.00    -0.222 C  
HETATM   11  H   UNL     1     -11.148   9.112  66.662  1.00  0.00     0.000 HD 
HETATM   12  O   UNL     1     -10.396   9.158  66.084  1.00  0.00    -0.221 OA 
BRANCH  10  13
HETATM   13  C   UNL     1     -10.847  11.524  65.798  1.00  0.00    -0.262 C  
HETATM   14  H   UNL     1     -11.031  13.011  64.525  1.00  0.00     0.000 HD 
HETATM   15  O   UNL     1     -10.377  12.351  64.723  1.00  0.00    -0.283 OA 
BRANCH  13  16
HETATM   16  C   UNL     1     -11.175  12.395  67.028  1.00  0.00    -0.303 C  
HETATM   17  O   UNL     1     -10.292  12.124  68.117  1.00  0.00    -0.195 OA 
HETATM   18  H   UNL     1     -10.493  12.661  68.874  1.00  0.00     0.000 HD 
ENDBRANCH  13  16
ENDBRANCH  10  13
ENDBRANCH   7  10
ENDBRANCH   4   7
ENDBRANCH   2   4
TORSDOF 5
ENDMDL
MODEL      306
REMARK 921   NORMALIZED FREE ENERGY PREDICTED BY IDOCK:   -2.07 KCAL/MOL
REMARK 922        TOTAL FREE ENERGY PREDICTED BY IDOCK:   -2.99 KCAL/MOL
REMARK 923 INTER-LIGAND FREE ENERGY PREDICTED BY IDOCK:   -2.70 KCAL/MOL
REMARK 924 INTRA-LIGAND FREE ENERGY PREDICTED BY IDOCK:   -0.29 KCAL/MOL
REMARK 927      BINDING AFFINITY PREDICTED BY RF-SCORE:    0.00 PKD
ROOT
HETATM    1  O   UNL     1      -8.574   8.795  67.031  1.00  0.00    -0.114 OA 
HETATM    2  C   UNL     1      -9.928   8.974  66.606  1.00  0.00    -0.278 C  
HETATM    3  H   UNL     1      -8.113   8.304  66.360  1.00  0.00     0.000 HD 
ENDROOT
BRANCH   2   4
HETATM    4  C   UNL     1     -10.671   9.764  67.687  1.00  0.00    -0.274 C  
HETATM    5  H   UNL     1     -10.531   9.967  69.633  1.00  0.00     0.000 HD 
HETATM    6  O   UNL     1     -10.070   9.477  68.962  1.00  0.00    -0.179 OA 
BRANCH   4   7
HETATM    7  C   UNL     1     -10.693  11.289  67.435  1.00  0.00    -0.242 C  
HETATM    8  O   UNL     1     -11.875  11.626  66.683  1.00  0.00    -0.533 OA 
HETATM    9  H   UNL     1     -11.888  12.563  66.528  1.00  0.00     0.000 HD 
BRANCH   7  10
HETATM   10  C   UNL     1     -10.684  12.133  68.735  1.00  0.00    -0.219 C  
HETATM   11  H   UNL     1     -11.916  13.352  69.708  1.00  0.00     0.000 HD 
HETATM   12  O   UNL     1     -11.921  12.834  68.911  1.00  0.00    -0.300 OA 
BRANCH  10  13
HETATM   13  C   UNL     1      -9.518  13.135  68.784  1.00  0.00     0.109 C  
HETATM   14  H   UNL     1      -9.132  14.910  68.032  1.00  0.00     0.000 HD 
HETATM   15  O   UNL     1      -9.852  14.292  68.002  1.00  0.00    -0.213 OA 
BRANCH  13  16
HETATM   16  C   UNL     1      -8.204  12.513  68.266  1.00  0.00    -0.168 C  
HETATM   17  O   UNL     1      -7.552  13.365  67.323  1.00  0.00    -0.287 OA 
HETATM   18  H   UNL     1      -6.743  12.983  67.005  1.00  0.00     0.000 HD 
ENDBRANCH  13  16
ENDBRANCH  10  13
ENDBRANCH   7  10
ENDBRANCH   4   7
ENDBRANCH   2   4
TORSDOF 5
ENDMDL
MODEL      307
REMARK 921   NORMALIZED FREE ENERGY PREDICTED BY IDOCK:   -2.04 KCAL/MOL
REMARK 922        TOTAL FREE ENERGY PREDICTED BY IDOCK:   -2.94 KCAL/MOL
REMARK 923 INTER-LIGAND FREE ENERGY PREDICTED BY IDOCK:   -2.47 KCAL/MOL
REMARK 924 INTRA-LIGAND FREE ENERGY PREDICTED BY IDOCK:   -0.48 KCAL/MOL
REMARK 927      BINDING AFFINITY PREDICTED BY RF-SCORE:    0.00 PKD
ROOT
HETATM    1  O   UNL     1     -11.864  10.653  67.583  1.00  0.00    -0.633 OA 
HETATM    2  C   UNL     1     -10.897  11.183  66.673  1.00  0.00    -0.253 C  
HETATM    3  H   UNL     1     -12.471  11.348  67.812  1.00  0.00     0.000 HD 
ENDROOT
BRANCH   2   4
HETATM    4  C   UNL     1      -9.919  10.063  66.305  1.00  0.00    -0.245 C  
HETATM    5  H   UNL     1      -7.979   9.908  66.057  1.00  0.00     0.000 HD 
HETATM    6  O   UNL     1      -8.586  10.602  66.285  1.00  0.00    -0.142 OA 
BRANCH   4   7
HETATM    7  C   UNL     1      -9.989   8.843  67.254  1.00  0.00    -0.216 C  
HETATM    8  O   UNL     1     -11.004   7.936  66.781  1.00  0.00    -0.390 OA 
HETATM    9  H   UNL     1     -11.047   7.187  67.364  1.00  0.00     0.000 HD 
BRANCH   7  10
HETATM   10  C   UNL     1      -8.653   8.066  67.365  1.00  0.00    -0.125 C  
HETATM   11  H   UNL     1      -7.986   6.226  67.018  1.00  0.00     0.000 HD 
HETATM   12  O   UNL     1      -8.805   6.703  66.950  1.00  0.00    -0.113 OA 
BRANCH  10  13
HETATM   13  C   UNL     1      -8.061   8.105  68.784  1.00  0.00    -0.120 C  
HETATM   14  H   UNL     1      -8.570   8.878  70.519  1.00  0.00     0.000 HD 
HETATM   15  O   UNL     1      -8.936   8.854  69.643  1.00  0.00    -0.140 OA 
BRANCH  13  16
HETATM   16  C   UNL     1      -6.649   8.725  68.802  1.00  0.00    -0.054 C  
HETATM   17  O   UNL     1      -6.191   8.956  70.135  1.00  0.00    -0.035 OA 
HETATM   18  H   UNL     1      -5.321   9.338  70.147  1.00  0.00     0.000 HD 
ENDBRANCH  13  16
ENDBRANCH  10  13
ENDBRANCH   7  10
ENDBRANCH   4   7
ENDBRANCH   2   4
TORSDOF 5
ENDMDL
MODEL      308
REMARK 921   NORMALIZED FREE ENERGY PREDICTED BY IDOCK:   -2.02 KCAL/MOL
REMARK 922        TOTAL FREE ENERGY PREDICTED BY IDOCK:   -2.93 KCAL/MOL
REMARK 923 INTER-LIGAND FREE ENERGY PREDICTED BY IDOCK:   -2.50 KCAL/MOL
REMARK 924 INTRA-LIGAND FREE ENERGY PREDICTED BY IDOCK:   -0.43 KCAL/MOL
REMARK 927      BINDING AFFINITY PREDICTED BY RF-SCORE:    0.00 PKD
ROOT
HETATM    1  O   UNL     1      -9.093   8.220  69.499  1.00  0.00    -0.152 OA 
HETATM    2  C   UNL     1      -8.563   9.311  68.742  1.00  0.00    -0.131 C  
HETATM    3  H   UNL     1      -8.589   8.141  70.301  1.00  0.00     0.000 HD 
ENDROOT
BRANCH   2   4
HETATM    4  C   UNL     1      -9.376   9.438  67.449  1.00  0.00    -0.126 C  
HETATM    5  H   UNL     1     -10.347   8.211  66.267  1.00  0.00     0.000 HD 
HETATM    6  O   UNL     1      -9.842   8.132  67.068  1.00  0.00    -0.187 OA 
BRANCH   4   7
HETATM    7  C   UNL     1     -10.564  10.422  67.559  1.00  0.00    -0.262 C  
HETATM    8  O   UNL     1     -11.560   9.862  68.437  1.00  0.00    -0.518 OA 
HETATM    9  H   UNL     1     -12.290  10.466  68.504  1.00  0.00     0.000 HD 
BRANCH   7  10
HETATM   10  C   UNL     1     -10.165  11.818  68.100  1.00  0.00    -0.203 C  
HETATM   11  H   UNL     1     -10.276  12.821  69.812  1.00  0.00     0.000 HD 
HETATM   12  O   UNL     1     -10.521  11.965  69.480  1.00  0.00     0.090 OA 
BRANCH  10  13
HETATM   13  C   UNL     1     -10.787  12.968  67.287  1.00  0.00    -0.252 C  
HETATM   14  H   UNL     1     -10.883  13.484  65.393  1.00  0.00     0.000 HD 
HETATM   15  O   UNL     1     -10.499  12.775  65.894  1.00  0.00    -0.267 OA 
BRANCH  13  16
HETATM   16  C   UNL     1     -10.265  14.345  67.747  1.00  0.00    -0.230 C  
HETATM   17  O   UNL     1     -11.228  15.035  68.544  1.00  0.00    -0.261 OA 
HETATM   18  H   UNL     1     -10.907  15.883  68.828  1.00  0.00     0.000 HD 
ENDBRANCH  13  16
ENDBRANCH  10  13
ENDBRANCH   7  10
ENDBRANCH   4   7
ENDBRANCH   2   4
TORSDOF 5
ENDMDL
MODEL      309
REMARK 921   NORMALIZED FREE ENERGY PREDICTED BY IDOCK:   -2.02 KCAL/MOL
REMARK 922        TOTAL FREE ENERGY PREDICTED BY IDOCK:   -2.92 KCAL/MOL
REMARK 923 INTER-LIGAND FREE ENERGY PREDICTED BY IDOCK:   -2.23 KCAL/MOL
REMARK 924 INTRA-LIGAND FREE ENERGY PREDICTED BY IDOCK:   -0.69 KCAL/MOL
REMARK 927      BINDING AFFINITY PREDICTED BY RF-SCORE:    0.00 PKD
ROOT
HETATM    1  O   UNL     1      -9.884   9.036  65.623  1.00  0.00    -0.461 OA 
HETATM    2  C   UNL     1      -8.681   8.296  65.847  1.00  0.00    -0.159 C  
HETATM    3  H   UNL     1     -10.419   8.555  65.002  1.00  0.00     0.000 HD 
ENDROOT
BRANCH   2   4
HETATM    4  C   UNL     1      -7.819   9.072  66.848  1.00  0.00    -0.101 C  
HETATM    5  H   UNL     1      -7.569  10.956  67.332  1.00  0.00     0.000 HD 
HETATM    6  O   UNL     1      -8.104  10.475  66.711  1.00  0.00    -0.118 OA 
BRANCH   4   7
HETATM    7  C   UNL     1      -8.019   8.624  68.315  1.00  0.00    -0.110 C  
HETATM    8  O   UNL     1      -6.743   8.257  68.873  1.00  0.00    -0.051 OA 
HETATM    9  H   UNL     1      -6.865   7.982  69.774  1.00  0.00     0.000 HD 
BRANCH   7  10
HETATM   10  C   UNL     1      -8.650   9.716  69.215  1.00  0.00    -0.153 C  
HETATM   11  H   UNL     1      -8.350  10.492  71.020  1.00  0.00     0.000 HD 
HETATM   12  O   UNL     1      -7.962   9.822  70.468  1.00  0.00    -0.220 OA 
BRANCH  10  13
HETATM   13  C   UNL     1     -10.148   9.476  69.475  1.00  0.00    -0.206 C  
HETATM   14  H   UNL     1     -11.388   7.955  69.360  1.00  0.00     0.000 HD 
HETATM   15  O   UNL     1     -10.464   8.103  69.200  1.00  0.00    -0.220 OA 
BRANCH  13  16
HETATM   16  C   UNL     1     -11.035  10.401  68.617  1.00  0.00    -0.243 C  
HETATM   17  O   UNL     1     -10.386  11.642  68.335  1.00  0.00    -0.191 OA 
HETATM   18  H   UNL     1     -10.932  12.212  67.806  1.00  0.00     0.000 HD 
ENDBRANCH  13  16
ENDBRANCH  10  13
ENDBRANCH   7  10
ENDBRANCH   4   7
ENDBRANCH   2   4
TORSDOF 5
ENDMDL
MODEL      310
REMARK 921   NORMALIZED FREE ENERGY PREDICTED BY IDOCK:   -2.01 KCAL/MOL
REMARK 922        TOTAL FREE ENERGY PREDICTED BY IDOCK:   -2.91 KCAL/MOL
REMARK 923 INTER-LIGAND FREE ENERGY PREDICTED BY IDOCK:   -2.49 KCAL/MOL
REMARK 924 INTRA-LIGAND FREE ENERGY PREDICTED BY IDOCK:   -0.42 KCAL/MOL
REMARK 927      BINDING AFFINITY PREDICTED BY RF-SCORE:    0.00 PKD
ROOT
HETATM    1  O   UNL     1      -8.209   9.895  69.472  1.00  0.00    -0.128 OA 
HETATM    2  C   UNL     1      -7.114   9.211  70.087  1.00  0.00    -0.059 C  
HETATM    3  H   UNL     1      -7.858  10.512  68.839  1.00  0.00     0.000 HD 
ENDROOT
BRANCH   2   4
HETATM    4  C   UNL     1      -7.680   8.218  71.106  1.00  0.00    -0.094 C  
HETATM    5  H   UNL     1      -8.300   8.303  72.966  1.00  0.00     0.000 HD 
HETATM    6  O   UNL     1      -7.948   8.919  72.334  1.00  0.00    -0.374 OA 
BRANCH   4   7
HETATM    7  C   UNL     1      -8.952   7.486  70.618  1.00  0.00    -0.154 C  
HETATM    8  O   UNL     1      -8.766   7.082  69.248  1.00  0.00    -0.135 OA 
HETATM    9  H   UNL     1      -9.548   6.633  68.947  1.00  0.00     0.000 HD 
BRANCH   7  10
HETATM   10  C   UNL     1      -9.304   6.229  71.454  1.00  0.00    -0.152 C  
HETATM   11  H   UNL     1      -9.868   4.352  71.126  1.00  0.00     0.000 HD 
HETATM   12  O   UNL     1      -9.651   5.123  70.613  1.00  0.00    -0.160 OA 
BRANCH  10  13
HETATM   13  C   UNL     1     -10.443   6.486  72.457  1.00  0.00    -0.205 C  
HETATM   14  H   UNL     1     -11.712   5.389  73.483  1.00  0.00     0.000 HD 
HETATM   15  O   UNL     1     -11.009   5.231  72.864  1.00  0.00    -0.245 OA 
BRANCH  13  16
HETATM   16  C   UNL     1     -11.542   7.389  71.860  1.00  0.00    -0.272 C  
HETATM   17  O   UNL     1     -12.834   6.789  71.966  1.00  0.00    -0.515 OA 
HETATM   18  H   UNL     1     -13.510   7.345  71.600  1.00  0.00     0.000 HD 
ENDBRANCH  13  16
ENDBRANCH  10  13
ENDBRANCH   7  10
ENDBRANCH   4   7
ENDBRANCH   2   4
TORSDOF 5
ENDMDL
MODEL      311
REMARK 921   NORMALIZED FREE ENERGY PREDICTED BY IDOCK:   -2.01 KCAL/MOL
REMARK 922        TOTAL FREE ENERGY PREDICTED BY IDOCK:   -2.91 KCAL/MOL
REMARK 923 INTER-LIGAND FREE ENERGY PREDICTED BY IDOCK:   -2.70 KCAL/MOL
REMARK 924 INTRA-LIGAND FREE ENERGY PREDICTED BY IDOCK:   -0.20 KCAL/MOL
REMARK 927      BINDING AFFINITY PREDICTED BY RF-SCORE:    0.00 PKD
ROOT
HETATM    1  O   UNL     1     -11.445  14.060  67.456  1.00  0.00    -0.307 OA 
HETATM    2  C   UNL     1     -10.473  13.182  68.030  1.00  0.00    -0.239 C  
HETATM    3  H   UNL     1     -11.015  14.588  66.793  1.00  0.00     0.000 HD 
ENDROOT
BRANCH   2   4
HETATM    4  C   UNL     1     -11.166  12.330  69.098  1.00  0.00    -0.242 C  
HETATM    5  H   UNL     1     -12.644  12.581  70.363  1.00  0.00     0.000 HD 
HETATM    6  O   UNL     1     -12.214  13.110  69.700  1.00  0.00    -0.270 OA 
BRANCH   4   7
HETATM    7  C   UNL     1     -11.732  10.997  68.556  1.00  0.00    -0.278 C  
HETATM    8  O   UNL     1     -11.878  11.094  67.126  1.00  0.00    -0.466 OA 
HETATM    9  H   UNL     1     -12.226  10.275  66.793  1.00  0.00     0.000 HD 
BRANCH   7  10
HETATM   10  C   UNL     1     -10.842   9.770  68.874  1.00  0.00    -0.192 C  
HETATM   11  H   UNL     1     -10.469   7.979  68.096  1.00  0.00     0.000 HD 
HETATM   12  O   UNL     1     -11.014   8.732  67.901  1.00  0.00    -0.075 OA 
BRANCH  10  13
HETATM   13  C   UNL     1     -11.100   9.199  70.279  1.00  0.00    -0.239 C  
HETATM   14  H   UNL     1     -12.168   9.708  71.850  1.00  0.00     0.000 HD 
HETATM   15  O   UNL     1     -12.009  10.061  70.982  1.00  0.00    -0.317 OA 
BRANCH  13  16
HETATM   16  C   UNL     1      -9.794   9.042  71.085  1.00  0.00    -0.300 C  
HETATM   17  O   UNL     1      -9.006  10.233  71.050  1.00  0.00     0.222 OA 
HETATM   18  H   UNL     1      -8.202  10.137  71.547  1.00  0.00     0.000 HD 
ENDBRANCH  13  16
ENDBRANCH  10  13
ENDBRANCH   7  10
ENDBRANCH   4   7
ENDBRANCH   2   4
TORSDOF 5
ENDMDL
MODEL      312
REMARK 921   NORMALIZED FREE ENERGY PREDICTED BY IDOCK:   -1.99 KCAL/MOL
REMARK 922        TOTAL FREE ENERGY PREDICTED BY IDOCK:   -2.89 KCAL/MOL
REMARK 923 INTER-LIGAND FREE ENERGY PREDICTED BY IDOCK:   -2.54 KCAL/MOL
REMARK 924 INTRA-LIGAND FREE ENERGY PREDICTED BY IDOCK:   -0.35 KCAL/MOL
REMARK 927      BINDING AFFINITY PREDICTED BY RF-SCORE:    0.00 PKD
ROOT
HETATM    1  O   UNL     1      -9.379   4.445  73.686  1.00  0.00    -0.113 OA 
HETATM    2  C   UNL     1      -8.639   5.431  74.411  1.00  0.00    -0.112 C  
HETATM    3  H   UNL     1      -9.193   3.594  74.064  1.00  0.00     0.000 HD 
ENDROOT
BRANCH   2   4
HETATM    4  C   UNL     1      -8.939   6.803  73.801  1.00  0.00    -0.148 C  
HETATM    5  H   UNL     1      -8.082   8.568  73.806  1.00  0.00     0.000 HD 
HETATM    6  O   UNL     1      -7.896   7.717  74.185  1.00  0.00    -0.136 OA 
BRANCH   4   7
HETATM    7  C   UNL     1      -9.089   6.777  72.262  1.00  0.00    -0.132 C  
HETATM    8  O   UNL     1      -8.112   5.875  71.708  1.00  0.00    -0.115 OA 
HETATM    9  H   UNL     1      -8.205   5.859  70.763  1.00  0.00     0.000 HD 
BRANCH   7  10
HETATM   10  C   UNL     1     -10.494   6.329  71.784  1.00  0.00    -0.211 C  
HETATM   11  H   UNL     1     -11.272   4.933  70.602  1.00  0.00     0.000 HD 
HETATM   12  O   UNL     1     -10.411   5.208  70.896  1.00  0.00    -0.229 OA 
BRANCH  10  13
HETATM   13  C   UNL     1     -11.277   7.465  71.101  1.00  0.00    -0.258 C  
HETATM   14  H   UNL     1     -13.161   7.853  70.696  1.00  0.00     0.000 HD 
HETATM   15  O   UNL     1     -12.678   7.152  71.118  1.00  0.00    -0.367 OA 
BRANCH  13  16
HETATM   16  C   UNL     1     -10.807   7.695  69.650  1.00  0.00    -0.191 C  
HETATM   17  O   UNL     1     -11.524   6.875  68.726  1.00  0.00    -0.529 OA 
HETATM   18  H   UNL     1     -11.236   7.017  67.833  1.00  0.00     0.000 HD 
ENDBRANCH  13  16
ENDBRANCH  10  13
ENDBRANCH   7  10
ENDBRANCH   4   7
ENDBRANCH   2   4
TORSDOF 5
ENDMDL
MODEL      313
REMARK 921   NORMALIZED FREE ENERGY PREDICTED BY IDOCK:   -1.99 KCAL/MOL
REMARK 922        TOTAL FREE ENERGY PREDICTED BY IDOCK:   -2.88 KCAL/MOL
REMARK 923 INTER-LIGAND FREE ENERGY PREDICTED BY IDOCK:   -2.13 KCAL/MOL
REMARK 924 INTRA-LIGAND FREE ENERGY PREDICTED BY IDOCK:   -0.75 KCAL/MOL
REMARK 927      BINDING AFFINITY PREDICTED BY RF-SCORE:    0.00 PKD
ROOT
HETATM    1  O   UNL     1      -7.527   6.993  67.526  1.00  0.00    -0.093 OA 
HETATM    2  C   UNL     1      -8.739   6.606  68.180  1.00  0.00    -0.117 C  
HETATM    3  H   UNL     1      -7.355   6.373  66.827  1.00  0.00     0.000 HD 
ENDROOT
BRANCH   2   4
HETATM    4  C   UNL     1      -9.017   7.605  69.307  1.00  0.00    -0.135 C  
HETATM    5  H   UNL     1     -10.593   8.190  70.318  1.00  0.00     0.000 HD 
HETATM    6  O   UNL     1     -10.421   7.571  69.619  1.00  0.00    -0.223 OA 
BRANCH   4   7
HETATM    7  C   UNL     1      -8.178   7.351  70.581  1.00  0.00    -0.112 C  
HETATM    8  O   UNL     1      -6.783   7.304  70.225  1.00  0.00    -0.049 OA 
HETATM    9  H   UNL     1      -6.268   7.147  71.008  1.00  0.00     0.000 HD 
BRANCH   7  10
HETATM   10  C   UNL     1      -8.367   8.432  71.675  1.00  0.00    -0.156 C  
HETATM   11  H   UNL     1      -7.420  10.057  72.319  1.00  0.00     0.000 HD 
HETATM   12  O   UNL     1      -7.305   9.393  71.648  1.00  0.00    -0.324 OA 
BRANCH  10  13
HETATM   13  C   UNL     1      -8.479   7.833  73.087  1.00  0.00    -0.163 C  
HETATM   14  H   UNL     1      -7.748   6.273  74.035  1.00  0.00     0.000 HD 
HETATM   15  O   UNL     1      -7.679   6.643  73.163  1.00  0.00    -0.095 OA 
BRANCH  13  16
HETATM   16  C   UNL     1      -9.940   7.510  73.461  1.00  0.00    -0.315 C  
HETATM   17  O   UNL     1     -10.863   8.316  72.727  1.00  0.00    -0.347 OA 
HETATM   18  H   UNL     1     -11.763   8.117  72.956  1.00  0.00     0.000 HD 
ENDBRANCH  13  16
ENDBRANCH  10  13
ENDBRANCH   7  10
ENDBRANCH   4   7
ENDBRANCH   2   4
TORSDOF 5
ENDMDL
MODEL      314
REMARK 921   NORMALIZED FREE ENERGY PREDICTED BY IDOCK:   -1.97 KCAL/MOL
REMARK 922        TOTAL FREE ENERGY PREDICTED BY IDOCK:   -2.86 KCAL/MOL
REMARK 923 INTER-LIGAND FREE ENERGY PREDICTED BY IDOCK:   -2.48 KCAL/MOL
REMARK 924 INTRA-LIGAND FREE ENERGY PREDICTED BY IDOCK:   -0.38 KCAL/MOL
REMARK 927      BINDING AFFINITY PREDICTED BY RF-SCORE:    0.00 PKD
ROOT
HETATM    1  O   UNL     1      -7.190  11.735  69.173  1.00  0.00    -0.200 OA 
HETATM    2  C   UNL     1      -7.792  10.629  68.495  1.00  0.00    -0.115 C  
HETATM    3  H   UNL     1      -7.245  12.498  68.609  1.00  0.00     0.000 HD 
ENDROOT
BRANCH   2   4
HETATM    4  C   UNL     1      -7.702   9.400  69.405  1.00  0.00    -0.085 C  
HETATM    5  H   UNL     1      -7.667   9.077  71.339  1.00  0.00     0.000 HD 
HETATM    6  O   UNL     1      -7.722   9.839  70.775  1.00  0.00    -0.308 OA 
BRANCH   4   7
HETATM    7  C   UNL     1      -8.822   8.363  69.157  1.00  0.00    -0.142 C  
HETATM    8  O   UNL     1      -8.522   7.623  67.958  1.00  0.00    -0.123 OA 
HETATM    9  H   UNL     1      -9.210   6.986  67.806  1.00  0.00     0.000 HD 
BRANCH   7  10
HETATM   10  C   UNL     1      -9.003   7.356  70.321  1.00  0.00    -0.147 C  
HETATM   11  H   UNL     1      -8.354   5.543  70.814  1.00  0.00     0.000 HD 
HETATM   12  O   UNL     1      -8.243   6.161  70.101  1.00  0.00    -0.116 OA 
BRANCH  10  13
HETATM   13  C   UNL     1     -10.477   6.986  70.561  1.00  0.00    -0.208 C  
HETATM   14  H   UNL     1     -11.974   6.321  69.475  1.00  0.00     0.000 HD 
HETATM   15  O   UNL     1     -11.064   6.549  69.326  1.00  0.00    -0.300 OA 
BRANCH  13  16
HETATM   16  C   UNL     1     -11.281   8.172  71.135  1.00  0.00    -0.257 C  
HETATM   17  O   UNL     1     -12.618   8.195  70.633  1.00  0.00    -0.479 OA 
HETATM   18  H   UNL     1     -13.113   8.924  70.986  1.00  0.00     0.000 HD 
ENDBRANCH  13  16
ENDBRANCH  10  13
ENDBRANCH   7  10
ENDBRANCH   4   7
ENDBRANCH   2   4
TORSDOF 5
ENDMDL
MODEL      315
REMARK 921   NORMALIZED FREE ENERGY PREDICTED BY IDOCK:   -1.95 KCAL/MOL
REMARK 922        TOTAL FREE ENERGY PREDICTED BY IDOCK:   -2.83 KCAL/MOL
REMARK 923 INTER-LIGAND FREE ENERGY PREDICTED BY IDOCK:   -2.08 KCAL/MOL
REMARK 924 INTRA-LIGAND FREE ENERGY PREDICTED BY IDOCK:   -0.75 KCAL/MOL
REMARK 927      BINDING AFFINITY PREDICTED BY RF-SCORE:    0.00 PKD
ROOT
HETATM    1  O   UNL     1     -10.419  10.658  70.131  1.00  0.00    -0.450 OA 
HETATM    2  C   UNL     1     -10.737  10.703  68.737  1.00  0.00    -0.215 C  
HETATM    3  H   UNL     1     -11.233  10.648  70.622  1.00  0.00     0.000 HD 
ENDROOT
BRANCH   2   4
HETATM    4  C   UNL     1      -9.426  10.719  67.945  1.00  0.00    -0.157 C  
HETATM    5  H   UNL     1      -7.784  11.794  67.955  1.00  0.00     0.000 HD 
HETATM    6  O   UNL     1      -8.598  11.784  68.446  1.00  0.00    -0.160 OA 
BRANCH   4   7
HETATM    7  C   UNL     1      -8.658   9.377  67.990  1.00  0.00    -0.120 C  
HETATM    8  O   UNL     1      -9.252   8.528  68.991  1.00  0.00    -0.146 OA 
HETATM    9  H   UNL     1      -8.780   7.704  69.019  1.00  0.00     0.000 HD 
BRANCH   7  10
HETATM   10  C   UNL     1      -8.661   8.616  66.640  1.00  0.00    -0.117 C  
HETATM   11  H   UNL     1      -9.955   8.181  65.197  1.00  0.00     0.000 HD 
HETATM   12  O   UNL     1      -9.954   8.648  66.024  1.00  0.00    -0.222 OA 
BRANCH  10  13
HETATM   13  C   UNL     1      -8.200   7.155  66.783  1.00  0.00    -0.114 C  
HETATM   14  H   UNL     1      -6.813   6.013  65.983  1.00  0.00     0.000 HD 
HETATM   15  O   UNL     1      -7.098   6.915  65.894  1.00  0.00    -0.069 OA 
BRANCH  13  16
HETATM   16  C   UNL     1      -9.341   6.160  66.487  1.00  0.00    -0.153 C  
HETATM   17  O   UNL     1     -10.307   6.137  67.539  1.00  0.00    -0.158 OA 
HETATM   18  H   UNL     1     -11.010   5.525  67.357  1.00  0.00     0.000 HD 
ENDBRANCH  13  16
ENDBRANCH  10  13
ENDBRANCH   7  10
ENDBRANCH   4   7
ENDBRANCH   2   4
TORSDOF 5
ENDMDL
MODEL      316
REMARK 921   NORMALIZED FREE ENERGY PREDICTED BY IDOCK:   -1.94 KCAL/MOL
REMARK 922        TOTAL FREE ENERGY PREDICTED BY IDOCK:   -2.82 KCAL/MOL
REMARK 923 INTER-LIGAND FREE ENERGY PREDICTED BY IDOCK:   -2.20 KCAL/MOL
REMARK 924 INTRA-LIGAND FREE ENERGY PREDICTED BY IDOCK:   -0.62 KCAL/MOL
REMARK 927      BINDING AFFINITY PREDICTED BY RF-SCORE:    0.00 PKD
ROOT
HETATM    1  O   UNL     1      -8.346   6.685  70.100  1.00  0.00    -0.130 OA 
HETATM    2  C   UNL     1      -8.559   7.849  70.904  1.00  0.00    -0.128 C  
HETATM    3  H   UNL     1      -7.968   6.008  70.649  1.00  0.00     0.000 HD 
ENDROOT
BRANCH   2   4
HETATM    4  C   UNL     1      -9.168   8.940  70.019  1.00  0.00    -0.174 C  
HETATM    5  H   UNL     1      -8.662  10.752  69.463  1.00  0.00     0.000 HD 
HETATM    6  O   UNL     1      -8.284  10.075  70.012  1.00  0.00    -0.178 OA 
BRANCH   4   7
HETATM    7  C   UNL     1      -9.456   8.475  68.573  1.00  0.00    -0.142 C  
HETATM    8  O   UNL     1     -10.841   8.093  68.468  1.00  0.00    -0.415 OA 
HETATM    9  H   UNL     1     -11.018   7.807  67.579  1.00  0.00     0.000 HD 
BRANCH   7  10
HETATM   10  C   UNL     1      -9.167   9.559  67.504  1.00  0.00    -0.126 C  
HETATM   11  H   UNL     1     -10.172  10.563  66.114  1.00  0.00     0.000 HD 
HETATM   12  O   UNL     1     -10.349   9.898  66.769  1.00  0.00    -0.229 OA 
BRANCH  10  13
HETATM   13  C   UNL     1      -8.058   9.141  66.522  1.00  0.00    -0.107 C  
HETATM   14  H   UNL     1      -6.532   7.901  66.539  1.00  0.00     0.000 HD 
HETATM   15  O   UNL     1      -7.217   8.159  67.146  1.00  0.00    -0.081 OA 
BRANCH  13  16
HETATM   16  C   UNL     1      -7.210  10.346  66.065  1.00  0.00    -0.134 C  
HETATM   17  O   UNL     1      -7.958  11.563  66.106  1.00  0.00    -0.358 OA 
HETATM   18  H   UNL     1      -7.436  12.305  65.825  1.00  0.00     0.000 HD 
ENDBRANCH  13  16
ENDBRANCH  10  13
ENDBRANCH   7  10
ENDBRANCH   4   7
ENDBRANCH   2   4
TORSDOF 5
ENDMDL
MODEL      317
REMARK 921   NORMALIZED FREE ENERGY PREDICTED BY IDOCK:   -1.94 KCAL/MOL
REMARK 922        TOTAL FREE ENERGY PREDICTED BY IDOCK:   -2.82 KCAL/MOL
REMARK 923 INTER-LIGAND FREE ENERGY PREDICTED BY IDOCK:   -2.50 KCAL/MOL
REMARK 924 INTRA-LIGAND FREE ENERGY PREDICTED BY IDOCK:   -0.32 KCAL/MOL
REMARK 927      BINDING AFFINITY PREDICTED BY RF-SCORE:    0.00 PKD
ROOT
HETATM    1  O   UNL     1      -8.135   5.610  68.971  1.00  0.00    -0.095 OA 
HETATM    2  C   UNL     1      -8.748   6.177  70.132  1.00  0.00    -0.141 C  
HETATM    3  H   UNL     1      -7.294   5.248  69.223  1.00  0.00     0.000 HD 
ENDROOT
BRANCH   2   4
HETATM    4  C   UNL     1     -10.104   6.760  69.725  1.00  0.00    -0.183 C  
HETATM    5  H   UNL     1     -11.698   7.416  70.662  1.00  0.00     0.000 HD 
HETATM    6  O   UNL     1     -10.857   7.053  70.915  1.00  0.00    -0.232 OA 
BRANCH   4   7
HETATM    7  C   UNL     1      -9.994   8.021  68.836  1.00  0.00    -0.195 C  
HETATM    8  O   UNL     1     -10.881   7.883  67.710  1.00  0.00    -0.465 OA 
HETATM    9  H   UNL     1     -10.813   8.658  67.164  1.00  0.00     0.000 HD 
BRANCH   7  10
HETATM   10  C   UNL     1     -10.346   9.335  69.578  1.00  0.00    -0.216 C  
HETATM   11  H   UNL     1     -11.872  10.605  69.680  1.00  0.00     0.000 HD 
HETATM   12  O   UNL     1     -11.655   9.799  69.225  1.00  0.00    -0.018 OA 
BRANCH  10  13
HETATM   13  C   UNL     1      -9.321  10.454  69.320  1.00  0.00    -0.187 C  
HETATM   14  H   UNL     1      -8.699  11.486  67.767  1.00  0.00     0.000 HD 
HETATM   15  O   UNL     1      -9.331  10.795  67.926  1.00  0.00    -0.146 OA 
BRANCH  13  16
HETATM   16  C   UNL     1      -7.899  10.041  69.750  1.00  0.00    -0.177 C  
HETATM   17  O   UNL     1      -7.109  11.173  70.118  1.00  0.00    -0.441 OA 
HETATM   18  H   UNL     1      -6.233  10.918  70.383  1.00  0.00     0.000 HD 
ENDBRANCH  13  16
ENDBRANCH  10  13
ENDBRANCH   7  10
ENDBRANCH   4   7
ENDBRANCH   2   4
TORSDOF 5
ENDMDL
MODEL      318
REMARK 921   NORMALIZED FREE ENERGY PREDICTED BY IDOCK:   -1.93 KCAL/MOL
REMARK 922        TOTAL FREE ENERGY PREDICTED BY IDOCK:   -2.81 KCAL/MOL
REMARK 923 INTER-LIGAND FREE ENERGY PREDICTED BY IDOCK:   -2.71 KCAL/MOL
REMARK 924 INTRA-LIGAND FREE ENERGY PREDICTED BY IDOCK:   -0.10 KCAL/MOL
REMARK 927      BINDING AFFINITY PREDICTED BY RF-SCORE:    0.00 PKD
ROOT
HETATM    1  O   UNL     1     -13.166   9.478  71.033  1.00  0.00    -0.520 OA 
HETATM    2  C   UNL     1     -11.885   8.923  71.346  1.00  0.00    -0.317 C  
HETATM    3  H   UNL     1     -13.751   9.308  71.763  1.00  0.00     0.000 HD 
ENDROOT
BRANCH   2   4
HETATM    4  C   UNL     1     -10.943   9.196  70.169  1.00  0.00    -0.239 C  
HETATM    5  H   UNL     1     -10.414  10.768  69.120  1.00  0.00     0.000 HD 
HETATM    6  O   UNL     1     -10.999  10.598  69.850  1.00  0.00    -0.270 OA 
BRANCH   4   7
HETATM    7  C   UNL     1      -9.482   8.764  70.433  1.00  0.00    -0.179 C  
HETATM    8  O   UNL     1      -8.808   9.804  71.168  1.00  0.00    -0.299 OA 
HETATM    9  H   UNL     1      -7.910   9.539  71.330  1.00  0.00     0.000 HD 
BRANCH   7  10
HETATM   10  C   UNL     1      -9.361   7.443  71.234  1.00  0.00    -0.153 C  
HETATM   11  H   UNL     1      -7.937   6.400  72.148  1.00  0.00     0.000 HD 
HETATM   12  O   UNL     1      -8.012   7.210  71.657  1.00  0.00    -0.096 OA 
BRANCH  10  13
HETATM   13  C   UNL     1      -9.865   6.223  70.443  1.00  0.00    -0.176 C  
HETATM   14  H   UNL     1     -11.055   4.696  70.786  1.00  0.00     0.000 HD 
HETATM   15  O   UNL     1     -10.743   5.449  71.274  1.00  0.00    -0.237 OA 
BRANCH  13  16
HETATM   16  C   UNL     1      -8.702   5.342  69.942  1.00  0.00    -0.105 C  
HETATM   17  O   UNL     1      -9.161   4.062  69.503  1.00  0.00    -0.119 OA 
HETATM   18  H   UNL     1      -8.446   3.520  69.194  1.00  0.00     0.000 HD 
ENDBRANCH  13  16
ENDBRANCH  10  13
ENDBRANCH   7  10
ENDBRANCH   4   7
ENDBRANCH   2   4
TORSDOF 5
ENDMDL
MODEL      319
REMARK 921   NORMALIZED FREE ENERGY PREDICTED BY IDOCK:   -1.92 KCAL/MOL
REMARK 922        TOTAL FREE ENERGY PREDICTED BY IDOCK:   -2.80 KCAL/MOL
REMARK 923 INTER-LIGAND FREE ENERGY PREDICTED BY IDOCK:   -2.15 KCAL/MOL
REMARK 924 INTRA-LIGAND FREE ENERGY PREDICTED BY IDOCK:   -0.65 KCAL/MOL
REMARK 927      BINDING AFFINITY PREDICTED BY RF-SCORE:    0.00 PKD
ROOT
HETATM    1  O   UNL     1      -8.884   7.521  66.898  1.00  0.00    -0.127 OA 
HETATM    2  C   UNL     1     -10.274   7.802  66.708  1.00  0.00    -0.276 C  
HETATM    3  H   UNL     1      -8.423   7.738  66.095  1.00  0.00     0.000 HD 
ENDROOT
BRANCH   2   4
HETATM    4  C   UNL     1     -11.015   7.451  68.002  1.00  0.00     0.032 C  
HETATM    5  H   UNL     1     -11.501   5.803  68.948  1.00  0.00     0.000 HD 
HETATM    6  O   UNL     1     -11.041   6.020  68.146  1.00  0.00    -0.306 OA 
BRANCH   4   7
HETATM    7  C   UNL     1     -10.405   8.106  69.263  1.00  0.00    -0.217 C  
HETATM    8  O   UNL     1     -11.302   9.125  69.746  1.00  0.00    -0.422 OA 
HETATM    9  H   UNL     1     -10.926   9.528  70.520  1.00  0.00     0.000 HD 
BRANCH   7  10
HETATM   10  C   UNL     1     -10.138   7.104  70.415  1.00  0.00    -0.191 C  
HETATM   11  H   UNL     1     -10.642   6.889  72.325  1.00  0.00     0.000 HD 
HETATM   12  O   UNL     1     -10.805   7.503  71.618  1.00  0.00    -0.219 OA 
BRANCH  10  13
HETATM   13  C   UNL     1      -8.638   6.916  70.700  1.00  0.00    -0.141 C  
HETATM   14  H   UNL     1      -7.008   8.003  70.532  1.00  0.00     0.000 HD 
HETATM   15  O   UNL     1      -7.934   8.119  70.356  1.00  0.00    -0.094 OA 
BRANCH  13  16
HETATM   16  C   UNL     1      -8.050   5.721  69.921  1.00  0.00    -0.107 C  
HETATM   17  O   UNL     1      -7.256   6.153  68.815  1.00  0.00    -0.079 OA 
HETATM   18  H   UNL     1      -6.893   5.418  68.335  1.00  0.00     0.000 HD 
ENDBRANCH  13  16
ENDBRANCH  10  13
ENDBRANCH   7  10
ENDBRANCH   4   7
ENDBRANCH   2   4
TORSDOF 5
ENDMDL
MODEL      320
REMARK 921   NORMALIZED FREE ENERGY PREDICTED BY IDOCK:   -1.92 KCAL/MOL
REMARK 922        TOTAL FREE ENERGY PREDICTED BY IDOCK:   -2.79 KCAL/MOL
REMARK 923 INTER-LIGAND FREE ENERGY PREDICTED BY IDOCK:   -2.34 KCAL/MOL
REMARK 924 INTRA-LIGAND FREE ENERGY PREDICTED BY IDOCK:   -0.45 KCAL/MOL
REMARK 927      BINDING AFFINITY PREDICTED BY RF-SCORE:    0.00 PKD
ROOT
HETATM    1  O   UNL     1      -9.717   8.940  65.667  1.00  0.00    -0.454 OA 
HETATM    2  C   UNL     1      -8.423   8.400  65.950  1.00  0.00    -0.148 C  
HETATM    3  H   UNL     1     -10.067   8.493  64.905  1.00  0.00     0.000 HD 
ENDROOT
BRANCH   2   4
HETATM    4  C   UNL     1      -7.860   9.120  67.179  1.00  0.00    -0.102 C  
HETATM    5  H   UNL     1      -8.279  10.762  68.168  1.00  0.00     0.000 HD 
HETATM    6  O   UNL     1      -8.628  10.315  67.405  1.00  0.00    -0.125 OA 
BRANCH   4   7
HETATM    7  C   UNL     1      -7.842   8.245  68.455  1.00  0.00    -0.118 C  
HETATM    8  O   UNL     1      -7.019   8.882  69.451  1.00  0.00    -0.051 OA 
HETATM    9  H   UNL     1      -7.007   8.345  70.234  1.00  0.00     0.000 HD 
BRANCH   7  10
HETATM   10  C   UNL     1      -9.247   8.006  69.063  1.00  0.00    -0.148 C  
HETATM   11  H   UNL     1     -10.311   8.652  70.612  1.00  0.00     0.000 HD 
HETATM   12  O   UNL     1      -9.449   8.799  70.239  1.00  0.00    -0.160 OA 
BRANCH  10  13
HETATM   13  C   UNL     1      -9.504   6.526  69.395  1.00  0.00    -0.145 C  
HETATM   14  H   UNL     1      -8.407   4.927  69.723  1.00  0.00     0.000 HD 
HETATM   15  O   UNL     1      -8.248   5.841  69.518  1.00  0.00    -0.105 OA 
BRANCH  13  16
HETATM   16  C   UNL     1     -10.374   5.839  68.322  1.00  0.00    -0.212 C  
HETATM   17  O   UNL     1     -11.347   6.733  67.780  1.00  0.00    -0.577 OA 
HETATM   18  H   UNL     1     -11.883   6.310  67.119  1.00  0.00     0.000 HD 
ENDBRANCH  13  16
ENDBRANCH  10  13
ENDBRANCH   7  10
ENDBRANCH   4   7
ENDBRANCH   2   4
TORSDOF 5
ENDMDL
MODEL      321
REMARK 921   NORMALIZED FREE ENERGY PREDICTED BY IDOCK:   -1.91 KCAL/MOL
REMARK 922        TOTAL FREE ENERGY PREDICTED BY IDOCK:   -2.78 KCAL/MOL
REMARK 923 INTER-LIGAND FREE ENERGY PREDICTED BY IDOCK:   -2.57 KCAL/MOL
REMARK 924 INTRA-LIGAND FREE ENERGY PREDICTED BY IDOCK:   -0.20 KCAL/MOL
REMARK 927      BINDING AFFINITY PREDICTED BY RF-SCORE:    0.00 PKD
ROOT
HETATM    1  O   UNL     1      -6.361  18.332  64.900  1.00  0.00    -0.332 OA 
HETATM    2  C   UNL     1      -6.100  18.137  66.293  1.00  0.00    -0.194 C  
HETATM    3  H   UNL     1      -5.635  17.969  64.407  1.00  0.00     0.000 HD 
ENDROOT
BRANCH   2   4
HETATM    4  C   UNL     1      -7.271  18.722  67.088  1.00  0.00    -0.209 C  
HETATM    5  H   UNL     1      -8.352  20.358  67.011  1.00  0.00     0.000 HD 
HETATM    6  O   UNL     1      -7.626  19.995  66.518  1.00  0.00    -0.267 OA 
BRANCH   4   7
HETATM    7  C   UNL     1      -8.508  17.795  67.142  1.00  0.00    -0.228 C  
HETATM    8  O   UNL     1      -9.300  17.997  65.956  1.00  0.00    -0.505 OA 
HETATM    9  H   UNL     1     -10.060  17.428  65.989  1.00  0.00     0.000 HD 
BRANCH   7  10
HETATM   10  C   UNL     1      -8.151  16.291  67.241  1.00  0.00    -0.176 C  
HETATM   11  H   UNL     1      -7.374  14.881  66.075  1.00  0.00     0.000 HD 
HETATM   12  O   UNL     1      -7.593  15.804  66.015  1.00  0.00     0.479 OA 
BRANCH  10  13
HETATM   13  C   UNL     1      -9.357  15.420  67.634  1.00  0.00    -0.203 C  
HETATM   14  H   UNL     1      -9.729  14.013  68.956  1.00  0.00     0.000 HD 
HETATM   15  O   UNL     1      -8.984  14.551  68.714  1.00  0.00    -0.188 OA 
BRANCH  13  16
HETATM   16  C   UNL     1      -9.878  14.588  66.444  1.00  0.00    -0.290 C  
HETATM   17  O   UNL     1      -9.152  13.367  66.297  1.00  0.00    -0.456 OA 
HETATM   18  H   UNL     1      -9.472  12.854  65.564  1.00  0.00     0.000 HD 
ENDBRANCH  13  16
ENDBRANCH  10  13
ENDBRANCH   7  10
ENDBRANCH   4   7
ENDBRANCH   2   4
TORSDOF 5
ENDMDL
MODEL      322
REMARK 921   NORMALIZED FREE ENERGY PREDICTED BY IDOCK:   -1.90 KCAL/MOL
REMARK 922        TOTAL FREE ENERGY PREDICTED BY IDOCK:   -2.76 KCAL/MOL
REMARK 923 INTER-LIGAND FREE ENERGY PREDICTED BY IDOCK:   -2.35 KCAL/MOL
REMARK 924 INTRA-LIGAND FREE ENERGY PREDICTED BY IDOCK:   -0.41 KCAL/MOL
REMARK 927      BINDING AFFINITY PREDICTED BY RF-SCORE:    0.00 PKD
ROOT
HETATM    1  O   UNL     1      -9.896   3.606  73.231  1.00  0.00    -0.111 OA 
HETATM    2  C   UNL     1      -9.798   4.798  74.015  1.00  0.00    -0.156 C  
HETATM    3  H   UNL     1      -9.370   2.932  73.646  1.00  0.00     0.000 HD 
ENDROOT
BRANCH   2   4
HETATM    4  C   UNL     1     -10.645   5.884  73.345  1.00  0.00    -0.258 C  
HETATM    5  H   UNL     1     -11.186   7.720  73.779  1.00  0.00     0.000 HD 
HETATM    6  O   UNL     1     -10.661   7.046  74.194  1.00  0.00    -0.274 OA 
BRANCH   4   7
HETATM    7  C   UNL     1     -10.159   6.263  71.927  1.00  0.00    -0.181 C  
HETATM    8  O   UNL     1     -10.603   5.260  70.993  1.00  0.00    -0.228 OA 
HETATM    9  H   UNL     1     -10.304   5.492  70.122  1.00  0.00     0.000 HD 
BRANCH   7  10
HETATM   10  C   UNL     1     -10.673   7.643  71.443  1.00  0.00    -0.222 C  
HETATM   11  H   UNL     1     -11.946   8.348  70.089  1.00  0.00     0.000 HD 
HETATM   12  O   UNL     1     -11.631   7.502  70.386  1.00  0.00    -0.246 OA 
BRANCH  10  13
HETATM   13  C   UNL     1      -9.536   8.570  70.981  1.00  0.00    -0.186 C  
HETATM   14  H   UNL     1      -9.378  10.196  69.886  1.00  0.00     0.000 HD 
HETATM   15  O   UNL     1     -10.080   9.623  70.171  1.00  0.00    -0.229 OA 
BRANCH  13  16
HETATM   16  C   UNL     1      -8.455   7.804  70.190  1.00  0.00    -0.134 C  
HETATM   17  O   UNL     1      -8.542   8.066  68.789  1.00  0.00    -0.127 OA 
HETATM   18  H   UNL     1      -7.876   7.595  68.302  1.00  0.00     0.000 HD 
ENDBRANCH  13  16
ENDBRANCH  10  13
ENDBRANCH   7  10
ENDBRANCH   4   7
ENDBRANCH   2   4
TORSDOF 5
ENDMDL
MODEL      323
REMARK 921   NORMALIZED FREE ENERGY PREDICTED BY IDOCK:   -1.86 KCAL/MOL
REMARK 922        TOTAL FREE ENERGY PREDICTED BY IDOCK:   -2.72 KCAL/MOL
REMARK 923 INTER-LIGAND FREE ENERGY PREDICTED BY IDOCK:   -2.34 KCAL/MOL
REMARK 924 INTRA-LIGAND FREE ENERGY PREDICTED BY IDOCK:   -0.38 KCAL/MOL
REMARK 927      BINDING AFFINITY PREDICTED BY RF-SCORE:    0.00 PKD
ROOT
HETATM    1  O   UNL     1      -6.947  19.210  65.309  1.00  0.00    -0.459 OA 
HETATM    2  C   UNL     1      -6.314  17.995  65.718  1.00  0.00    -0.252 C  
HETATM    3  H   UNL     1      -6.878  19.280  64.364  1.00  0.00     0.000 HD 
ENDROOT
BRANCH   2   4
HETATM    4  C   UNL     1      -6.426  17.883  67.242  1.00  0.00    -0.164 C  
HETATM    5  H   UNL     1      -7.282  18.916  68.673  1.00  0.00     0.000 HD 
HETATM    6  O   UNL     1      -7.212  18.985  67.728  1.00  0.00    -0.231 OA 
BRANCH   4   7
HETATM    7  C   UNL     1      -7.028  16.542  67.722  1.00  0.00    -0.142 C  
HETATM    8  O   UNL     1      -7.661  15.884  66.607  1.00  0.00    -0.234 OA 
HETATM    9  H   UNL     1      -8.031  15.060  66.902  1.00  0.00     0.000 HD 
BRANCH   7  10
HETATM   10  C   UNL     1      -5.980  15.574  68.329  1.00  0.00    -0.116 C  
HETATM   11  H   UNL     1      -5.049  13.897  67.810  1.00  0.00     0.000 HD 
HETATM   12  O   UNL     1      -5.691  14.491  67.437  1.00  0.00    -0.342 OA 
BRANCH  10  13
HETATM   13  C   UNL     1      -6.415  15.011  69.693  1.00  0.00    -0.154 C  
HETATM   14  H   UNL     1      -5.821  13.574  70.896  1.00  0.00     0.000 HD 
HETATM   15  O   UNL     1      -5.553  13.921  70.054  1.00  0.00    -0.100 OA 
BRANCH  13  16
HETATM   16  C   UNL     1      -7.883  14.536  69.677  1.00  0.00     0.186 C  
HETATM   17  O   UNL     1      -8.016  13.254  69.062  1.00  0.00    -0.334 OA 
HETATM   18  H   UNL     1      -8.920  12.961  69.053  1.00  0.00     0.000 HD 
ENDBRANCH  13  16
ENDBRANCH  10  13
ENDBRANCH   7  10
ENDBRANCH   4   7
ENDBRANCH   2   4
TORSDOF 5
ENDMDL
MODEL      324
REMARK 921   NORMALIZED FREE ENERGY PREDICTED BY IDOCK:   -1.82 KCAL/MOL
REMARK 922        TOTAL FREE ENERGY PREDICTED BY IDOCK:   -2.66 KCAL/MOL
REMARK 923 INTER-LIGAND FREE ENERGY PREDICTED BY IDOCK:   -2.38 KCAL/MOL
REMARK 924 INTRA-LIGAND FREE ENERGY PREDICTED BY IDOCK:   -0.28 KCAL/MOL
REMARK 927      BINDING AFFINITY PREDICTED BY RF-SCORE:    0.00 PKD
ROOT
HETATM    1  O   UNL     1     -10.345   4.443  64.092  1.00  0.00    -0.409 OA 
HETATM    2  C   UNL     1      -9.747   4.444  65.392  1.00  0.00    -0.197 C  
HETATM    3  H   UNL     1     -11.148   3.938  64.134  1.00  0.00     0.000 HD 
ENDROOT
BRANCH   2   4
HETATM    4  C   UNL     1      -8.452   5.259  65.324  1.00  0.00    -0.147 C  
HETATM    5  H   UNL     1      -7.436   6.182  63.922  1.00  0.00     0.000 HD 
HETATM    6  O   UNL     1      -8.240   5.677  63.964  1.00  0.00    -0.124 OA 
BRANCH   4   7
HETATM    7  C   UNL     1      -8.440   6.483  66.270  1.00  0.00    -0.129 C  
HETATM    8  O   UNL     1      -8.119   7.663  65.508  1.00  0.00    -0.115 OA 
HETATM    9  H   UNL     1      -8.111   8.415  66.089  1.00  0.00     0.000 HD 
BRANCH   7  10
HETATM   10  C   UNL     1      -9.789   6.720  66.994  1.00  0.00    -0.167 C  
HETATM   11  H   UNL     1     -11.249   8.069  66.983  1.00  0.00     0.000 HD 
HETATM   12  O   UNL     1     -10.422   7.923  66.539  1.00  0.00    -0.233 OA 
BRANCH  10  13
HETATM   13  C   UNL     1      -9.640   6.769  68.524  1.00  0.00    -0.130 C  
HETATM   14  H   UNL     1      -8.153   6.827  69.809  1.00  0.00     0.000 HD 
HETATM   15  O   UNL     1      -8.245   6.797  68.864  1.00  0.00    -0.118 OA 
BRANCH  13  16
HETATM   16  C   UNL     1     -10.324   5.567  69.207  1.00  0.00    -0.265 C  
HETATM   17  O   UNL     1     -11.171   5.982  70.280  1.00  0.00    -0.347 OA 
HETATM   18  H   UNL     1     -11.592   5.242  70.701  1.00  0.00     0.000 HD 
ENDBRANCH  13  16
ENDBRANCH  10  13
ENDBRANCH   7  10
ENDBRANCH   4   7
ENDBRANCH   2   4
TORSDOF 5
ENDMDL
MODEL      325
REMARK 921   NORMALIZED FREE ENERGY PREDICTED BY IDOCK:   -1.82 KCAL/MOL
REMARK 922        TOTAL FREE ENERGY PREDICTED BY IDOCK:   -2.66 KCAL/MOL
REMARK 923 INTER-LIGAND FREE ENERGY PREDICTED BY IDOCK:   -1.98 KCAL/MOL
REMARK 924 INTRA-LIGAND FREE ENERGY PREDICTED BY IDOCK:   -0.68 KCAL/MOL
REMARK 927      BINDING AFFINITY PREDICTED BY RF-SCORE:    0.00 PKD
ROOT
HETATM    1  O   UNL     1     -10.161  11.115  69.573  1.00  0.00    -0.429 OA 
HETATM    2  C   UNL     1     -10.212  10.819  68.175  1.00  0.00    -0.172 C  
HETATM    3  H   UNL     1     -11.035  11.012  69.932  1.00  0.00     0.000 HD 
ENDROOT
BRANCH   2   4
HETATM    4  C   UNL     1      -8.804  10.986  67.596  1.00  0.00    -0.131 C  
HETATM    5  H   UNL     1      -7.335  12.270  67.804  1.00  0.00     0.000 HD 
HETATM    6  O   UNL     1      -8.209  12.167  68.163  1.00  0.00    -0.148 OA 
BRANCH   4   7
HETATM    7  C   UNL     1      -7.890   9.760  67.830  1.00  0.00    -0.094 C  
HETATM    8  O   UNL     1      -8.497   8.900  68.812  1.00  0.00    -0.128 OA 
HETATM    9  H   UNL     1      -7.936   8.147  68.956  1.00  0.00     0.000 HD 
BRANCH   7  10
HETATM   10  C   UNL     1      -7.627   8.930  66.548  1.00  0.00    -0.092 C  
HETATM   11  H   UNL     1      -6.088   8.041  65.658  1.00  0.00     0.000 HD 
HETATM   12  O   UNL     1      -6.250   8.550  66.444  1.00  0.00    -0.055 OA 
BRANCH  10  13
HETATM   13  C   UNL     1      -8.051   9.668  65.266  1.00  0.00    -0.125 C  
HETATM   14  H   UNL     1      -9.294   9.341  63.778  1.00  0.00     0.000 HD 
HETATM   15  O   UNL     1      -9.032   8.885  64.569  1.00  0.00    -0.113 OA 
BRANCH  13  16
HETATM   16  C   UNL     1      -6.850   9.951  64.341  1.00  0.00    -0.125 C  
HETATM   17  O   UNL     1      -5.923  10.857  64.942  1.00  0.00    -0.366 OA 
HETATM   18  H   UNL     1      -5.183  11.031  64.373  1.00  0.00     0.000 HD 
ENDBRANCH  13  16
ENDBRANCH  10  13
ENDBRANCH   7  10
ENDBRANCH   4   7
ENDBRANCH   2   4
TORSDOF 5
ENDMDL
MODEL      326
REMARK 921   NORMALIZED FREE ENERGY PREDICTED BY IDOCK:   -1.81 KCAL/MOL
REMARK 922        TOTAL FREE ENERGY PREDICTED BY IDOCK:   -2.65 KCAL/MOL
REMARK 923 INTER-LIGAND FREE ENERGY PREDICTED BY IDOCK:   -2.21 KCAL/MOL
REMARK 924 INTRA-LIGAND FREE ENERGY PREDICTED BY IDOCK:   -0.44 KCAL/MOL
REMARK 927      BINDING AFFINITY PREDICTED BY RF-SCORE:    0.00 PKD
ROOT
HETATM    1  O   UNL     1      -7.824   8.661  74.286  1.00  0.00    -0.390 OA 
HETATM    2  C   UNL     1      -7.924   7.844  73.116  1.00  0.00    -0.150 C  
HETATM    3  H   UNL     1      -7.598   8.103  75.022  1.00  0.00     0.000 HD 
ENDROOT
BRANCH   2   4
HETATM    4  C   UNL     1      -8.287   8.743  71.931  1.00  0.00    -0.062 C  
HETATM    5  H   UNL     1      -7.495   9.171  70.188  1.00  0.00     0.000 HD 
HETATM    6  O   UNL     1      -7.269   8.613  70.924  1.00  0.00    -0.057 OA 
BRANCH   4   7
HETATM    7  C   UNL     1      -9.679   8.441  71.329  1.00  0.00    -0.189 C  
HETATM    8  O   UNL     1     -10.171   9.621  70.663  1.00  0.00    -0.276 OA 
HETATM    9  H   UNL     1     -11.026   9.435  70.294  1.00  0.00     0.000 HD 
BRANCH   7  10
HETATM   10  C   UNL     1      -9.675   7.272  70.312  1.00  0.00    -0.175 C  
HETATM   11  H   UNL     1      -9.836   7.030  68.346  1.00  0.00     0.000 HD 
HETATM   12  O   UNL     1      -9.839   7.747  68.970  1.00  0.00    -0.163 OA 
BRANCH  10  13
HETATM   13  C   UNL     1     -10.753   6.218  70.616  1.00  0.00    -0.264 C  
HETATM   14  H   UNL     1     -11.700   5.568  72.212  1.00  0.00     0.000 HD 
HETATM   15  O   UNL     1     -11.034   6.219  72.024  1.00  0.00    -0.234 OA 
BRANCH  13  16
HETATM   16  C   UNL     1     -10.320   4.807  70.168  1.00  0.00    -0.098 C  
HETATM   17  O   UNL     1      -9.771   4.818  68.849  1.00  0.00    -0.156 OA 
HETATM   18  H   UNL     1      -9.504   3.949  68.573  1.00  0.00     0.000 HD 
ENDBRANCH  13  16
ENDBRANCH  10  13
ENDBRANCH   7  10
ENDBRANCH   4   7
ENDBRANCH   2   4
TORSDOF 5
ENDMDL
MODEL      327
REMARK 921   NORMALIZED FREE ENERGY PREDICTED BY IDOCK:   -1.80 KCAL/MOL
REMARK 922        TOTAL FREE ENERGY PREDICTED BY IDOCK:   -2.64 KCAL/MOL
REMARK 923 INTER-LIGAND FREE ENERGY PREDICTED BY IDOCK:   -2.31 KCAL/MOL
REMARK 924 INTRA-LIGAND FREE ENERGY PREDICTED BY IDOCK:   -0.33 KCAL/MOL
REMARK 927      BINDING AFFINITY PREDICTED BY RF-SCORE:    0.00 PKD
ROOT
HETATM    1  O   UNL     1     -10.999   1.605  63.391  1.00  0.00    -0.281 OA 
HETATM    2  C   UNL     1      -9.747   2.031  63.936  1.00  0.00    -0.134 C  
HETATM    3  H   UNL     1     -11.104   0.678  63.574  1.00  0.00     0.000 HD 
ENDROOT
BRANCH   2   4
HETATM    4  C   UNL     1      -9.577   3.524  63.640  1.00  0.00    -0.135 C  
HETATM    5  H   UNL     1     -10.748   4.993  63.073  1.00  0.00     0.000 HD 
HETATM    6  O   UNL     1     -10.853   4.066  63.256  1.00  0.00    -0.172 OA 
BRANCH   4   7
HETATM    7  C   UNL     1      -8.988   4.327  64.823  1.00  0.00    -0.145 C  
HETATM    8  O   UNL     1      -9.107   5.735  64.544  1.00  0.00    -0.344 OA 
HETATM    9  H   UNL     1      -8.744   6.228  65.271  1.00  0.00     0.000 HD 
BRANCH   7  10
HETATM   10  C   UNL     1      -9.684   4.037  66.177  1.00  0.00    -0.186 C  
HETATM   11  H   UNL     1     -10.873   4.987  67.455  1.00  0.00     0.000 HD 
HETATM   12  O   UNL     1     -10.446   5.164  66.625  1.00  0.00    -0.260 OA 
BRANCH  10  13
HETATM   13  C   UNL     1      -8.690   3.623  67.277  1.00  0.00    -0.115 C  
HETATM   14  H   UNL     1      -6.842   2.955  67.351  1.00  0.00     0.000 HD 
HETATM   15  O   UNL     1      -7.456   3.210  66.671  1.00  0.00    -0.073 OA 
BRANCH  13  16
HETATM   16  C   UNL     1      -9.249   2.487  68.159  1.00  0.00    -0.205 C  
HETATM   17  O   UNL     1      -9.930   1.501  67.380  1.00  0.00    -0.259 OA 
HETATM   18  H   UNL     1     -10.274   0.802  67.923  1.00  0.00     0.000 HD 
ENDBRANCH  13  16
ENDBRANCH  10  13
ENDBRANCH   7  10
ENDBRANCH   4   7
ENDBRANCH   2   4
TORSDOF 5
ENDMDL
MODEL      328
REMARK 921   NORMALIZED FREE ENERGY PREDICTED BY IDOCK:   -1.79 KCAL/MOL
REMARK 922        TOTAL FREE ENERGY PREDICTED BY IDOCK:   -2.62 KCAL/MOL
REMARK 923 INTER-LIGAND FREE ENERGY PREDICTED BY IDOCK:   -2.18 KCAL/MOL
REMARK 924 INTRA-LIGAND FREE ENERGY PREDICTED BY IDOCK:   -0.44 KCAL/MOL
REMARK 927      BINDING AFFINITY PREDICTED BY RF-SCORE:    0.00 PKD
ROOT
HETATM    1  O   UNL     1     -10.943   9.074  67.500  1.00  0.00    -0.469 OA 
HETATM    2  C   UNL     1     -10.225   8.071  66.775  1.00  0.00    -0.297 C  
HETATM    3  H   UNL     1     -11.853   9.045  67.227  1.00  0.00     0.000 HD 
ENDROOT
BRANCH   2   4
HETATM    4  C   UNL     1      -8.759   8.118  67.215  1.00  0.00    -0.124 C  
HETATM    5  H   UNL     1      -7.777   8.761  68.787  1.00  0.00     0.000 HD 
HETATM    6  O   UNL     1      -8.686   8.732  68.514  1.00  0.00    -0.133 OA 
BRANCH   4   7
HETATM    7  C   UNL     1      -8.075   6.731  67.239  1.00  0.00    -0.118 C  
HETATM    8  O   UNL     1      -7.077   6.716  68.278  1.00  0.00    -0.077 OA 
HETATM    9  H   UNL     1      -6.656   5.864  68.292  1.00  0.00     0.000 HD 
BRANCH   7  10
HETATM   10  C   UNL     1      -9.058   5.559  67.489  1.00  0.00    -0.107 C  
HETATM   11  H   UNL     1      -9.636   4.420  69.011  1.00  0.00     0.000 HD 
HETATM   12  O   UNL     1      -9.033   5.139  68.858  1.00  0.00    -0.098 OA 
BRANCH  10  13
HETATM   13  C   UNL     1      -8.781   4.350  66.578  1.00  0.00    -0.112 C  
HETATM   14  H   UNL     1      -7.277   3.699  65.493  1.00  0.00     0.000 HD 
HETATM   15  O   UNL     1      -7.448   4.445  66.055  1.00  0.00    -0.082 OA 
BRANCH  13  16
HETATM   16  C   UNL     1      -9.796   4.258  65.420  1.00  0.00    -0.211 C  
HETATM   17  O   UNL     1      -9.385   5.039  64.296  1.00  0.00    -0.354 OA 
HETATM   18  H   UNL     1     -10.009   4.982  63.582  1.00  0.00     0.000 HD 
ENDBRANCH  13  16
ENDBRANCH  10  13
ENDBRANCH   7  10
ENDBRANCH   4   7
ENDBRANCH   2   4
TORSDOF 5
ENDMDL
MODEL      329
REMARK 921   NORMALIZED FREE ENERGY PREDICTED BY IDOCK:   -1.77 KCAL/MOL
REMARK 922        TOTAL FREE ENERGY PREDICTED BY IDOCK:   -2.60 KCAL/MOL
REMARK 923 INTER-LIGAND FREE ENERGY PREDICTED BY IDOCK:   -2.38 KCAL/MOL
REMARK 924 INTRA-LIGAND FREE ENERGY PREDICTED BY IDOCK:   -0.22 KCAL/MOL
REMARK 927      BINDING AFFINITY PREDICTED BY RF-SCORE:    0.00 PKD
ROOT
HETATM    1  O   UNL     1      -6.643   9.516  63.212  1.00  0.00    -0.096 OA 
HETATM    2  C   UNL     1      -7.402   9.718  64.407  1.00  0.00    -0.132 C  
HETATM    3  H   UNL     1      -5.975  10.190  63.165  1.00  0.00     0.000 HD 
ENDROOT
BRANCH   2   4
HETATM    4  C   UNL     1      -8.479   8.631  64.482  1.00  0.00    -0.110 C  
HETATM    5  H   UNL     1      -9.050   7.130  63.355  1.00  0.00     0.000 HD 
HETATM    6  O   UNL     1      -8.382   7.805  63.308  1.00  0.00    -0.046 OA 
BRANCH   4   7
HETATM    7  C   UNL     1      -8.393   7.762  65.758  1.00  0.00    -0.137 C  
HETATM    8  O   UNL     1      -7.034   7.757  66.235  1.00  0.00    -0.060 OA 
HETATM    9  H   UNL     1      -6.981   7.223  67.019  1.00  0.00     0.000 HD 
BRANCH   7  10
HETATM   10  C   UNL     1      -9.312   8.253  66.906  1.00  0.00    -0.176 C  
HETATM   11  H   UNL     1      -9.141   8.731  68.827  1.00  0.00     0.000 HD 
HETATM   12  O   UNL     1      -8.578   8.430  68.124  1.00  0.00    -0.137 OA 
BRANCH  10  13
HETATM   13  C   UNL     1     -10.500   7.309  67.158  1.00  0.00    -0.324 C  
HETATM   14  H   UNL     1     -11.541   6.714  68.717  1.00  0.00     0.000 HD 
HETATM   15  O   UNL     1     -10.807   7.297  68.561  1.00  0.00    -0.162 OA 
BRANCH  13  16
HETATM   16  C   UNL     1     -10.209   5.875  66.671  1.00  0.00    -0.205 C  
HETATM   17  O   UNL     1     -11.310   5.333  65.939  1.00  0.00    -0.793 OA 
HETATM   18  H   UNL     1     -11.131   4.450  65.638  1.00  0.00     0.000 HD 
ENDBRANCH  13  16
ENDBRANCH  10  13
ENDBRANCH   7  10
ENDBRANCH   4   7
ENDBRANCH   2   4
TORSDOF 5
ENDMDL
MODEL      330
REMARK 921   NORMALIZED FREE ENERGY PREDICTED BY IDOCK:   -1.75 KCAL/MOL
REMARK 922        TOTAL FREE ENERGY PREDICTED BY IDOCK:   -2.58 KCAL/MOL
REMARK 923 INTER-LIGAND FREE ENERGY PREDICTED BY IDOCK:   -2.16 KCAL/MOL
REMARK 924 INTRA-LIGAND FREE ENERGY PREDICTED BY IDOCK:   -0.42 KCAL/MOL
REMARK 927      BINDING AFFINITY PREDICTED BY RF-SCORE:    0.00 PKD
ROOT
HETATM    1  O   UNL     1      -8.561   8.170  63.252  1.00  0.00    -0.411 OA 
HETATM    2  C   UNL     1      -8.224   9.499  62.845  1.00  0.00    -0.158 C  
HETATM    3  H   UNL     1      -7.998   7.563  62.785  1.00  0.00     0.000 HD 
ENDROOT
BRANCH   2   4
HETATM    4  C   UNL     1      -9.132  10.477  63.597  1.00  0.00    -0.239 C  
HETATM    5  H   UNL     1     -11.052  10.878  63.632  1.00  0.00     0.000 HD 
HETATM    6  O   UNL     1     -10.489  10.272  63.165  1.00  0.00     0.382 OA 
BRANCH   4   7
HETATM    7  C   UNL     1      -9.034  10.355  65.135  1.00  0.00    -0.191 C  
HETATM    8  O   UNL     1      -7.784   9.728  65.480  1.00  0.00    -0.112 OA 
HETATM    9  H   UNL     1      -7.724   9.653  66.425  1.00  0.00     0.000 HD 
BRANCH   7  10
HETATM   10  C   UNL     1      -9.117  11.716  65.872  1.00  0.00    -0.149 C  
HETATM   11  H   UNL     1      -8.687  12.447  67.669  1.00  0.00     0.000 HD 
HETATM   12  O   UNL     1      -8.636  11.613  67.217  1.00  0.00    -0.143 OA 
BRANCH  10  13
HETATM   13  C   UNL     1     -10.541  12.298  65.882  1.00  0.00    -0.256 C  
HETATM   14  H   UNL     1     -11.598  13.500  64.739  1.00  0.00     0.000 HD 
HETATM   15  O   UNL     1     -10.719  13.140  64.733  1.00  0.00    -0.323 OA 
BRANCH  13  16
HETATM   16  C   UNL     1     -10.826  13.099  67.170  1.00  0.00    -0.257 C  
HETATM   17  O   UNL     1     -11.616  12.348  68.094  1.00  0.00    -0.298 OA 
HETATM   18  H   UNL     1     -11.791  12.841  68.887  1.00  0.00     0.000 HD 
ENDBRANCH  13  16
ENDBRANCH  10  13
ENDBRANCH   7  10
ENDBRANCH   4   7
ENDBRANCH   2   4
TORSDOF 5
ENDMDL
MODEL      331
REMARK 921   NORMALIZED FREE ENERGY PREDICTED BY IDOCK:   -1.74 KCAL/MOL
REMARK 922        TOTAL FREE ENERGY PREDICTED BY IDOCK:   -2.56 KCAL/MOL
REMARK 923 INTER-LIGAND FREE ENERGY PREDICTED BY IDOCK:   -2.08 KCAL/MOL
REMARK 924 INTRA-LIGAND FREE ENERGY PREDICTED BY IDOCK:   -0.48 KCAL/MOL
REMARK 927      BINDING AFFINITY PREDICTED BY RF-SCORE:    0.00 PKD
ROOT
HETATM    1  O   UNL     1      -6.618   7.311  67.349  1.00  0.00    -0.058 OA 
HETATM    2  C   UNL     1      -6.890   6.079  66.675  1.00  0.00    -0.062 C  
HETATM    3  H   UNL     1      -5.774   7.633  67.054  1.00  0.00     0.000 HD 
ENDROOT
BRANCH   2   4
HETATM    4  C   UNL     1      -8.250   5.561  67.150  1.00  0.00    -0.101 C  
HETATM    5  H   UNL     1      -8.941   4.683  68.763  1.00  0.00     0.000 HD 
HETATM    6  O   UNL     1      -8.097   5.004  68.468  1.00  0.00    -0.085 OA 
BRANCH   4   7
HETATM    7  C   UNL     1      -9.359   6.639  67.149  1.00  0.00    -0.134 C  
HETATM    8  O   UNL     1     -10.385   6.258  66.212  1.00  0.00    -0.425 OA 
HETATM    9  H   UNL     1     -11.066   6.920  66.210  1.00  0.00     0.000 HD 
BRANCH   7  10
HETATM   10  C   UNL     1     -10.018   6.852  68.535  1.00  0.00    -0.148 C  
HETATM   11  H   UNL     1     -11.742   6.427  69.427  1.00  0.00     0.000 HD 
HETATM   12  O   UNL     1     -11.338   6.296  68.577  1.00  0.00    -0.324 OA 
BRANCH  10  13
HETATM   13  C   UNL     1     -10.076   8.335  68.941  1.00  0.00    -0.199 C  
HETATM   14  H   UNL     1      -8.787   9.804  69.159  1.00  0.00     0.000 HD 
HETATM   15  O   UNL     1      -8.752   8.889  68.909  1.00  0.00    -0.133 OA 
BRANCH  13  16
HETATM   16  C   UNL     1     -10.691   8.524  70.343  1.00  0.00    -0.228 C  
HETATM   17  O   UNL     1      -9.953   7.817  71.342  1.00  0.00    -0.177 OA 
HETATM   18  H   UNL     1     -10.332   7.934  72.205  1.00  0.00     0.000 HD 
ENDBRANCH  13  16
ENDBRANCH  10  13
ENDBRANCH   7  10
ENDBRANCH   4   7
ENDBRANCH   2   4
TORSDOF 5
ENDMDL
MODEL      332
REMARK 921   NORMALIZED FREE ENERGY PREDICTED BY IDOCK:   -1.73 KCAL/MOL
REMARK 922        TOTAL FREE ENERGY PREDICTED BY IDOCK:   -2.55 KCAL/MOL
REMARK 923 INTER-LIGAND FREE ENERGY PREDICTED BY IDOCK:   -2.25 KCAL/MOL
REMARK 924 INTRA-LIGAND FREE ENERGY PREDICTED BY IDOCK:   -0.30 KCAL/MOL
REMARK 927      BINDING AFFINITY PREDICTED BY RF-SCORE:    0.00 PKD
ROOT
HETATM    1  O   UNL     1      -9.630   1.746  66.314  1.00  0.00    -0.333 OA 
HETATM    2  C   UNL     1      -8.523   2.385  66.957  1.00  0.00    -0.099 C  
HETATM    3  H   UNL     1      -9.328   0.922  65.950  1.00  0.00     0.000 HD 
ENDROOT
BRANCH   2   4
HETATM    4  C   UNL     1      -9.009   3.714  67.542  1.00  0.00    -0.140 C  
HETATM    5  H   UNL     1     -10.255   5.127  66.993  1.00  0.00     0.000 HD 
HETATM    6  O   UNL     1      -9.953   4.303  66.630  1.00  0.00    -0.224 OA 
BRANCH   4   7
HETATM    7  C   UNL     1      -9.637   3.578  68.949  1.00  0.00    -0.070 C  
HETATM    8  O   UNL     1      -8.998   2.493  69.648  1.00  0.00    -0.082 OA 
HETATM    9  H   UNL     1      -9.384   2.409  70.512  1.00  0.00     0.000 HD 
BRANCH   7  10
HETATM   10  C   UNL     1      -9.507   4.859  69.812  1.00  0.00    -0.154 C  
HETATM   11  H   UNL     1      -9.086   5.328  71.697  1.00  0.00     0.000 HD 
HETATM   12  O   UNL     1      -9.165   4.543  71.167  1.00  0.00    -0.127 OA 
BRANCH  10  13
HETATM   13  C   UNL     1     -10.785   5.717  69.795  1.00  0.00    -0.331 C  
HETATM   14  H   UNL     1     -11.490   7.200  68.714  1.00  0.00     0.000 HD 
HETATM   15  O   UNL     1     -10.702   6.670  68.724  1.00  0.00    -0.217 OA 
BRANCH  13  16
HETATM   16  C   UNL     1     -11.004   6.449  71.135  1.00  0.00    -0.275 C  
HETATM   17  O   UNL     1     -10.250   7.660  71.204  1.00  0.00    -0.196 OA 
HETATM   18  H   UNL     1     -10.385   8.111  72.029  1.00  0.00     0.000 HD 
ENDBRANCH  13  16
ENDBRANCH  10  13
ENDBRANCH   7  10
ENDBRANCH   4   7
ENDBRANCH   2   4
TORSDOF 5
ENDMDL
MODEL      333
REMARK 921   NORMALIZED FREE ENERGY PREDICTED BY IDOCK:   -1.70 KCAL/MOL
REMARK 922        TOTAL FREE ENERGY PREDICTED BY IDOCK:   -2.50 KCAL/MOL
REMARK 923 INTER-LIGAND FREE ENERGY PREDICTED BY IDOCK:   -2.32 KCAL/MOL
REMARK 924 INTRA-LIGAND FREE ENERGY PREDICTED BY IDOCK:   -0.18 KCAL/MOL
REMARK 927      BINDING AFFINITY PREDICTED BY RF-SCORE:    0.00 PKD
ROOT
HETATM    1  O   UNL     1     -12.733   8.923  71.579  1.00  0.00    -0.320 OA 
HETATM    2  C   UNL     1     -11.915   8.305  72.577  1.00  0.00    -0.356 C  
HETATM    3  H   UNL     1     -13.331   9.521  72.011  1.00  0.00     0.000 HD 
ENDROOT
BRANCH   2   4
HETATM    4  C   UNL     1     -10.952   7.340  71.879  1.00  0.00    -0.230 C  
HETATM    5  H   UNL     1      -9.239   7.492  70.935  1.00  0.00     0.000 HD 
HETATM    6  O   UNL     1      -9.837   8.091  71.367  1.00  0.00    -0.165 OA 
BRANCH   4   7
HETATM    7  C   UNL     1     -10.454   6.195  72.792  1.00  0.00    -0.216 C  
HETATM    8  O   UNL     1     -11.560   5.697  73.569  1.00  0.00    -0.403 OA 
HETATM    9  H   UNL     1     -11.254   4.994  74.130  1.00  0.00     0.000 HD 
BRANCH   7  10
HETATM   10  C   UNL     1      -9.830   5.008  72.014  1.00  0.00    -0.174 C  
HETATM   11  H   UNL     1      -9.941   3.024  72.017  1.00  0.00     0.000 HD 
HETATM   12  O   UNL     1     -10.323   3.752  72.494  1.00  0.00    -0.168 OA 
BRANCH  10  13
HETATM   13  C   UNL     1      -8.293   5.008  72.067  1.00  0.00    -0.124 C  
HETATM   14  H   UNL     1      -6.823   5.335  70.803  1.00  0.00     0.000 HD 
HETATM   15  O   UNL     1      -7.772   5.335  70.770  1.00  0.00    -0.084 OA 
BRANCH  13  16
HETATM   16  C   UNL     1      -7.734   3.646  72.530  1.00  0.00    -0.067 C  
HETATM   17  O   UNL     1      -6.416   3.419  72.027  1.00  0.00    -0.014 OA 
HETATM   18  H   UNL     1      -6.072   2.581  72.312  1.00  0.00     0.000 HD 
ENDBRANCH  13  16
ENDBRANCH  10  13
ENDBRANCH   7  10
ENDBRANCH   4   7
ENDBRANCH   2   4
TORSDOF 5
ENDMDL
MODEL      334
REMARK 921   NORMALIZED FREE ENERGY PREDICTED BY IDOCK:   -1.68 KCAL/MOL
REMARK 922        TOTAL FREE ENERGY PREDICTED BY IDOCK:   -2.49 KCAL/MOL
REMARK 923 INTER-LIGAND FREE ENERGY PREDICTED BY IDOCK:   -1.99 KCAL/MOL
REMARK 924 INTRA-LIGAND FREE ENERGY PREDICTED BY IDOCK:   -0.49 KCAL/MOL
REMARK 927      BINDING AFFINITY PREDICTED BY RF-SCORE:    0.00 PKD
ROOT
HETATM    1  O   UNL     1     -10.886   1.686  63.714  1.00  0.00    -0.373 OA 
HETATM    2  C   UNL     1      -9.750   2.340  64.287  1.00  0.00    -0.104 C  
HETATM    3  H   UNL     1     -10.742   0.747  63.755  1.00  0.00     0.000 HD 
ENDROOT
BRANCH   2   4
HETATM    4  C   UNL     1      -9.982   3.852  64.221  1.00  0.00    -0.193 C  
HETATM    5  H   UNL     1     -11.519   5.054  64.425  1.00  0.00     0.000 HD 
HETATM    6  O   UNL     1     -11.375   4.116  64.466  1.00  0.00    -0.301 OA 
BRANCH   4   7
HETATM    7  C   UNL     1      -9.102   4.657  65.204  1.00  0.00    -0.155 C  
HETATM    8  O   UNL     1      -9.811   5.845  65.608  1.00  0.00    -0.368 OA 
HETATM    9  H   UNL     1      -9.270   6.340  66.212  1.00  0.00     0.000 HD 
BRANCH   7  10
HETATM   10  C   UNL     1      -8.711   3.865  66.478  1.00  0.00    -0.115 C  
HETATM   11  H   UNL     1      -9.425   3.576  68.310  1.00  0.00     0.000 HD 
HETATM   12  O   UNL     1      -9.664   4.062  67.529  1.00  0.00    -0.184 OA 
BRANCH  10  13
HETATM   13  C   UNL     1      -7.305   4.224  66.990  1.00  0.00    -0.073 C  
HETATM   14  H   UNL     1      -6.357   5.864  67.521  1.00  0.00     0.000 HD 
HETATM   15  O   UNL     1      -7.225   5.642  67.204  1.00  0.00    -0.072 OA 
BRANCH  13  16
HETATM   16  C   UNL     1      -6.203   3.778  66.007  1.00  0.00    -0.032 C  
HETATM   17  O   UNL     1      -6.245   2.370  65.771  1.00  0.00    -0.023 OA 
HETATM   18  H   UNL     1      -5.568   2.095  65.165  1.00  0.00     0.000 HD 
ENDBRANCH  13  16
ENDBRANCH  10  13
ENDBRANCH   7  10
ENDBRANCH   4   7
ENDBRANCH   2   4
TORSDOF 5
ENDMDL
MODEL      335
REMARK 921   NORMALIZED FREE ENERGY PREDICTED BY IDOCK:   -1.68 KCAL/MOL
REMARK 922        TOTAL FREE ENERGY PREDICTED BY IDOCK:   -2.48 KCAL/MOL
REMARK 923 INTER-LIGAND FREE ENERGY PREDICTED BY IDOCK:   -2.72 KCAL/MOL
REMARK 924 INTRA-LIGAND FREE ENERGY PREDICTED BY IDOCK:    0.24 KCAL/MOL
REMARK 927      BINDING AFFINITY PREDICTED BY RF-SCORE:    0.00 PKD
ROOT
HETATM    1  O   UNL     1     -10.122   6.658  69.335  1.00  0.00    -0.166 OA 
HETATM    2  C   UNL     1      -9.126   7.466  68.702  1.00  0.00    -0.134 C  
HETATM    3  H   UNL     1      -9.830   6.462  70.218  1.00  0.00     0.000 HD 
ENDROOT
BRANCH   2   4
HETATM    4  C   UNL     1      -9.597   7.780  67.279  1.00  0.00    -0.161 C  
HETATM    5  H   UNL     1     -10.584   6.829  65.876  1.00  0.00     0.000 HD 
HETATM    6  O   UNL     1     -10.292   6.634  66.759  1.00  0.00    -0.219 OA 
BRANCH   4   7
HETATM    7  C   UNL     1     -10.492   9.038  67.186  1.00  0.00    -0.263 C  
HETATM    8  O   UNL     1     -10.915   9.414  68.511  1.00  0.00    -0.422 OA 
HETATM    9  H   UNL     1     -11.465  10.186  68.455  1.00  0.00     0.000 HD 
BRANCH   7  10
HETATM   10  C   UNL     1      -9.787  10.255  66.535  1.00  0.00    -0.212 C  
HETATM   11  H   UNL     1      -7.942  10.790  66.028  1.00  0.00     0.000 HD 
HETATM   12  O   UNL     1      -8.374  10.044  66.427  1.00  0.00    -0.123 OA 
BRANCH  10  13
HETATM   13  C   UNL     1     -10.051  11.568  67.292  1.00  0.00    -0.199 C  
HETATM   14  H   UNL     1      -9.779  12.238  69.121  1.00  0.00     0.000 HD 
HETATM   15  O   UNL     1      -9.616  11.427  68.653  1.00  0.00    -0.195 OA 
BRANCH  13  16
HETATM   16  C   UNL     1     -11.542  11.963  67.255  1.00  0.00    -0.293 C  
HETATM   17  O   UNL     1     -11.865  12.901  68.283  1.00  0.00    -0.329 OA 
HETATM   18  H   UNL     1     -12.782  13.145  68.260  1.00  0.00     0.000 HD 
ENDBRANCH  13  16
ENDBRANCH  10  13
ENDBRANCH   7  10
ENDBRANCH   4   7
ENDBRANCH   2   4
TORSDOF 5
ENDMDL
MODEL      336
REMARK 921   NORMALIZED FREE ENERGY PREDICTED BY IDOCK:   -1.64 KCAL/MOL
REMARK 922        TOTAL FREE ENERGY PREDICTED BY IDOCK:   -2.43 KCAL/MOL
REMARK 923 INTER-LIGAND FREE ENERGY PREDICTED BY IDOCK:   -1.83 KCAL/MOL
REMARK 924 INTRA-LIGAND FREE ENERGY PREDICTED BY IDOCK:   -0.60 KCAL/MOL
REMARK 927      BINDING AFFINITY PREDICTED BY RF-SCORE:    0.00 PKD
ROOT
HETATM    1  O   UNL     1      -8.659   7.627  63.094  1.00  0.00    -0.372 OA 
HETATM    2  C   UNL     1      -8.329   8.996  62.842  1.00  0.00    -0.202 C  
HETATM    3  H   UNL     1      -8.502   7.131  62.299  1.00  0.00     0.000 HD 
ENDROOT
BRANCH   2   4
HETATM    4  C   UNL     1      -8.581   9.795  64.124  1.00  0.00    -0.194 C  
HETATM    5  H   UNL     1     -10.136  10.619  64.990  1.00  0.00     0.000 HD 
HETATM    6  O   UNL     1      -9.980  10.124  64.195  1.00  0.00    -0.278 OA 
BRANCH   4   7
HETATM    7  C   UNL     1      -8.137   9.059  65.410  1.00  0.00    -0.120 C  
HETATM    8  O   UNL     1      -6.908   8.355  65.149  1.00  0.00    -0.066 OA 
HETATM    9  H   UNL     1      -6.635   7.903  65.939  1.00  0.00     0.000 HD 
BRANCH   7  10
HETATM   10  C   UNL     1      -7.913  10.003  66.618  1.00  0.00    -0.115 C  
HETATM   11  H   UNL     1      -9.018  10.962  67.964  1.00  0.00     0.000 HD 
HETATM   12  O   UNL     1      -9.155  10.383  67.223  1.00  0.00    -0.136 OA 
BRANCH  10  13
HETATM   13  C   UNL     1      -7.121  11.268  66.243  1.00  0.00     0.007 C  
HETATM   14  H   UNL     1      -5.374  11.667  65.433  1.00  0.00     0.000 HD 
HETATM   15  O   UNL     1      -5.863  10.886  65.665  1.00  0.00    -0.139 OA 
BRANCH  13  16
HETATM   16  C   UNL     1      -6.884  12.181  67.463  1.00  0.00    -0.127 C  
HETATM   17  O   UNL     1      -7.264  11.542  68.683  1.00  0.00    -0.088 OA 
HETATM   18  H   UNL     1      -7.118  12.104  69.434  1.00  0.00     0.000 HD 
ENDBRANCH  13  16
ENDBRANCH  10  13
ENDBRANCH   7  10
ENDBRANCH   4   7
ENDBRANCH   2   4
TORSDOF 5
ENDMDL
MODEL      337
REMARK 921   NORMALIZED FREE ENERGY PREDICTED BY IDOCK:   -1.61 KCAL/MOL
REMARK 922        TOTAL FREE ENERGY PREDICTED BY IDOCK:   -2.39 KCAL/MOL
REMARK 923 INTER-LIGAND FREE ENERGY PREDICTED BY IDOCK:   -1.79 KCAL/MOL
REMARK 924 INTRA-LIGAND FREE ENERGY PREDICTED BY IDOCK:   -0.60 KCAL/MOL
REMARK 927      BINDING AFFINITY PREDICTED BY RF-SCORE:    0.00 PKD
ROOT
HETATM    1  O   UNL     1      -6.273   3.863  65.857  1.00  0.00    -0.030 OA 
HETATM    2  C   UNL     1      -7.106   5.021  65.964  1.00  0.00    -0.072 C  
HETATM    3  H   UNL     1      -5.520   4.086  65.321  1.00  0.00     0.000 HD 
ENDROOT
BRANCH   2   4
HETATM    4  C   UNL     1      -8.319   4.663  66.828  1.00  0.00    -0.106 C  
HETATM    5  H   UNL     1      -9.488   3.102  67.039  1.00  0.00     0.000 HD 
HETATM    6  O   UNL     1      -8.736   3.324  66.504  1.00  0.00    -0.115 OA 
BRANCH   4   7
HETATM    7  C   UNL     1      -8.057   4.790  68.347  1.00  0.00    -0.084 C  
HETATM    8  O   UNL     1      -6.668   4.517  68.610  1.00  0.00    -0.044 OA 
HETATM    9  H   UNL     1      -6.507   4.595  69.543  1.00  0.00     0.000 HD 
BRANCH   7  10
HETATM   10  C   UNL     1      -8.397   6.189  68.919  1.00  0.00    -0.115 C  
HETATM   11  H   UNL     1      -8.776   7.003  70.693  1.00  0.00     0.000 HD 
HETATM   12  O   UNL     1      -8.568   6.145  70.341  1.00  0.00    -0.130 OA 
BRANCH  10  13
HETATM   13  C   UNL     1      -9.651   6.805  68.274  1.00  0.00    -0.127 C  
HETATM   14  H   UNL     1     -10.389   8.611  68.032  1.00  0.00     0.000 HD 
HETATM   15  O   UNL     1      -9.615   8.231  68.431  1.00  0.00    -0.142 OA 
BRANCH  13  16
HETATM   16  C   UNL     1     -10.949   6.241  68.888  1.00  0.00    -0.368 C  
HETATM   17  O   UNL     1     -11.442   7.075  69.938  1.00  0.00    -0.460 OA 
HETATM   18  H   UNL     1     -12.241   6.729  70.316  1.00  0.00     0.000 HD 
ENDBRANCH  13  16
ENDBRANCH  10  13
ENDBRANCH   7  10
ENDBRANCH   4   7
ENDBRANCH   2   4
TORSDOF 5
ENDMDL
MODEL      338
REMARK 921   NORMALIZED FREE ENERGY PREDICTED BY IDOCK:   -1.55 KCAL/MOL
REMARK 922        TOTAL FREE ENERGY PREDICTED BY IDOCK:   -2.32 KCAL/MOL
REMARK 923 INTER-LIGAND FREE ENERGY PREDICTED BY IDOCK:   -1.97 KCAL/MOL
REMARK 924 INTRA-LIGAND FREE ENERGY PREDICTED BY IDOCK:   -0.35 KCAL/MOL
REMARK 927      BINDING AFFINITY PREDICTED BY RF-SCORE:    0.00 PKD
ROOT
HETATM    1  O   UNL     1      -5.768  10.985  64.189  1.00  0.00    -0.390 OA 
HETATM    2  C   UNL     1      -5.990   9.928  65.126  1.00  0.00    -0.095 C  
HETATM    3  H   UNL     1      -5.176  10.668  63.516  1.00  0.00     0.000 HD 
ENDROOT
BRANCH   2   4
HETATM    4  C   UNL     1      -6.944  10.439  66.210  1.00  0.00    -0.118 C  
HETATM    5  H   UNL     1      -8.789  11.103  66.267  1.00  0.00     0.000 HD 
HETATM    6  O   UNL     1      -8.197  10.786  65.595  1.00  0.00    -0.162 OA 
BRANCH   4   7
HETATM    7  C   UNL     1      -7.173   9.430  67.360  1.00  0.00    -0.087 C  
HETATM    8  O   UNL     1      -5.970   8.663  67.560  1.00  0.00    -0.046 OA 
HETATM    9  H   UNL     1      -6.110   8.044  68.266  1.00  0.00     0.000 HD 
BRANCH   7  10
HETATM   10  C   UNL     1      -7.555  10.099  68.705  1.00  0.00    -0.086 C  
HETATM   11  H   UNL     1      -6.625  10.854  70.291  1.00  0.00     0.000 HD 
HETATM   12  O   UNL     1      -6.391  10.443  69.466  1.00  0.00    -0.047 OA 
BRANCH  10  13
HETATM   13  C   UNL     1      -8.484   9.220  69.560  1.00  0.00    -0.144 C  
HETATM   14  H   UNL     1      -9.359   7.469  69.374  1.00  0.00     0.000 HD 
HETATM   15  O   UNL     1      -8.785   8.012  68.846  1.00  0.00    -0.130 OA 
BRANCH  13  16
HETATM   16  C   UNL     1      -9.790   9.953  69.929  1.00  0.00    -0.245 C  
HETATM   17  O   UNL     1      -9.800  11.294  69.436  1.00  0.00    -0.420 OA 
HETATM   18  H   UNL     1     -10.605  11.745  69.662  1.00  0.00     0.000 HD 
ENDBRANCH  13  16
ENDBRANCH  10  13
ENDBRANCH   7  10
ENDBRANCH   4   7
ENDBRANCH   2   4
TORSDOF 5
ENDMDL
MODEL      339
REMARK 921   NORMALIZED FREE ENERGY PREDICTED BY IDOCK:   -1.54 KCAL/MOL
REMARK 922        TOTAL FREE ENERGY PREDICTED BY IDOCK:   -2.31 KCAL/MOL
REMARK 923 INTER-LIGAND FREE ENERGY PREDICTED BY IDOCK:   -1.96 KCAL/MOL
REMARK 924 INTRA-LIGAND FREE ENERGY PREDICTED BY IDOCK:   -0.35 KCAL/MOL
REMARK 927      BINDING AFFINITY PREDICTED BY RF-SCORE:    0.00 PKD
ROOT
HETATM    1  O   UNL     1      -8.971   5.432  64.405  1.00  0.00    -0.350 OA 
HETATM    2  C   UNL     1      -9.677   4.672  65.390  1.00  0.00    -0.162 C  
HETATM    3  H   UNL     1      -9.510   5.484  63.625  1.00  0.00     0.000 HD 
ENDROOT
BRANCH   2   4
HETATM    4  C   UNL     1      -8.808   4.587  66.648  1.00  0.00    -0.112 C  
HETATM    5  H   UNL     1      -7.884   5.867  67.813  1.00  0.00     0.000 HD 
HETATM    6  O   UNL     1      -8.424   5.919  67.033  1.00  0.00    -0.109 OA 
BRANCH   4   7
HETATM    7  C   UNL     1      -9.496   3.865  67.829  1.00  0.00    -0.179 C  
HETATM    8  O   UNL     1      -9.676   2.476  67.491  1.00  0.00    -0.391 OA 
HETATM    9  H   UNL     1     -10.099   2.032  68.217  1.00  0.00     0.000 HD 
BRANCH   7  10
HETATM   10  C   UNL     1      -8.697   3.945  69.155  1.00  0.00    -0.085 C  
HETATM   11  H   UNL     1      -7.032   3.177  69.921  1.00  0.00     0.000 HD 
HETATM   12  O   UNL     1      -7.522   3.128  69.108  1.00  0.00    -0.048 OA 
BRANCH  10  13
HETATM   13  C   UNL     1      -9.543   3.554  70.380  1.00  0.00    -0.171 C  
HETATM   14  H   UNL     1     -10.711   4.483  71.660  1.00  0.00     0.000 HD 
HETATM   15  O   UNL     1     -10.189   4.724  70.904  1.00  0.00    -0.223 OA 
BRANCH  13  16
HETATM   16  C   UNL     1      -8.689   2.888  71.478  1.00  0.00    -0.070 C  
HETATM   17  O   UNL     1      -7.748   3.802  72.042  1.00  0.00    -0.060 OA 
HETATM   18  H   UNL     1      -7.222   3.392  72.719  1.00  0.00     0.000 HD 
ENDBRANCH  13  16
ENDBRANCH  10  13
ENDBRANCH   7  10
ENDBRANCH   4   7
ENDBRANCH   2   4
TORSDOF 5
ENDMDL
MODEL      340
REMARK 921   NORMALIZED FREE ENERGY PREDICTED BY IDOCK:   -1.52 KCAL/MOL
REMARK 922        TOTAL FREE ENERGY PREDICTED BY IDOCK:   -2.28 KCAL/MOL
REMARK 923 INTER-LIGAND FREE ENERGY PREDICTED BY IDOCK:   -1.85 KCAL/MOL
REMARK 924 INTRA-LIGAND FREE ENERGY PREDICTED BY IDOCK:   -0.43 KCAL/MOL
REMARK 927      BINDING AFFINITY PREDICTED BY RF-SCORE:    0.00 PKD
ROOT
HETATM    1  O   UNL     1      -9.056  10.306  63.967  1.00  0.00    -0.206 OA 
HETATM    2  C   UNL     1      -7.827   9.663  64.315  1.00  0.00    -0.130 C  
HETATM    3  H   UNL     1      -8.860  11.188  63.674  1.00  0.00     0.000 HD 
ENDROOT
BRANCH   2   4
HETATM    4  C   UNL     1      -8.144   8.242  64.789  1.00  0.00    -0.151 C  
HETATM    5  H   UNL     1      -7.134   6.579  65.042  1.00  0.00     0.000 HD 
HETATM    6  O   UNL     1      -6.937   7.461  64.748  1.00  0.00    -0.049 OA 
BRANCH   4   7
HETATM    7  C   UNL     1      -8.772   8.185  66.201  1.00  0.00    -0.156 C  
HETATM    8  O   UNL     1     -10.205   8.276  66.084  1.00  0.00    -0.457 OA 
HETATM    9  H   UNL     1     -10.590   8.242  66.952  1.00  0.00     0.000 HD 
BRANCH   7  10
HETATM   10  C   UNL     1      -8.426   6.892  66.982  1.00  0.00    -0.121 C  
HETATM   11  H   UNL     1      -9.355   5.240  67.581  1.00  0.00     0.000 HD 
HETATM   12  O   UNL     1      -9.566   6.033  67.102  1.00  0.00    -0.117 OA 
BRANCH  10  13
HETATM   13  C   UNL     1      -7.855   7.180  68.382  1.00  0.00    -0.122 C  
HETATM   14  H   UNL     1      -8.383   6.813  70.240  1.00  0.00     0.000 HD 
HETATM   15  O   UNL     1      -8.736   6.635  69.376  1.00  0.00    -0.133 OA 
BRANCH  13  16
HETATM   16  C   UNL     1      -7.660   8.691  68.623  1.00  0.00    -0.097 C  
HETATM   17  O   UNL     1      -8.218   9.102  69.872  1.00  0.00    -0.112 OA 
HETATM   18  H   UNL     1      -8.098  10.033  70.022  1.00  0.00     0.000 HD 
ENDBRANCH  13  16
ENDBRANCH  10  13
ENDBRANCH   7  10
ENDBRANCH   4   7
ENDBRANCH   2   4
TORSDOF 5
ENDMDL
MODEL      341
REMARK 921   NORMALIZED FREE ENERGY PREDICTED BY IDOCK:   -1.49 KCAL/MOL
REMARK 922        TOTAL FREE ENERGY PREDICTED BY IDOCK:   -2.24 KCAL/MOL
REMARK 923 INTER-LIGAND FREE ENERGY PREDICTED BY IDOCK:   -2.59 KCAL/MOL
REMARK 924 INTRA-LIGAND FREE ENERGY PREDICTED BY IDOCK:    0.35 KCAL/MOL
REMARK 927      BINDING AFFINITY PREDICTED BY RF-SCORE:    0.00 PKD
ROOT
HETATM    1  O   UNL     1      -8.808   6.511  67.699  1.00  0.00    -0.115 OA 
HETATM    2  C   UNL     1     -10.187   6.856  67.547  1.00  0.00    -0.194 C  
HETATM    3  H   UNL     1      -8.656   5.684  67.256  1.00  0.00     0.000 HD 
ENDROOT
BRANCH   2   4
HETATM    4  C   UNL     1     -10.431   8.188  68.262  1.00  0.00    -0.160 C  
HETATM    5  H   UNL     1      -9.421   9.336  69.492  1.00  0.00     0.000 HD 
HETATM    6  O   UNL     1      -9.270   8.509  69.048  1.00  0.00    -0.146 OA 
BRANCH   4   7
HETATM    7  C   UNL     1     -10.768   9.354  67.303  1.00  0.00    -0.188 C  
HETATM    8  O   UNL     1     -11.735  10.216  67.931  1.00  0.00    -0.646 OA 
HETATM    9  H   UNL     1     -11.943  10.932  67.342  1.00  0.00     0.000 HD 
BRANCH   7  10
HETATM   10  C   UNL     1      -9.536  10.207  66.908  1.00  0.00    -0.177 C  
HETATM   11  H   UNL     1      -7.748   9.922  66.088  1.00  0.00     0.000 HD 
HETATM   12  O   UNL     1      -8.504   9.399  66.331  1.00  0.00    -0.123 OA 
BRANCH  10  13
HETATM   13  C   UNL     1      -8.960  11.001  68.094  1.00  0.00    -0.152 C  
HETATM   14  H   UNL     1      -9.584  12.434  69.286  1.00  0.00     0.000 HD 
HETATM   15  O   UNL     1      -9.940  11.944  68.554  1.00  0.00    -0.207 OA 
BRANCH  13  16
HETATM   16  C   UNL     1      -7.659  11.737  67.715  1.00  0.00    -0.127 C  
HETATM   17  O   UNL     1      -7.591  12.002  66.313  1.00  0.00    -0.354 OA 
HETATM   18  H   UNL     1      -6.790  12.455  66.079  1.00  0.00     0.000 HD 
ENDBRANCH  13  16
ENDBRANCH  10  13
ENDBRANCH   7  10
ENDBRANCH   4   7
ENDBRANCH   2   4
TORSDOF 5
ENDMDL
MODEL      342
REMARK 921   NORMALIZED FREE ENERGY PREDICTED BY IDOCK:   -1.47 KCAL/MOL
REMARK 922        TOTAL FREE ENERGY PREDICTED BY IDOCK:   -2.22 KCAL/MOL
REMARK 923 INTER-LIGAND FREE ENERGY PREDICTED BY IDOCK:   -2.34 KCAL/MOL
REMARK 924 INTRA-LIGAND FREE ENERGY PREDICTED BY IDOCK:    0.12 KCAL/MOL
REMARK 927      BINDING AFFINITY PREDICTED BY RF-SCORE:    0.00 PKD
ROOT
HETATM    1  O   UNL     1      -6.090  10.859  64.252  1.00  0.00    -0.369 OA 
HETATM    2  C   UNL     1      -6.512   9.718  65.006  1.00  0.00    -0.098 C  
HETATM    3  H   UNL     1      -5.189  10.722  63.983  1.00  0.00     0.000 HD 
ENDROOT
BRANCH   2   4
HETATM    4  C   UNL     1      -7.964   9.939  65.439  1.00  0.00    -0.134 C  
HETATM    5  H   UNL     1      -8.900  10.239  67.137  1.00  0.00     0.000 HD 
HETATM    6  O   UNL     1      -7.999  10.102  66.868  1.00  0.00    -0.112 OA 
BRANCH   4   7
HETATM    7  C   UNL     1      -8.641  11.144  64.746  1.00  0.00     0.186 C  
HETATM    8  O   UNL     1      -8.289  11.143  63.349  1.00  0.00    -0.380 OA 
HETATM    9  H   UNL     1      -8.705  11.883  62.923  1.00  0.00     0.000 HD 
BRANCH   7  10
HETATM   10  C   UNL     1     -10.187  11.136  64.859  1.00  0.00    -0.303 C  
HETATM   11  H   UNL     1     -11.723  10.222  63.991  1.00  0.00     0.000 HD 
HETATM   12  O   UNL     1     -10.775  10.226  63.922  1.00  0.00     0.476 OA 
BRANCH  10  13
HETATM   13  C   UNL     1     -10.802  12.534  64.669  1.00  0.00    -0.310 C  
HETATM   14  H   UNL     1     -10.450  14.348  65.339  1.00  0.00     0.000 HD 
HETATM   15  O   UNL     1     -10.070  13.485  65.457  1.00  0.00    -0.295 OA 
BRANCH  13  16
HETATM   16  C   UNL     1     -12.294  12.564  65.060  1.00  0.00    -0.453 C  
HETATM   17  O   UNL     1     -12.990  13.623  64.402  1.00  0.00    -0.546 OA 
HETATM   18  H   UNL     1     -13.909  13.642  64.642  1.00  0.00     0.000 HD 
ENDBRANCH  13  16
ENDBRANCH  10  13
ENDBRANCH   7  10
ENDBRANCH   4   7
ENDBRANCH   2   4
TORSDOF 5
ENDMDL
MODEL      343
REMARK 921   NORMALIZED FREE ENERGY PREDICTED BY IDOCK:   -1.45 KCAL/MOL
REMARK 922        TOTAL FREE ENERGY PREDICTED BY IDOCK:   -2.18 KCAL/MOL
REMARK 923 INTER-LIGAND FREE ENERGY PREDICTED BY IDOCK:   -2.83 KCAL/MOL
REMARK 924 INTRA-LIGAND FREE ENERGY PREDICTED BY IDOCK:    0.65 KCAL/MOL
REMARK 927      BINDING AFFINITY PREDICTED BY RF-SCORE:    0.00 PKD
ROOT
HETATM    1  O   UNL     1      -8.832   9.771  64.840  1.00  0.00    -0.169 OA 
HETATM    2  C   UNL     1      -8.830   9.548  66.253  1.00  0.00    -0.149 C  
HETATM    3  H   UNL     1      -8.039   9.392  64.477  1.00  0.00     0.000 HD 
ENDROOT
BRANCH   2   4
HETATM    4  C   UNL     1     -10.107  10.158  66.838  1.00  0.00    -0.223 C  
HETATM    5  H   UNL     1     -11.558   9.545  68.007  1.00  0.00     0.000 HD 
HETATM    6  O   UNL     1     -10.766   9.166  67.644  1.00  0.00    -0.262 OA 
BRANCH   4   7
HETATM    7  C   UNL     1      -9.858  11.441  67.664  1.00  0.00    -0.176 C  
HETATM    8  O   UNL     1     -10.540  12.545  67.038  1.00  0.00    -0.229 OA 
HETATM    9  H   UNL     1     -10.387  13.334  67.546  1.00  0.00     0.000 HD 
BRANCH   7  10
HETATM   10  C   UNL     1     -10.343  11.337  69.132  1.00  0.00    -0.129 C  
HETATM   11  H   UNL     1     -10.319   9.997  70.600  1.00  0.00     0.000 HD 
HETATM   12  O   UNL     1     -10.022  10.062  69.700  1.00  0.00    -0.212 OA 
BRANCH  10  13
HETATM   13  C   UNL     1     -11.853  11.594  69.277  1.00  0.00    -0.331 C  
HETATM   14  H   UNL     1     -12.996  13.090  69.846  1.00  0.00     0.000 HD 
HETATM   15  O   UNL     1     -12.064  12.931  69.757  1.00  0.00    -0.299 OA 
BRANCH  13  16
HETATM   16  C   UNL     1     -12.521  10.582  70.230  1.00  0.00    -0.271 C  
HETATM   17  O   UNL     1     -12.563  11.070  71.572  1.00  0.00    -0.379 OA 
HETATM   18  H   UNL     1     -12.974  10.447  72.160  1.00  0.00     0.000 HD 
ENDBRANCH  13  16
ENDBRANCH  10  13
ENDBRANCH   7  10
ENDBRANCH   4   7
ENDBRANCH   2   4
TORSDOF 5
ENDMDL
MODEL      344
REMARK 921   NORMALIZED FREE ENERGY PREDICTED BY IDOCK:   -1.42 KCAL/MOL
REMARK 922        TOTAL FREE ENERGY PREDICTED BY IDOCK:   -2.14 KCAL/MOL
REMARK 923 INTER-LIGAND FREE ENERGY PREDICTED BY IDOCK:   -1.62 KCAL/MOL
REMARK 924 INTRA-LIGAND FREE ENERGY PREDICTED BY IDOCK:   -0.52 KCAL/MOL
REMARK 927      BINDING AFFINITY PREDICTED BY RF-SCORE:    0.00 PKD
ROOT
HETATM    1  O   UNL     1      -6.438   4.185  66.185  1.00  0.00    -0.035 OA 
HETATM    2  C   UNL     1      -6.957   5.514  66.074  1.00  0.00    -0.066 C  
HETATM    3  H   UNL     1      -5.531   4.194  65.901  1.00  0.00     0.000 HD 
ENDROOT
BRANCH   2   4
HETATM    4  C   UNL     1      -8.418   5.499  66.531  1.00  0.00    -0.113 C  
HETATM    5  H   UNL     1      -9.863   4.173  66.597  1.00  0.00     0.000 HD 
HETATM    6  O   UNL     1      -8.956   4.182  66.314  1.00  0.00    -0.115 OA 
BRANCH   4   7
HETATM    7  C   UNL     1      -8.611   5.921  68.006  1.00  0.00    -0.113 C  
HETATM    8  O   UNL     1      -7.327   5.951  68.659  1.00  0.00    -0.080 OA 
HETATM    9  H   UNL     1      -7.445   6.210  69.565  1.00  0.00     0.000 HD 
BRANCH   7  10
HETATM   10  C   UNL     1      -9.276   7.310  68.172  1.00  0.00    -0.132 C  
HETATM   11  H   UNL     1      -8.986   9.168  67.528  1.00  0.00     0.000 HD 
HETATM   12  O   UNL     1      -8.579   8.316  67.427  1.00  0.00    -0.123 OA 
BRANCH  10  13
HETATM   13  C   UNL     1      -9.379   7.746  69.644  1.00  0.00    -0.153 C  
HETATM   14  H   UNL     1      -9.667   6.859  71.375  1.00  0.00     0.000 HD 
HETATM   15  O   UNL     1      -9.604   6.590  70.466  1.00  0.00    -0.168 OA 
BRANCH  13  16
HETATM   16  C   UNL     1     -10.508   8.774  69.862  1.00  0.00    -0.221 C  
HETATM   17  O   UNL     1     -10.095   9.838  70.721  1.00  0.00    -0.304 OA 
HETATM   18  H   UNL     1     -10.789  10.471  70.855  1.00  0.00     0.000 HD 
ENDBRANCH  13  16
ENDBRANCH  10  13
ENDBRANCH   7  10
ENDBRANCH   4   7
ENDBRANCH   2   4
TORSDOF 5
ENDMDL
MODEL      345
REMARK 921   NORMALIZED FREE ENERGY PREDICTED BY IDOCK:   -1.42 KCAL/MOL
REMARK 922        TOTAL FREE ENERGY PREDICTED BY IDOCK:   -2.14 KCAL/MOL
REMARK 923 INTER-LIGAND FREE ENERGY PREDICTED BY IDOCK:   -1.99 KCAL/MOL
REMARK 924 INTRA-LIGAND FREE ENERGY PREDICTED BY IDOCK:   -0.15 KCAL/MOL
REMARK 927      BINDING AFFINITY PREDICTED BY RF-SCORE:    0.00 PKD
ROOT
HETATM    1  O   UNL     1      -6.746   9.628  63.486  1.00  0.00    -0.101 OA 
HETATM    2  C   UNL     1      -7.287  10.133  64.710  1.00  0.00    -0.134 C  
HETATM    3  H   UNL     1      -6.239  10.320  63.076  1.00  0.00     0.000 HD 
ENDROOT
BRANCH   2   4
HETATM    4  C   UNL     1      -8.103   9.019  65.371  1.00  0.00    -0.120 C  
HETATM    5  H   UNL     1      -8.723   7.229  64.858  1.00  0.00     0.000 HD 
HETATM    6  O   UNL     1      -8.217   7.921  64.448  1.00  0.00    -0.129 OA 
BRANCH   4   7
HETATM    7  C   UNL     1      -7.512   8.531  66.714  1.00  0.00    -0.083 C  
HETATM    8  O   UNL     1      -6.106   8.841  66.750  1.00  0.00    -0.055 OA 
HETATM    9  H   UNL     1      -5.742   8.541  67.575  1.00  0.00     0.000 HD 
BRANCH   7  10
HETATM   10  C   UNL     1      -8.185   9.168  67.956  1.00  0.00    -0.112 C  
HETATM   11  H   UNL     1      -9.243   8.569  69.528  1.00  0.00     0.000 HD 
HETATM   12  O   UNL     1      -8.830   8.178  68.766  1.00  0.00    -0.137 OA 
BRANCH  10  13
HETATM   13  C   UNL     1      -9.200  10.263  67.583  1.00  0.00    -0.144 C  
HETATM   14  H   UNL     1      -9.194  12.224  67.445  1.00  0.00     0.000 HD 
HETATM   15  O   UNL     1      -8.567  11.548  67.675  1.00  0.00    -0.129 OA 
BRANCH  13  16
HETATM   16  C   UNL     1     -10.447  10.224  68.490  1.00  0.00    -0.192 C  
HETATM   17  O   UNL     1     -11.652  10.364  67.736  1.00  0.00    -0.654 OA 
HETATM   18  H   UNL     1     -12.420  10.340  68.295  1.00  0.00     0.000 HD 
ENDBRANCH  13  16
ENDBRANCH  10  13
ENDBRANCH   7  10
ENDBRANCH   4   7
ENDBRANCH   2   4
TORSDOF 5
ENDMDL
MODEL      346
REMARK 921   NORMALIZED FREE ENERGY PREDICTED BY IDOCK:   -1.39 KCAL/MOL
REMARK 922        TOTAL FREE ENERGY PREDICTED BY IDOCK:   -2.11 KCAL/MOL
REMARK 923 INTER-LIGAND FREE ENERGY PREDICTED BY IDOCK:   -1.80 KCAL/MOL
REMARK 924 INTRA-LIGAND FREE ENERGY PREDICTED BY IDOCK:   -0.31 KCAL/MOL
REMARK 927      BINDING AFFINITY PREDICTED BY RF-SCORE:    0.00 PKD
ROOT
HETATM    1  O   UNL     1      -5.732   3.750  65.857  1.00  0.00    -0.017 OA 
HETATM    2  C   UNL     1      -6.369   4.962  65.446  1.00  0.00    -0.035 C  
HETATM    3  H   UNL     1      -4.839   3.757  65.532  1.00  0.00     0.000 HD 
ENDROOT
BRANCH   2   4
HETATM    4  C   UNL     1      -7.808   4.950  65.970  1.00  0.00    -0.099 C  
HETATM    5  H   UNL     1      -8.870   3.800  67.153  1.00  0.00     0.000 HD 
HETATM    6  O   UNL     1      -7.977   3.807  66.827  1.00  0.00    -0.094 OA 
BRANCH   4   7
HETATM    7  C   UNL     1      -8.206   6.244  66.717  1.00  0.00    -0.110 C  
HETATM    8  O   UNL     1      -7.014   6.973  67.066  1.00  0.00    -0.066 OA 
HETATM    9  H   UNL     1      -7.258   7.768  67.525  1.00  0.00     0.000 HD 
BRANCH   7  10
HETATM   10  C   UNL     1      -9.126   7.179  65.892  1.00  0.00    -0.013 C  
HETATM   11  H   UNL     1      -8.929   8.716  64.647  1.00  0.00     0.000 HD 
HETATM   12  O   UNL     1      -8.365   8.142  65.153  1.00  0.00    -0.148 OA 
BRANCH  10  13
HETATM   13  C   UNL     1     -10.165   7.908  66.762  1.00  0.00    -0.287 C  
HETATM   14  H   UNL     1     -10.127   9.174  68.266  1.00  0.00     0.000 HD 
HETATM   15  O   UNL     1      -9.486   8.724  67.729  1.00  0.00    -0.139 OA 
BRANCH  13  16
HETATM   16  C   UNL     1     -11.109   6.920  67.478  1.00  0.00    -0.213 C  
HETATM   17  O   UNL     1     -11.396   5.781  66.665  1.00  0.00    -0.579 OA 
HETATM   18  H   UNL     1     -11.978   5.173  67.106  1.00  0.00     0.000 HD 
ENDBRANCH  13  16
ENDBRANCH  10  13
ENDBRANCH   7  10
ENDBRANCH   4   7
ENDBRANCH   2   4
TORSDOF 5
ENDMDL
MODEL      347
REMARK 921   NORMALIZED FREE ENERGY PREDICTED BY IDOCK:   -1.37 KCAL/MOL
REMARK 922        TOTAL FREE ENERGY PREDICTED BY IDOCK:   -2.08 KCAL/MOL
REMARK 923 INTER-LIGAND FREE ENERGY PREDICTED BY IDOCK:   -2.60 KCAL/MOL
REMARK 924 INTRA-LIGAND FREE ENERGY PREDICTED BY IDOCK:    0.52 KCAL/MOL
REMARK 927      BINDING AFFINITY PREDICTED BY RF-SCORE:    0.00 PKD
ROOT
HETATM    1  O   UNL     1      -9.054   9.553  64.865  1.00  0.00    -0.212 OA 
HETATM    2  C   UNL     1      -8.428   8.705  65.832  1.00  0.00    -0.146 C  
HETATM    3  H   UNL     1      -8.380  10.078  64.448  1.00  0.00     0.000 HD 
ENDROOT
BRANCH   2   4
HETATM    4  C   UNL     1      -9.513   7.860  66.505  1.00  0.00    -0.214 C  
HETATM    5  H   UNL     1      -9.836   5.946  66.792  1.00  0.00     0.000 HD 
HETATM    6  O   UNL     1      -9.163   6.471  66.375  1.00  0.00    -0.155 OA 
BRANCH   4   7
HETATM    7  C   UNL     1      -9.744   8.218  67.992  1.00  0.00    -0.161 C  
HETATM    8  O   UNL     1     -11.113   8.628  68.170  1.00  0.00    -0.459 OA 
HETATM    9  H   UNL     1     -11.255   8.848  69.084  1.00  0.00     0.000 HD 
BRANCH   7  10
HETATM   10  C   UNL     1      -9.455   7.046  68.964  1.00  0.00    -0.138 C  
HETATM   11  H   UNL     1      -7.957   5.804  69.369  1.00  0.00     0.000 HD 
HETATM   12  O   UNL     1      -8.135   6.523  68.774  1.00  0.00    -0.115 OA 
BRANCH  10  13
HETATM   13  C   UNL     1     -10.479   5.905  68.837  1.00  0.00    -0.259 C  
HETATM   14  H   UNL     1     -12.186   5.421  69.685  1.00  0.00     0.000 HD 
HETATM   15  O   UNL     1     -11.553   6.125  69.763  1.00  0.00    -0.405 OA 
BRANCH  13  16
HETATM   16  C   UNL     1      -9.838   4.525  69.094  1.00  0.00    -0.152 C  
HETATM   17  O   UNL     1      -9.762   4.230  70.489  1.00  0.00    -0.185 OA 
HETATM   18  H   UNL     1      -9.368   3.381  70.648  1.00  0.00     0.000 HD 
ENDBRANCH  13  16
ENDBRANCH  10  13
ENDBRANCH   7  10
ENDBRANCH   4   7
ENDBRANCH   2   4
TORSDOF 5
ENDMDL
MODEL      348
REMARK 921   NORMALIZED FREE ENERGY PREDICTED BY IDOCK:   -1.34 KCAL/MOL
REMARK 922        TOTAL FREE ENERGY PREDICTED BY IDOCK:   -2.04 KCAL/MOL
REMARK 923 INTER-LIGAND FREE ENERGY PREDICTED BY IDOCK:   -2.52 KCAL/MOL
REMARK 924 INTRA-LIGAND FREE ENERGY PREDICTED BY IDOCK:    0.47 KCAL/MOL
REMARK 927      BINDING AFFINITY PREDICTED BY RF-SCORE:    0.00 PKD
ROOT
HETATM    1  O   UNL     1     -11.903  14.192  67.060  1.00  0.00    -0.388 OA 
HETATM    2  C   UNL     1     -10.478  14.170  66.937  1.00  0.00    -0.272 C  
HETATM    3  H   UNL     1     -12.164  15.059  67.349  1.00  0.00     0.000 HD 
ENDROOT
BRANCH   2   4
HETATM    4  C   UNL     1     -10.057  12.772  66.471  1.00  0.00    -0.258 C  
HETATM    5  H   UNL     1      -9.547  11.947  64.766  1.00  0.00     0.000 HD 
HETATM    6  O   UNL     1      -9.808  12.814  65.055  1.00  0.00    -0.180 OA 
BRANCH   4   7
HETATM    7  C   UNL     1      -8.822  12.217  67.217  1.00  0.00    -0.186 C  
HETATM    8  O   UNL     1      -7.765  13.195  67.172  1.00  0.00    -0.330 OA 
HETATM    9  H   UNL     1      -7.006  12.854  67.630  1.00  0.00     0.000 HD 
BRANCH   7  10
HETATM   10  C   UNL     1      -9.099  11.865  68.701  1.00  0.00    -0.042 C  
HETATM   11  H   UNL     1      -8.074  11.233  70.281  1.00  0.00     0.000 HD 
HETATM   12  O   UNL     1      -7.904  11.449  69.371  1.00  0.00     0.024 OA 
BRANCH  10  13
HETATM   13  C   UNL     1     -10.178  10.780  68.860  1.00  0.00    -0.203 C  
HETATM   14  H   UNL     1     -11.577   9.985  67.730  1.00  0.00     0.000 HD 
HETATM   15  O   UNL     1     -10.911  10.655  67.632  1.00  0.00    -0.270 OA 
BRANCH  13  16
HETATM   16  C   UNL     1     -11.145  11.096  70.020  1.00  0.00    -0.098 C  
HETATM   17  O   UNL     1     -11.888  12.292  69.776  1.00  0.00    -0.313 OA 
HETATM   18  H   UNL     1     -12.484  12.487  70.489  1.00  0.00     0.000 HD 
ENDBRANCH  13  16
ENDBRANCH  10  13
ENDBRANCH   7  10
ENDBRANCH   4   7
ENDBRANCH   2   4
TORSDOF 5
ENDMDL
MODEL      349
REMARK 921   NORMALIZED FREE ENERGY PREDICTED BY IDOCK:   -0.96 KCAL/MOL
REMARK 922        TOTAL FREE ENERGY PREDICTED BY IDOCK:   -1.55 KCAL/MOL
REMARK 923 INTER-LIGAND FREE ENERGY PREDICTED BY IDOCK:   -1.28 KCAL/MOL
REMARK 924 INTRA-LIGAND FREE ENERGY PREDICTED BY IDOCK:   -0.27 KCAL/MOL
REMARK 927      BINDING AFFINITY PREDICTED BY RF-SCORE:    0.00 PKD
ROOT
HETATM    1  O   UNL     1     -13.209   9.338  71.857  1.00  0.00    -0.362 OA 
HETATM    2  C   UNL     1     -12.966   9.630  70.477  1.00  0.00     0.141 C  
HETATM    3  H   UNL     1     -14.076   8.956  71.933  1.00  0.00     0.000 HD 
ENDROOT
BRANCH   2   4
HETATM    4  C   UNL     1     -11.569  10.245  70.355  1.00  0.00    -0.328 C  
HETATM    5  H   UNL     1     -10.582  11.692  71.237  1.00  0.00     0.000 HD 
HETATM    6  O   UNL     1     -11.448  11.310  71.313  1.00  0.00     0.551 OA 
BRANCH   4   7
HETATM    7  C   UNL     1     -10.424   9.223  70.542  1.00  0.00    -0.255 C  
HETATM    8  O   UNL     1     -10.789   7.983  69.905  1.00  0.00    -0.248 OA 
HETATM    9  H   UNL     1     -10.085   7.355  70.020  1.00  0.00     0.000 HD 
BRANCH   7  10
HETATM   10  C   UNL     1      -9.069   9.694  69.955  1.00  0.00    -0.225 C  
HETATM   11  H   UNL     1      -8.419  10.662  68.345  1.00  0.00     0.000 HD 
HETATM   12  O   UNL     1      -9.250  10.373  68.706  1.00  0.00    -0.154 OA 
BRANCH  10  13
HETATM   13  C   UNL     1      -8.071   8.538  69.768  1.00  0.00    -0.116 C  
HETATM   14  H   UNL     1      -6.149   8.253  70.070  1.00  0.00     0.000 HD 
HETATM   15  O   UNL     1      -6.765   8.967  70.185  1.00  0.00    -0.037 OA 
BRANCH  13  16
HETATM   16  C   UNL     1      -8.022   8.051  68.305  1.00  0.00    -0.128 C  
HETATM   17  O   UNL     1      -8.487   6.706  68.181  1.00  0.00    -0.116 OA 
HETATM   18  H   UNL     1      -8.458   6.406  67.280  1.00  0.00     0.000 HD 
ENDBRANCH  13  16
ENDBRANCH  10  13
ENDBRANCH   7  10
ENDBRANCH   4   7
ENDBRANCH   2   4
TORSDOF 5
ENDMDL
